@<TRIPOS>MOLECULE
3R540
247   249    1
SMALL
USER_CHARGES


@<TRIPOS>ATOM
      1 CA         -4.5364  -13.7060  -45.6380 C.3       0 UNK        -0.1800 
      2 C          -3.7022  -12.4503  -45.8522 C.2       0 UNK         0.5000 
      3 O          -3.9478  -11.4301  -45.2086 O.2       0 UNK        -0.5000 
      4 N          -2.7242  -12.5225  -46.7595 N.am      1 UNK        -0.5000 
      5 CA         -1.7669  -11.4576  -47.0638 C.3       1 UNK         0.1400 
      6 C6         -1.1784  -11.5865  -48.4963 C.3       23 UNK        -0.0398 
      7 S7         -0.7528  -13.2946  -49.0058 S.3       23 UNK        -0.2404 
      8 C8         -2.1266  -13.6254  -50.1520 C.3       23 UNK        -0.0205 
      9 C9         -2.2047  -15.0911  -50.5461 C.ar      23 UNK        -0.0193 
     10 C10        -1.4474  -15.5744  -51.6165 C.ar      23 UNK        -0.1150 
     11 C11        -1.5628  -16.9075  -52.0180 C.ar      23 UNK        -0.0193 
     12 C12        -2.4352  -17.7576  -51.3353 C.ar      23 UNK        -0.1150 
     13 C13        -3.2004  -17.2916  -50.2586 C.ar      23 UNK        -0.0193 
     14 C14        -3.0730  -15.9543  -49.8705 C.ar      23 UNK        -0.1150 
     15 C15        -4.2109  -18.1775  -49.5267 C.3       23 UNK        -0.0205 
     16 S16        -3.8991  -19.9727  -49.6316 S.3       23 UNK        -0.2404 
     17 C17        -2.3638  -20.0938  -48.6635 C.3       23 UNK        -0.0398 
     18 CA         -1.9896  -21.5568  -48.3392 C.3       11 UNK         0.1400 
     19 N          -0.5586  -21.7003  -48.0733 N.am      11 UNK        -0.5000 
     20 C           0.1060  -22.8629  -48.0560 C.2       10 UNK         0.5000 
     21 O          -0.4134  -23.9503  -48.2961 O.2       10 UNK        -0.5000 
     22 CA          1.5933  -22.7987  -47.6665 C.3       10 UNK         0.1400 
     23 CB          2.4531  -22.4583  -48.8932 C.3       10 UNK        -0.1800 
     24 N           1.8482  -21.8230  -46.6051 N.am      10 UNK        -0.5000 
     25 C           1.3725  -21.9246  -45.3554 C.2       9 UNK         0.5000 
     26 O           0.7247  -22.8884  -44.9480 O.2       9 UNK        -0.5000 
     27 CA          1.6109  -20.7214  -44.4248 C.3       9 UNK         0.1400 
     28 CB          2.9640  -20.8569  -43.7136 C.3       9 UNK        -0.1800 
     29 N           1.5453  -19.4268  -45.1113 N.am      9 UNK        -0.5000 
     30 C           0.4712  -18.9536  -45.7645 C.2       8 UNK         0.5000 
     31 O          -0.5741  -19.5923  -45.8920 O.2       8 UNK        -0.5000 
     32 CA          0.5952  -17.5550  -46.3969 C.3       8 UNK         0.1400 
     33 CB         -0.7534  -16.8153  -46.4864 C.3       8 UNK        -0.1800 
     34 N           1.5467  -16.7407  -45.6435 N.am      8 UNK        -0.5000 
     35 C           2.6012  -16.1044  -46.1661 C.2       7 UNK         0.5000 
     36 O           2.8863  -16.1200  -47.3639 O.2       7 UNK        -0.5000 
     37 CA          3.5080  -15.3282  -45.1937 C.3       7 UNK         0.1400 
     38 CB          3.1321  -13.8394  -45.1839 C.3       7 UNK        -0.1800 
     39 N           3.4919  -15.8320  -43.8185 N.am      7 UNK        -0.5000 
     40 C           4.0285  -16.9934  -43.4189 C.2       6 UNK         0.5000 
     41 O           4.4857  -17.8333  -44.1939 O.2       6 UNK        -0.5000 
     42 CA          4.0536  -17.2632  -41.9054 C.3       6 UNK         0.1400 
     43 CB          5.1461  -16.4222  -41.2261 C.3       6 UNK        -0.1800 
     44 N           2.7618  -16.9457  -41.3026 N.am      6 UNK        -0.5000 
     45 C           1.9269  -17.8350  -40.7489 C.2       5 UNK         0.5000 
     46 O           2.1943  -19.0274  -40.5974 O.2       5 UNK        -0.5000 
     47 CA          0.5466  -17.3131  -40.2933 C.3       5 UNK         0.1400 
     48 CB          0.5621  -17.0001  -38.7894 C.3       5 UNK        -0.1800 
     49 N           0.0879  -16.1256  -41.0194 N.am      5 UNK        -0.5000 
     50 C          -0.1257  -16.0690  -42.3408 C.2       4 UNK         0.5000 
     51 O          -0.0060  -17.0352  -43.0916 O.2       4 UNK        -0.5000 
     52 CA         -0.4727  -14.6959  -42.9429 C.3       4 UNK         0.1400 
     53 CB         -1.9940  -14.5335  -43.0563 C.3       4 UNK        -0.1800 
     54 N           0.0749  -13.5281  -42.2439 N.am      4 UNK        -0.5000 
     55 C           1.3516  -13.3141  -41.8993 C.2       3 UNK         0.5000 
     56 O           2.2362  -14.1700  -41.9633 O.2       3 UNK        -0.5000 
     57 CA          1.7012  -11.8723  -41.4867 C.3       3 UNK         0.1400 
     58 CB          3.0874  -11.7705  -40.8258 C.3       3 UNK        -0.1800 
     59 N           1.6769  -11.0115  -42.6690 N.am      3 UNK        -0.5000 
     60 C           0.5718  -10.5322  -43.2550 C.2       2 UNK         0.5000 
     61 O          -0.5541  -10.6459  -42.7633 O.2       2 UNK        -0.5000 
     62 CA          0.7410   -9.8168  -44.6153 C.3       2 UNK         0.1400 
     63 CB          2.1299  -10.0147  -45.2637 C.3       2 UNK        -0.1800 
     64 N          -0.3114  -10.1687  -45.5768 N.am      2 UNK        -0.5000 
     65 C          -0.6590  -11.3972  -45.9930 C.2       1 UNK         0.5000 
     66 O          -0.1345  -12.4408  -45.5990 O.2       1 UNK        -0.5000 
     67 C          -2.8350  -22.1304  -47.1878 C.2       11 UNK         0.5000 
     68 O          -3.8233  -22.8173  -47.4469 O.2       11 UNK        -0.5000 
     69 N          -2.4055  -21.8841  -45.9423 N.am      12 UNK        -0.5000 
     70 CA         -3.0011  -22.4556  -44.7350 C.3       12 UNK         0.1400 
     71 CB         -2.3639  -21.8191  -43.4905 C.3       12 UNK        -0.1800 
     72 C          -2.8865  -23.9915  -44.7017 C.2       12 UNK         0.5000 
     73 O          -3.8810  -24.6657  -44.4330 O.2       12 UNK        -0.5000 
     74 N          -1.6982  -24.5166  -45.0359 N.am      13 UNK        -0.5000 
     75 CA         -1.4213  -25.9505  -45.1595 C.3       13 UNK         0.1400 
     76 CB          0.0861  -26.1637  -45.3633 C.3       13 UNK        -0.1800 
     77 C          -2.2242  -26.6298  -46.2867 C.2       13 UNK         0.5000 
     78 O          -2.6813  -27.7595  -46.1112 O.2       13 UNK        -0.5000 
     79 N          -2.4112  -25.9181  -47.4064 N.am      14 UNK        -0.5000 
     80 CA         -3.2166  -26.3431  -48.5541 C.3       14 UNK         0.1400 
     81 CB         -2.7627  -25.5576  -49.7941 C.3       14 UNK        -0.1800 
     82 C          -4.7389  -26.1915  -48.3410 C.2       14 UNK         0.5000 
     83 O          -5.5025  -26.5851  -49.2229 O.2       14 UNK        -0.5000 
     84 N          -5.1528  -25.6296  -47.1954 N.am      15 UNK        -0.5000 
     85 CA         -6.5315  -25.3699  -46.7736 C.3       15 UNK         0.1400 
     86 CB         -7.3188  -26.6863  -46.6003 C.3       15 UNK        -0.1800 
     87 C          -7.2449  -24.3383  -47.6717 C.2       15 UNK         0.5000 
     88 O          -8.3683  -24.5741  -48.1203 O.2       15 UNK        -0.5000 
     89 N          -6.5708  -23.2004  -47.8917 N.am      16 UNK        -0.5000 
     90 CA         -7.0269  -22.0198  -48.6311 C.3       16 UNK         0.1400 
     91 CB         -8.2657  -21.3836  -47.9655 C.3       16 UNK        -0.1800 
     92 C          -7.2091  -22.2916  -50.1376 C.2       16 UNK         0.5000 
     93 O          -8.2191  -21.9008  -50.7257 O.2       16 UNK        -0.5000 
     94 N          -6.2115  -22.9531  -50.7404 N.am      17 UNK        -0.5000 
     95 CA         -6.1823  -23.3025  -52.1655 C.3       17 UNK         0.1400 
     96 CB         -5.1907  -24.4559  -52.3753 C.3       17 UNK        -0.1800 
     97 C          -5.8556  -22.1183  -53.1028 C.2       17 UNK         0.5000 
     98 O          -5.9486  -22.2774  -54.3210 O.2       17 UNK        -0.5000 
     99 N          -5.4819  -20.9624  -52.5336 N.am      18 UNK        -0.5000 
    100 CA        -5.1415  -19.7095  -53.2121 C.3       18 UNK         0.1400 
    101 CB        -6.3809  -19.1094  -53.9134 C.3       18 UNK        -0.1800 
    102 C         -3.9078  -19.8779  -54.1212 C.2       18 UNK         0.5000 
    103 O         -2.8831  -20.3761  -53.6523 O.2       18 UNK        -0.5000 
    104 N         -4.0097  -19.4773  -55.3960 N.am      19 UNK        -0.5000 
    105 CA        -2.9331  -19.5175  -56.3918 C.3       19 UNK         0.1400 
    106 CB        -3.4589  -18.9577  -57.7215 C.3       19 UNK        -0.1800 
    107 C         -2.3069  -20.9101  -56.6044 C.2       19 UNK         0.5000 
    108 O         -1.1221  -20.9940  -56.9279 O.2       19 UNK        -0.5000 
    109 N         -3.0885  -21.9742  -56.3739 N.am      20 UNK        -0.5000 
    110 CA        -2.6310  -23.3627  -56.4259 C.3       20 UNK         0.1400 
    111 CB        -3.8503  -24.2959  -56.4187 C.3       20 UNK        -0.1800 
    112 C         -1.6489  -23.7346  -55.2955 C.2       20 UNK         0.5000 
    113 O         -0.8800  -24.6812  -55.4678 O.2       20 UNK        -0.5000 
    114 N         -1.6719  -22.9957  -54.1752 N.am      21 UNK        -0.5000 
    115 CA        -0.7120  -23.1531  -53.0831 C.3       21 UNK         0.1400 
    116 CB        -1.3048  -22.6063  -51.7771 C.3       21 UNK        -0.1800 
    117 C          0.6164  -22.4474  -53.3980 C.2       21 UNK         0.5000 
    118 O          1.6792  -23.0206  -53.1551 O.2       21 UNK        -0.5000 
    119 N          0.5301  -21.2171  -53.9214 N.am      22 UNK        -0.5000 
    120 CA         1.6975  -20.3904  -54.2687 C.3       22 UNK         0.1400 
    121 C          2.4019  -20.8194  -55.5860 C.2       22 UNK         0.5000 
    122 N          1.6908  -21.3403  -56.5779 N.am      22 UNK        -0.7600 
    123 O          3.6162  -20.6823  -55.7073 O.2       22 UNK        -0.5000 
    124 C124        1.3643  -18.8784  -54.2977 C.3       23 UNK        -0.0398 
    125 S125        0.7493  -18.2645  -52.6910 S.3       23 UNK        -0.2404 
    126 C126       -0.7771  -17.4279  -53.2103 C.3       23 UNK        -0.0205 
    127 H127       -4.6125  -13.9324  -44.5746 H         1 UNK         0.0600 
    128 H128       -4.0998  -14.5714  -46.1377 H         1 UNK         0.0600 
    129 H129       -5.5434  -13.5576  -46.0277 H         1 UNK         0.0600 
    130 H130       -2.5320  -13.3993  -47.2223 H         1 UNK         0.3000 
    131 H131       -2.3073  -10.5088  -47.0285 H         1 UNK         0.0600 
    132 H132       -0.2912  -10.9611  -48.6129 H         1 UNK         0.0800 
    133 H133       -1.8983  -11.1800  -49.2078 H         1 UNK         0.0800 
    134 H134       -3.0677  -13.3178  -49.6931 H         1 UNK         0.0800 
    135 H135       -2.0066  -13.0083  -51.0440 H         1 UNK         0.0800 
    136 H136       -0.7799  -14.9085  -52.1454 H         1 UNK         0.1150 
    137 H137       -2.5144  -18.7842  -51.6580 H         1 UNK         0.1150 
    138 H138       -3.6686  -15.5771  -49.0509 H         1 UNK         0.1150 
    139 H139       -4.2578  -17.8957  -48.4736 H         1 UNK         0.0800 
    140 H140       -5.1996  -17.9783  -49.9418 H         1 UNK         0.0800 
    141 H141       -2.4552  -19.4948  -47.7563 H         1 UNK         0.0800 
    142 H142       -1.5736  -19.6299  -49.2555 H         1 UNK         0.0800 
    143 H143       -2.2090  -22.1632  -49.2181 H         1 UNK         0.0600 
    144 H144       -0.0732  -20.8646  -47.7827 H         1 UNK         0.3000 
    145 H145        1.8873  -23.7851  -47.3017 H         1 UNK         0.0600 
    146 H146        2.2888  -23.1779  -49.6967 H         1 UNK         0.0600 
    147 H147        2.2209  -21.4686  -49.2889 H         1 UNK         0.0600 
    148 H148        3.5153  -22.4822  -48.6492 H         1 UNK         0.0600 
    149 H149        2.3782  -21.0009  -46.8537 H         1 UNK         0.3000 
    150 H150        0.8253  -20.7304  -43.6667 H         1 UNK         0.0600 
    151 H151        3.0409  -21.8138  -43.1956 H         1 UNK         0.0600 
    152 H152        3.0929  -20.0758  -42.9661 H         1 UNK         0.0600 
    153 H153        3.7976  -20.7917  -44.4139 H         1 UNK         0.0600 
    154 H154        2.3709  -18.8458  -45.0595 H         1 UNK         0.3000 
    155 H155        0.9547  -17.7171  -47.4148 H         1 UNK         0.0600 
    156 H156       -1.2246  -16.7159  -45.5087 H         1 UNK         0.0600 
    157 H157       -0.6270  -15.8144  -46.9004 H         1 UNK         0.0600 
    158 H158       -1.4506  -17.3450  -47.1357 H         1 UNK         0.0600 
    159 H159        1.3844  -16.7049  -44.6434 H         1 UNK         0.3000 
    160 H160        4.5308  -15.4141  -45.5664 H         1 UNK         0.0600 
    161 H161        2.1168  -13.6868  -44.8185 H         1 UNK         0.0600 
    162 H162        3.1838  -13.4155  -46.1875 H         1 UNK         0.0600 
    163 H163        3.8068  -13.2633  -44.5506 H         1 UNK         0.0600 
    164 H164        3.1167  -15.1968  -43.1172 H         1 UNK         0.3000 
    165 H165        4.3015  -18.3164  -41.7606 H         1 UNK         0.0600 
    166 H166        5.2149  -16.6553  -40.1635 H         1 UNK         0.0600 
    167 H167        6.1238  -16.6207  -41.6670 H         1 UNK         0.0600 
    168 H168        4.9520  -15.3527  -41.3205 H         1 UNK         0.0600 
    169 H169        2.4501  -15.9833  -41.3945 H         1 UNK         0.3000 
    170 H170       -0.1776  -18.1105  -40.4718 H         1 UNK         0.0600 
    171 H171        0.8728  -17.8718  -38.2118 H         1 UNK         0.0600 
    172 H172        1.2520  -16.1882  -38.5555 H         1 UNK         0.0600 
    173 H173       -0.4283  -16.7137  -38.4350 H         1 UNK         0.0600 
    174 H174       -0.0158  -15.2766  -40.4836 H         1 UNK         0.3000 
    175 H175       -0.0575  -14.6786  -43.9523 H         1 UNK         0.0600 
    176 H176       -2.4729  -14.5346  -42.0765 H         1 UNK         0.0600 
    177 H177       -2.2475  -13.5968  -43.5517 H         1 UNK         0.0600 
    178 H178       -2.4338  -15.3421  -43.6416 H         1 UNK         0.0600 
    179 H179       -0.5372  -12.7212  -42.2081 H         1 UNK         0.3000 
    180 H180        0.9551  -11.5313  -40.7659 H         1 UNK         0.0600 
    181 H181        3.8848  -12.0754  -41.5050 H         1 UNK         0.0600 
    182 H182        3.1461  -12.4089  -39.9433 H         1 UNK         0.0600 
    183 H183        3.2951  -10.7503  -40.5029 H         1 UNK         0.0600 
    184 H184        2.5575  -10.8940  -43.1483 H         1 UNK         0.3000 
    185 H185        0.6226   -8.7523  -44.4087 H         1 UNK         0.0600 
    186 H186        2.9277   -9.6220  -44.6324 H         1 UNK         0.0600 
    187 H187        2.3404  -11.0662  -45.4592 H         1 UNK         0.0600 
    188 H188        2.1934   -9.4862  -46.2150 H         1 UNK         0.0600 
    189 H189       -0.8357   -9.3825  -45.9343 H         1 UNK         0.3000 
    190 H190       -1.6129  -21.2615  -45.8177 H         1 UNK         0.3000 
    191 H191       -4.0629  -22.2007  -44.7384 H         1 UNK         0.0600 
    192 H192       -1.3025  -22.0524  -43.4129 H         1 UNK         0.0600 
    193 H193       -2.8449  -22.1798  -42.5806 H         1 UNK         0.0600 
    194 H194       -2.4664  -20.7337  -43.5059 H         1 UNK         0.0600 
    195 H195       -0.9151  -23.8890  -45.1968 H         1 UNK         0.3000 
    196 H196       -1.7070  -26.4253  -44.2187 H         1 UNK         0.0600 
    197 H197        0.3256  -27.2256  -45.4311 H         1 UNK         0.0600 
    198 H198        0.6582  -25.7534  -44.5310 H         1 UNK         0.0600 
    199 H199        0.4396  -25.6876  -46.2782 H         1 UNK         0.0600 
    200 H200       -1.9361  -25.0264  -47.5004 H         1 UNK         0.3000 
    201 H201       -3.0216  -27.4015  -48.7378 H         1 UNK         0.0600 
    202 H202       -1.6917  -25.6681  -49.9644 H         1 UNK         0.0600 
    203 H203       -2.9805  -24.4944  -49.6937 H         1 UNK         0.0600 
    204 H204       -3.2653  -25.9193  -50.6908 H         1 UNK         0.0600 
    205 H205       -4.4410  -25.3149  -46.5484 H         1 UNK         0.3000 
    206 H206       -6.4587  -24.9082  -45.7878 H         1 UNK         0.0600 
    207 H207       -8.2971  -26.4981  -46.1567 H         1 UNK         0.0600 
    208 H208       -7.4854  -27.1921  -47.5516 H         1 UNK         0.0600 
    209 H209       -6.7916  -27.3760  -45.9411 H         1 UNK         0.0600 
    210 H210       -5.6140  -23.1401  -47.5456 H         1 UNK         0.3000 
    211 H211       -6.2201  -21.2927  -48.5494 H         1 UNK         0.0600 
    212 H212       -9.1468  -22.0203  -48.0474 H         1 UNK         0.0600 
    213 H213       -8.5103  -20.4291  -48.4331 H         1 UNK         0.0600 
    214 H214       -8.0884  -21.1892  -46.9078 H         1 UNK         0.0600 
    215 H215       -5.4264  -23.2528  -50.1811 H         1 UNK         0.3000 
    216 H216       -7.1740  -23.6641  -52.4452 H         1 UNK         0.0600 
    217 H217       -4.1647  -24.1463  -52.1840 H         1 UNK         0.0600 
    218 H218       -5.2351  -24.8279  -53.3986 H         1 UNK         0.0600 
    219 H219       -5.4211  -25.2970  -51.7215 H         1 UNK         0.0600 
    220 H220       -5.3746  -20.9517  -51.5295 H         1 UNK         0.3000 
    221 H221       -4.8456  -19.0097  -52.4313 H         1 UNK         0.0600 
    222 H222       -6.7329  -19.7303  -54.7378 H         1 UNK         0.0600 
    223 H223       -7.2069  -19.0003  -53.2103 H         1 UNK         0.0600 
    224 H224       -6.1686  -18.1154  -54.3088 H         1 UNK         0.0600 
    225 H225       -4.8928  -19.1002  -55.7076 H         1 UNK         0.3000 
    226 H226       -2.1372  -18.8597  -56.0376 H         1 UNK         0.0600 
    227 H227       -3.8080  -17.9312  -57.6079 H         1 UNK         0.0600 
    228 H228       -2.6750  -18.9501  -58.4802 H         1 UNK         0.0600 
    229 H229       -4.2857  -19.5540  -58.1094 H         1 UNK         0.0600 
    230 H230       -4.0423  -21.8206  -56.0752 H         1 UNK         0.3000 
    231 H231       -2.1037  -23.5063  -57.3714 H         1 UNK         0.0600 
    232 H232       -3.5449  -25.3409  -56.4852 H         1 UNK         0.0600 
    233 H233       -4.5067  -24.0947  -57.2654 H         1 UNK         0.0600 
    234 H234       -4.4352  -24.1824  -55.5072 H         1 UNK         0.0600 
    235 H235       -2.3008  -22.2014  -54.1117 H         1 UNK         0.3000 
    236 H236       -0.5106  -24.2166  -52.9367 H         1 UNK         0.0600 
    237 H237       -2.2668  -23.0617  -51.5532 H         1 UNK         0.0600 
    238 H238       -0.6382  -22.8243  -50.9434 H         1 UNK         0.0600 
    239 H239       -1.4454  -21.5254  -51.8053 H         1 UNK         0.0600 
    240 H240       -0.3821  -20.8134  -54.0777 H         1 UNK         0.3000 
    241 H241        2.4370  -20.5291  -53.4770 H         1 UNK         0.0600 
    242 H242        0.6750  -21.3673  -56.5408 H         1 UNK         0.3800 
    243 H243        2.1596  -21.6209  -57.4241 H         1 UNK         0.3800 
    244 H244        2.2537  -18.2972  -54.5477 H         1 UNK         0.0800 
    245 H245        0.6358  -18.6699  -55.0832 H         1 UNK         0.0800 
    246 H246       -1.3953  -18.1220  -53.7792 H         1 UNK         0.0800 
    247 H247       -0.5287  -16.6090  -53.8873 H         1 UNK         0.0800 
@<TRIPOS>BOND
     1    1    2 1    
     2    1  127 1    
     3    1  128 1    
     4    1  129 1    
     5    2    3 2    
     6    2    4 am   BACKBONE|DICT|INTERRES
     7    4    5 1    
     8    4  130 1    
     9    5    6 1    
    10    5   65 1    
    11    5  131 1    
    12    6    7 1    
    13    6  132 1    
    14    6  133 1    
    15    7    8 1    
    16    8    9 1    
    17    8  134 1    
    18    8  135 1    
    19    9   10 ar   
    20    9   14 ar   
    21   10   11 ar   
    22   10  136 1    
    23   11   12 ar   
    24   11  126 1    
    25   12   13 ar   
    26   12  137 1    
    27   13   14 ar   
    28   13   15 1    
    29   14  138 1    
    30   15   16 1    
    31   15  139 1    
    32   15  140 1    
    33   16   17 1    
    34   17   18 1    
    35   17  141 1    
    36   17  142 1    
    37   18   19 1    
    38   18   67 1    
    39   18  143 1    
    40   19   20 am   BACKBONE|DICT|INTERRES
    41   19  144 1    
    42   20   21 2    
    43   20   22 1    
    44   22   23 1    
    45   22   24 1    
    46   22  145 1    
    47   23  146 1    
    48   23  147 1    
    49   23  148 1    
    50   24   25 am   BACKBONE|DICT|INTERRES
    51   24  149 1    
    52   25   26 2    
    53   25   27 1    
    54   27   28 1    
    55   27   29 1    
    56   27  150 1    
    57   28  151 1    
    58   28  152 1    
    59   28  153 1    
    60   29   30 am   BACKBONE|DICT|INTERRES
    61   29  154 1    
    62   30   31 2    
    63   30   32 1    
    64   32   33 1    
    65   32   34 1    
    66   32  155 1    
    67   33  156 1    
    68   33  157 1    
    69   33  158 1    
    70   34   35 am   BACKBONE|DICT|INTERRES
    71   34  159 1    
    72   35   36 2    
    73   35   37 1    
    74   37   38 1    
    75   37   39 1    
    76   37  160 1    
    77   38  161 1    
    78   38  162 1    
    79   38  163 1    
    80   39   40 am   BACKBONE|DICT|INTERRES
    81   39  164 1    
    82   40   41 2    
    83   40   42 1    
    84   42   43 1    
    85   42   44 1    
    86   42  165 1    
    87   43  166 1    
    88   43  167 1    
    89   43  168 1    
    90   44   45 am   BACKBONE|DICT|INTERRES
    91   44  169 1    
    92   45   46 2    
    93   45   47 1    
    94   47   48 1    
    95   47   49 1    
    96   47  170 1    
    97   48  171 1    
    98   48  172 1    
    99   48  173 1    
   100   49   50 am   BACKBONE|DICT|INTERRES
   101   49  174 1    
   102   50   51 2    
   103   50   52 1    
   104   52   53 1    
   105   52   54 1    
   106   52  175 1    
   107   53  176 1    
   108   53  177 1    
   109   53  178 1    
   110   54   55 am   BACKBONE|DICT|INTERRES
   111   54  179 1    
   112   55   56 2    
   113   55   57 1    
   114   57   58 1    
   115   57   59 1    
   116   57  180 1    
   117   58  181 1    
   118   58  182 1    
   119   58  183 1    
   120   59   60 am   BACKBONE|DICT|INTERRES
   121   59  184 1    
   122   60   61 2    
   123   60   62 1    
   124   62   63 1    
   125   62   64 1    
   126   62  185 1    
   127   63  186 1    
   128   63  187 1    
   129   63  188 1    
   130   64   65 am   BACKBONE|DICT|INTERRES
   131   64  189 1    
   132   65   66 2    
   133   67   68 2    
   134   67   69 am   BACKBONE|DICT|INTERRES
   135   69   70 1    
   136   69  190 1    
   137   70   71 1    
   138   70   72 1    
   139   70  191 1    
   140   71  192 1    
   141   71  193 1    
   142   71  194 1    
   143   72   73 2    
   144   72   74 am   BACKBONE|DICT|INTERRES
   145   74   75 1    
   146   74  195 1    
   147   75   76 1    
   148   75   77 1    
   149   75  196 1    
   150   76  197 1    
   151   76  198 1    
   152   76  199 1    
   153   77   78 2    
   154   77   79 am   BACKBONE|DICT|INTERRES
   155   79   80 1    
   156   79  200 1    
   157   80   81 1    
   158   80   82 1    
   159   80  201 1    
   160   81  202 1    
   161   81  203 1    
   162   81  204 1    
   163   82   83 2    
   164   82   84 am   BACKBONE|DICT|INTERRES
   165   84   85 1    
   166   84  205 1    
   167   85   86 1    
   168   85   87 1    
   169   85  206 1    
   170   86  207 1    
   171   86  208 1    
   172   86  209 1    
   173   87   88 2    
   174   87   89 am   BACKBONE|DICT|INTERRES
   175   89   90 1    
   176   89  210 1    
   177   90   91 1    
   178   90   92 1    
   179   90  211 1    
   180   91  212 1    
   181   91  213 1    
   182   91  214 1    
   183   92   93 2    
   184   92   94 am   BACKBONE|DICT|INTERRES
   185   94   95 1    
   186   94  215 1    
   187   95   96 1    
   188   95   97 1    
   189   95  216 1    
   190   96  217 1    
   191   96  218 1    
   192   96  219 1    
   193   97   98 2    
   194   97   99 am   BACKBONE|DICT|INTERRES
   195   99  100 1    
   196   99  220 1    
   197  100  101 1    
   198  100  102 1    
   199  100  221 1    
   200  101  222 1    
   201  101  223 1    
   202  101  224 1    
   203  102  103 2    
   204  102  104 am   BACKBONE|DICT|INTERRES
   205  104  105 1    
   206  104  225 1    
   207  105  106 1    
   208  105  107 1    
   209  105  226 1    
   210  106  227 1    
   211  106  228 1    
   212  106  229 1    
   213  107  108 2    
   214  107  109 am   BACKBONE|DICT|INTERRES
   215  109  110 1    
   216  109  230 1    
   217  110  111 1    
   218  110  112 1    
   219  110  231 1    
   220  111  232 1    
   221  111  233 1    
   222  111  234 1    
   223  112  113 2    
   224  112  114 am   BACKBONE|DICT|INTERRES
   225  114  115 1    
   226  114  235 1    
   227  115  116 1    
   228  115  117 1    
   229  115  236 1    
   230  116  237 1    
   231  116  238 1    
   232  116  239 1    
   233  117  118 2    
   234  117  119 am   BACKBONE|DICT|INTERRES
   235  119  120 1    
   236  119  240 1    
   237  120  121 1    
   238  120  124 1    
   239  120  241 1    
   240  121  122 am   BACKBONE|DICT|INTERRES
   241  121  123 2    
   242  122  242 1    
   243  122  243 1    
   244  124  125 1    
   245  124  244 1    
   246  124  245 1    
   247  125  126 1    
   248  126  246 1    
   249  126  247 1    
@<TRIPOS>SUBSTRUCTURE
     1 UNK         1 GROUP             0       ****    0 ROOT    
