@<TRIPOS>MOLECULE
3R540
247   249    1
SMALL
USER_CHARGES


@<TRIPOS>ATOM
      1 CA         -1.2305   -7.9237  -48.2827 C.3       0 UNK        -0.1800 
      2 C          -0.9782   -9.3916  -47.9693 C.2       0 UNK         0.5000 
      3 O          -0.5612   -9.7151  -46.8574 O.2       0 UNK        -0.5000 
      4 N          -1.2255  -10.2759  -48.9472 N.am      1 UNK        -0.5000 
      5 CA         -1.0495  -11.7348  -48.8612 C.3       1 UNK         0.1400 
      6 C6         -1.9827  -12.3845  -47.8002 C.3       23 UNK        -0.0398 
      7 S7         -2.5800  -14.0353  -48.2941 S.3       23 UNK        -0.2404 
      8 C8         -4.0253  -14.1895  -47.2021 C.3       23 UNK        -0.0205 
      9 C9         -4.7316  -15.5178  -47.4112 C.ar      23 UNK        -0.0193 
     10 C10        -5.8783  -15.5934  -48.2061 C.ar      23 UNK        -0.1150 
     11 C11        -6.5164  -16.8207  -48.4189 C.ar      23 UNK        -0.0193 
     12 C12        -6.0178  -17.9701  -47.7987 C.ar      23 UNK        -0.1150 
     13 C13        -4.8832  -17.9017  -46.9860 C.ar      23 UNK        -0.0193 
     14 C14        -4.2384  -16.6758  -46.8062 C.ar      23 UNK        -0.1150 
     15 C15        -4.3356  -19.1482  -46.3138 C.3       23 UNK        -0.0205 
     16 S16        -4.6113  -19.1045  -44.5100 S.3       23 UNK        -0.2404 
     17 C17        -3.8296  -20.6112  -43.8101 C.3       23 UNK        -0.0398 
     18 CA         -3.2459  -21.6459  -44.8031 C.3       11 UNK         0.1400 
     19 N          -2.0284  -21.1755  -45.4745 N.am      11 UNK        -0.5000 
     20 C          -1.4551  -21.7841  -46.5216 C.2       10 UNK         0.5000 
     21 O          -1.8744  -22.8343  -47.0048 O.2       10 UNK        -0.5000 
     22 CA         -0.1943  -21.1391  -47.1145 C.3       10 UNK         0.1400 
     23 CB         -0.5529  -19.8950  -47.9407 C.3       10 UNK        -0.1800 
     24 N           0.7845  -20.8003  -46.0850 N.am      10 UNK        -0.5000 
     25 C           1.4120  -21.7003  -45.3145 C.2       9 UNK         0.5000 
     26 O           1.2913  -22.9182  -45.4487 O.2       9 UNK        -0.5000 
     27 CA          2.2900  -21.1499  -44.1763 C.3       9 UNK         0.1400 
     28 CB          3.6824  -20.7671  -44.6991 C.3       9 UNK        -0.1800 
     29 N           1.6867  -20.0045  -43.4919 N.am      9 UNK        -0.5000 
     30 C           0.5317  -20.0470  -42.8114 C.2       8 UNK         0.5000 
     31 O          -0.1415  -21.0677  -42.6658 O.2       8 UNK        -0.5000 
     32 CA          0.0131  -18.7160  -42.2374 C.3       8 UNK         0.1400 
     33 CB          0.7743  -18.3357  -40.9589 C.3       8 UNK        -0.1800 
     34 N           0.0788  -17.6165  -43.2012 N.am      8 UNK        -0.5000 
     35 C          -0.5735  -17.5989  -44.3730 C.2       7 UNK         0.5000 
     36 O          -1.3150  -18.5026  -44.7535 O.2       7 UNK        -0.5000 
     37 CA         -0.3071  -16.4026  -45.3025 C.3       7 UNK         0.1400 
     38 CB         -1.0357  -15.1459  -44.8048 C.3       7 UNK        -0.1800 
     39 N           1.1193  -16.1177  -45.4408 N.am      7 UNK        -0.5000 
     40 C           2.0318  -16.9711  -45.9257 C.2       6 UNK         0.5000 
     41 O           1.7637  -18.0845  -46.3756 O.2       6 UNK        -0.5000 
     42 CA          3.5014  -16.5297  -45.8318 C.3       6 UNK         0.1400 
     43 CB          3.8628  -15.5573  -46.9650 C.3       6 UNK        -0.1800 
     44 N           3.8033  -15.9207  -44.5356 N.am      6 UNK        -0.5000 
     45 C           3.8156  -16.5859  -43.3711 C.2       5 UNK         0.5000 
     46 O           3.6068  -17.7943  -43.2704 O.2       5 UNK        -0.5000 
     47 CA          4.0700  -15.7533  -42.1016 C.3       5 UNK         0.1400 
     48 CB          5.5761  -15.5474  -41.8817 C.3       5 UNK        -0.1800 
     49 N           3.4033  -14.4517  -42.1436 N.am      5 UNK        -0.5000 
     50 C           2.0743  -14.2802  -42.1023 C.2       4 UNK         0.5000 
     51 O           1.2689  -15.2027  -41.9796 O.2       4 UNK        -0.5000 
     52 CA          1.5625  -12.8377  -42.2842 C.3       4 UNK         0.1400 
     53 CB          1.5636  -12.0884  -40.9436 C.3       4 UNK        -0.1800 
     54 N           2.3368  -12.0771  -43.2717 N.am      4 UNK        -0.5000 
     55 C           2.4261  -12.4074  -44.5663 C.2       3 UNK         0.5000 
     56 O           1.8563  -13.3835  -45.0572 O.2       3 UNK        -0.5000 
     57 CA          3.3532  -11.5536  -45.4393 C.3       3 UNK         0.1400 
     58 CB          4.8215  -11.9722  -45.2244 C.3       3 UNK        -0.1800 
     59 N           2.9706  -11.7364  -46.8352 N.am      3 UNK        -0.5000 
     60 C           3.3711  -10.9991  -47.8741 C.2       2 UNK         0.5000 
     61 O           4.1453  -10.0461  -47.7770 O.2       2 UNK        -0.5000 
     62 CA          2.7969  -11.3645  -49.2568 C.3       2 UNK         0.1400 
     63 CB          3.3662  -12.6969  -49.7836 C.3       2 UNK        -0.1800 
     64 N           1.3299  -11.3279  -49.3068 N.am      2 UNK        -0.5000 
     65 C           0.4400  -12.1383  -48.7116 C.2       1 UNK         0.5000 
     66 O           0.7557  -13.1367  -48.0640 O.2       1 UNK        -0.5000 
     67 C          -3.0378  -23.0165  -44.1256 C.2       11 UNK         0.5000 
     68 O          -3.9366  -23.8561  -44.1882 O.2       11 UNK        -0.5000 
     69 N          -1.8412  -23.2584  -43.5707 N.am      12 UNK        -0.5000 
     70 CA         -1.4140  -24.5580  -43.0405 C.3       12 UNK         0.1400 
     71 CB         -0.0635  -24.3932  -42.3275 C.3       12 UNK        -0.1800 
     72 C          -1.3303  -25.6682  -44.1115 C.2       12 UNK         0.5000 
     73 O          -1.4536  -26.8453  -43.7724 O.2       12 UNK        -0.5000 
     74 N          -1.1581  -25.2745  -45.3798 N.am      13 UNK        -0.5000 
     75 CA         -1.1596  -26.1376  -46.5600 C.3       13 UNK         0.1400 
     76 CB          0.0136  -25.7214  -47.4651 C.3       13 UNK        -0.1800 
     77 C          -2.5098  -26.0909  -47.3106 C.2       13 UNK         0.5000 
     78 O          -2.5534  -26.4521  -48.4877 O.2       13 UNK        -0.5000 
     79 N          -3.5788  -25.6395  -46.6328 N.am      14 UNK        -0.5000 
     80 CA         -4.9594  -25.5077  -47.1166 C.3       14 UNK         0.1400 
     81 CB         -5.5598  -26.8887  -47.4540 C.3       14 UNK        -0.1800 
     82 C          -5.0968  -24.4846  -48.2636 C.2       14 UNK         0.5000 
     83 O          -5.7169  -24.7756  -49.2875 O.2       14 UNK        -0.5000 
     84 N          -4.4872  -23.3070  -48.0594 N.am      15 UNK        -0.5000 
     85 CA         -4.3111  -22.2083  -49.0196 C.3       15 UNK         0.1400 
     86 CB         -5.6635  -21.6096  -49.4589 C.3       15 UNK        -0.1800 
     87 C          -3.4112  -22.6328  -50.1963 C.2       15 UNK         0.5000 
     88 O          -3.6704  -22.2620  -51.3403 O.2       15 UNK        -0.5000 
     89 N          -2.3804  -23.4294  -49.8733 N.am      16 UNK        -0.5000 
     90 CA         -1.4695  -24.1389  -50.7726 C.3       16 UNK         0.1400 
     91 CB         -0.4801  -23.1599  -51.4281 C.3       16 UNK        -0.1800 
     92 C          -2.2439  -24.9853  -51.8000 C.2       16 UNK         0.5000 
     93 O          -2.4429  -24.5494  -52.9362 O.2       16 UNK        -0.5000 
     94 N          -2.7138  -26.1580  -51.3556 N.am      17 UNK        -0.5000 
     95 CA         -3.5211  -27.1137  -52.1185 C.3       17 UNK         0.1400 
     96 CB         -3.6386  -28.4205  -51.3193 C.3       17 UNK        -0.1800 
     97 C          -2.9763  -27.3865  -53.5369 C.2       17 UNK         0.5000 
     98 O          -1.8251  -27.8028  -53.6807 O.2       17 UNK        -0.5000 
     99 N          -3.8158  -27.0999  -54.5413 N.am      18 UNK        -0.5000 
    100 CA        -3.5760  -27.1692  -55.9894 C.3       18 UNK         0.1400 
    101 CB        -3.0880  -28.5671  -56.4240 C.3       18 UNK        -0.1800 
    102 C         -2.6911  -26.0417  -56.5691 C.2       18 UNK         0.5000 
    103 O         -2.5757  -25.9621  -57.7934 O.2       18 UNK        -0.5000 
    104 N         -2.1165  -25.1736  -55.7248 N.am      19 UNK        -0.5000 
    105 CA        -1.3705  -23.9803  -56.1374 C.3       19 UNK         0.1400 
    106 CB        -0.0790  -23.8692  -55.3137 C.3       19 UNK        -0.1800 
    107 C         -2.2216  -22.7043  -55.9943 C.2       19 UNK         0.5000 
    108 O         -2.0603  -21.7893  -56.8024 O.2       19 UNK        -0.5000 
    109 N         -3.1242  -22.6826  -54.9999 N.am      20 UNK        -0.5000 
    110 CA        -4.0897  -21.6235  -54.6856 C.3       20 UNK         0.1400 
    111 CB        -5.1125  -21.4520  -55.8286 C.3       20 UNK        -0.1800 
    112 C         -3.4009  -20.3037  -54.2831 C.2       20 UNK         0.5000 
    113 O         -3.5179  -19.2925  -54.9790 O.2       20 UNK        -0.5000 
    114 N         -2.6847  -20.3468  -53.1551 N.am      21 UNK        -0.5000 
    115 CA        -2.0528  -19.1952  -52.5208 C.3       21 UNK         0.1400 
    116 CB        -0.8292  -19.6622  -51.7171 C.3       21 UNK        -0.1800 
    117 C         -3.0837  -18.4825  -51.6303 C.2       21 UNK         0.5000 
    118 O         -3.3014  -18.8888  -50.4876 O.2       21 UNK        -0.5000 
    119 N         -3.7170  -17.4508  -52.1898 N.am      22 UNK        -0.5000 
    120 CA        -4.7124  -16.6037  -51.5333 C.3       22 UNK         0.1400 
    121 C         -4.6135  -15.1873  -52.1557 C.2       22 UNK         0.5000 
    122 N         -4.3117  -14.1658  -51.3658 N.am      22 UNK        -0.7600 
    123 O         -4.8117  -15.0095  -53.3556 O.2       22 UNK        -0.5000 
    124 C124       -6.1302  -17.2354  -51.6292 C.3       23 UNK        -0.0398 
    125 S125       -7.4829  -16.1973  -50.9659 S.3       23 UNK        -0.2404 
    126 C126       -7.7487  -16.9110  -49.3098 C.3       23 UNK        -0.0205 
    127 H127       -1.5965   -7.7823  -49.2999 H         1 UNK         0.0600 
    128 H128       -0.3088   -7.3526  -48.1705 H         1 UNK         0.0600 
    129 H129       -1.9713   -7.5156  -47.5952 H         1 UNK         0.0600 
    130 H130       -1.5711   -9.9366  -49.8347 H         1 UNK         0.3000 
    131 H131       -1.3504  -12.1031  -49.8433 H         1 UNK         0.0600 
    132 H132       -2.8643  -11.7579  -47.6590 H         1 UNK         0.0800 
    133 H133       -1.5042  -12.4375  -46.8210 H         1 UNK         0.0800 
    134 H134       -3.7084  -14.0998  -46.1622 H         1 UNK         0.0800 
    135 H135       -4.7134  -13.3632  -47.3878 H         1 UNK         0.0800 
    136 H136       -6.2660  -14.7009  -48.6771 H         1 UNK         0.1150 
    137 H137       -6.5117  -18.9194  -47.9496 H         1 UNK         0.1150 
    138 H138       -3.3526  -16.6277  -46.1900 H         1 UNK         0.1150 
    139 H139       -4.7982  -20.0390  -46.7380 H         1 UNK         0.0800 
    140 H140       -3.2711  -19.1971  -46.5340 H         1 UNK         0.0800 
    141 H141       -4.5984  -21.0790  -43.1920 H         1 UNK         0.0800 
    142 H142       -3.0520  -20.2906  -43.1146 H         1 UNK         0.0800 
    143 H143       -3.9971  -21.8200  -45.5739 H         1 UNK         0.0600 
    144 H144       -1.6438  -20.2917  -45.1444 H         1 UNK         0.3000 
    145 H145        0.2609  -21.8689  -47.7872 H         1 UNK         0.0600 
    146 H146       -0.8896  -19.0710  -47.3127 H         1 UNK         0.0600 
    147 H147        0.3052  -19.5441  -48.5139 H         1 UNK         0.0600 
    148 H148       -1.3544  -20.1107  -48.6478 H         1 UNK         0.0600 
    149 H149        0.9811  -19.8123  -45.9499 H         1 UNK         0.3000 
    150 H150        2.4119  -21.9471  -43.4402 H         1 UNK         0.0600 
    151 H151        4.1563  -21.6099  -45.2039 H         1 UNK         0.0600 
    152 H152        4.3397  -20.4651  -43.8836 H         1 UNK         0.0600 
    153 H153        3.6323  -19.9425  -45.4108 H         1 UNK         0.0600 
    154 H154        2.1988  -19.1283  -43.5386 H         1 UNK         0.3000 
    155 H155       -1.0371  -18.8586  -41.9745 H         1 UNK         0.0600 
    156 H156        0.7272  -19.1388  -40.2224 H         1 UNK         0.0600 
    157 H157        0.3472  -17.4455  -40.4970 H         1 UNK         0.0600 
    158 H158        1.8267  -18.1350  -41.1602 H         1 UNK         0.0600 
    159 H159        0.6460  -16.8154  -42.9407 H         1 UNK         0.3000 
    160 H160       -0.6946  -16.6526  -46.2923 H         1 UNK         0.0600 
    161 H161       -0.9201  -14.3252  -45.5118 H         1 UNK         0.0600 
    162 H162       -0.6522  -14.8102  -43.8419 H         1 UNK         0.0600 
    163 H163       -2.1031  -15.3297  -44.6837 H         1 UNK         0.0600 
    164 H164        1.4249  -15.1912  -45.1522 H         1 UNK         0.3000 
    165 H165        4.1249  -17.4197  -45.9396 H         1 UNK         0.0600 
    166 H166        3.2670  -14.6462  -46.9226 H         1 UNK         0.0600 
    167 H167        4.9145  -15.2740  -46.9244 H         1 UNK         0.0600 
    168 H168        3.6864  -16.0148  -47.9392 H         1 UNK         0.0600 
    169 H169        3.9306  -14.9209  -44.5225 H         1 UNK         0.3000 
    170 H170        3.6742  -16.3124  -41.2510 H         1 UNK         0.0600 
    171 H171        6.0279  -14.9702  -42.6894 H         1 UNK         0.0600 
    172 H172        5.7695  -15.0236  -40.9454 H         1 UNK         0.0600 
    173 H173        6.0968  -16.5046  -41.8309 H         1 UNK         0.0600 
    174 H174        3.9918  -13.6380  -42.2419 H         1 UNK         0.3000 
    175 H175        0.5319  -12.8962  -42.6406 H         1 UNK         0.0600 
    176 H176        2.5730  -11.9692  -40.5478 H         1 UNK         0.0600 
    177 H177        1.1233  -11.0964  -41.0461 H         1 UNK         0.0600 
    178 H178        0.9790  -12.6263  -40.1960 H         1 UNK         0.0600 
    179 H179        2.8360  -11.2679  -42.9311 H         1 UNK         0.3000 
    180 H180        3.2195  -10.5044  -45.1690 H         1 UNK         0.0600 
    181 H181        4.9934  -13.0048  -45.5295 H         1 UNK         0.0600 
    182 H182        5.1079  -11.8864  -44.1756 H         1 UNK         0.0600 
    183 H183        5.5047  -11.3408  -45.7921 H         1 UNK         0.0600 
    184 H184        2.2766  -12.4658  -46.9929 H         1 UNK         0.3000 
    185 H185        3.1286  -10.5850  -49.9447 H         1 UNK         0.0600 
    186 H186        3.0117  -12.9034  -50.7934 H         1 UNK         0.0600 
    187 H187        4.4556  -12.6634  -49.8218 H         1 UNK         0.0600 
    188 H188        3.0923  -13.5432  -49.1545 H         1 UNK         0.0600 
    189 H189        0.9492  -10.5238  -49.7854 H         1 UNK         0.3000 
    190 H190       -1.1654  -22.5011  -43.5098 H         1 UNK         0.3000 
    191 H191       -2.1526  -24.8744  -42.3013 H         1 UNK         0.0600 
    192 H192        0.7123  -24.0492  -43.0119 H         1 UNK         0.0600 
    193 H193       -0.1335  -23.6731  -41.5121 H         1 UNK         0.0600 
    194 H194        0.2715  -25.3383  -41.8984 H         1 UNK         0.0600 
    195 H195       -1.0794  -24.2829  -45.5700 H         1 UNK         0.3000 
    196 H196       -1.0006  -27.1760  -46.2636 H         1 UNK         0.0600 
    197 H197        0.9609  -25.7826  -46.9291 H         1 UNK         0.0600 
    198 H198       -0.0958  -24.6975  -47.8229 H         1 UNK         0.0600 
    199 H199        0.0944  -26.3725  -48.3361 H         1 UNK         0.0600 
    200 H200       -3.4317  -25.3247  -45.6811 H         1 UNK         0.3000 
    201 H201       -5.5337  -25.1017  -46.2825 H         1 UNK         0.0600 
    202 H202       -6.6210  -26.8048  -47.6908 H         1 UNK         0.0600 
    203 H203       -5.4692  -27.5741  -46.6114 H         1 UNK         0.0600 
    204 H204       -5.0704  -27.3468  -48.3130 H         1 UNK         0.0600 
    205 H205       -3.9122  -23.2316  -47.2300 H         1 UNK         0.3000 
    206 H206       -3.7668  -21.4213  -48.4972 H         1 UNK         0.0600 
    207 H207       -6.2815  -21.3559  -48.5981 H         1 UNK         0.0600 
    208 H208       -6.2286  -22.2966  -50.0889 H         1 UNK         0.0600 
    209 H209       -5.5115  -20.6938  -50.0318 H         1 UNK         0.0600 
    210 H210       -2.2638  -23.6355  -48.8883 H         1 UNK         0.3000 
    211 H211       -0.8887  -24.8249  -50.1560 H         1 UNK         0.0600 
    212 H212        0.0212  -22.5460  -50.6800 H         1 UNK         0.0600 
    213 H213        0.2942  -23.7030  -51.9698 H         1 UNK         0.0600 
    214 H214       -0.9739  -22.4973  -52.1380 H         1 UNK         0.0600 
    215 H215       -2.5627  -26.3892  -50.3763 H         1 UNK         0.3000 
    216 H216       -4.5199  -26.6810  -52.2024 H         1 UNK         0.0600 
    217 H217       -4.2494  -29.1515  -51.8503 H         1 UNK         0.0600 
    218 H218       -2.6612  -28.8719  -51.1438 H         1 UNK         0.0600 
    219 H219       -4.1057  -28.2492  -50.3497 H         1 UNK         0.0600 
    220 H220       -4.7256  -26.7367  -54.2921 H         1 UNK         0.3000 
    221 H221       -4.5576  -27.0236  -56.4426 H         1 UNK         0.0600 
    222 H222       -2.0672  -28.7641  -56.0963 H         1 UNK         0.0600 
    223 H223       -3.7291  -29.3527  -56.0244 H         1 UNK         0.0600 
    224 H224       -3.0997  -28.6621  -57.5104 H         1 UNK         0.0600 
    225 H225       -2.2655  -25.2800  -54.7261 H         1 UNK         0.3000 
    226 H226       -1.0796  -24.0617  -57.1867 H         1 UNK         0.0600 
    227 H227        0.5422  -24.7569  -55.4332 H         1 UNK         0.0600 
    228 H228        0.5132  -23.0103  -55.6316 H         1 UNK         0.0600 
    229 H229       -0.2873  -23.7468  -54.2530 H         1 UNK         0.0600 
    230 H230       -3.0857  -23.4411  -54.3237 H         1 UNK         0.3000 
    231 H231       -4.6450  -21.9658  -53.8114 H         1 UNK         0.0600 
    232 H232       -5.8848  -20.7334  -55.5519 H         1 UNK         0.0600 
    233 H233       -5.6114  -22.3944  -56.0543 H         1 UNK         0.0600 
    234 H234       -4.6473  -21.0912  -56.7462 H         1 UNK         0.0600 
    235 H235       -2.7690  -21.1811  -52.5781 H         1 UNK         0.3000 
    236 H236       -1.6994  -18.4996  -53.2851 H         1 UNK         0.0600 
    237 H237       -0.0850  -20.1254  -52.3649 H         1 UNK         0.0600 
    238 H238       -0.3484  -18.8220  -51.2148 H         1 UNK         0.0600 
    239 H239       -1.1065  -20.3858  -50.9518 H         1 UNK         0.0600 
    240 H240       -3.4993  -17.1891  -53.1427 H         1 UNK         0.3000 
    241 H241       -4.4463  -16.5243  -50.4776 H         1 UNK         0.0600 
    242 H242       -4.2530  -13.2424  -51.7650 H         1 UNK         0.3800 
    243 H243       -4.1167  -14.2969  -50.3845 H         1 UNK         0.3800 
    244 H244       -6.3669  -17.4517  -52.6721 H         1 UNK         0.0800 
    245 H245       -6.1386  -18.1990  -51.1177 H         1 UNK         0.0800 
    246 H246       -8.0751  -17.9462  -49.4218 H         1 UNK         0.0800 
    247 H247       -8.5694  -16.3802  -48.8258 H         1 UNK         0.0800 
@<TRIPOS>BOND
     1    1    2 1    
     2    1  127 1    
     3    1  128 1    
     4    1  129 1    
     5    2    3 2    
     6    2    4 am   BACKBONE|DICT|INTERRES
     7    4    5 1    
     8    4  130 1    
     9    5    6 1    
    10    5   65 1    
    11    5  131 1    
    12    6    7 1    
    13    6  132 1    
    14    6  133 1    
    15    7    8 1    
    16    8    9 1    
    17    8  134 1    
    18    8  135 1    
    19    9   10 ar   
    20    9   14 ar   
    21   10   11 ar   
    22   10  136 1    
    23   11   12 ar   
    24   11  126 1    
    25   12   13 ar   
    26   12  137 1    
    27   13   14 ar   
    28   13   15 1    
    29   14  138 1    
    30   15   16 1    
    31   15  139 1    
    32   15  140 1    
    33   16   17 1    
    34   17   18 1    
    35   17  141 1    
    36   17  142 1    
    37   18   19 1    
    38   18   67 1    
    39   18  143 1    
    40   19   20 am   BACKBONE|DICT|INTERRES
    41   19  144 1    
    42   20   21 2    
    43   20   22 1    
    44   22   23 1    
    45   22   24 1    
    46   22  145 1    
    47   23  146 1    
    48   23  147 1    
    49   23  148 1    
    50   24   25 am   BACKBONE|DICT|INTERRES
    51   24  149 1    
    52   25   26 2    
    53   25   27 1    
    54   27   28 1    
    55   27   29 1    
    56   27  150 1    
    57   28  151 1    
    58   28  152 1    
    59   28  153 1    
    60   29   30 am   BACKBONE|DICT|INTERRES
    61   29  154 1    
    62   30   31 2    
    63   30   32 1    
    64   32   33 1    
    65   32   34 1    
    66   32  155 1    
    67   33  156 1    
    68   33  157 1    
    69   33  158 1    
    70   34   35 am   BACKBONE|DICT|INTERRES
    71   34  159 1    
    72   35   36 2    
    73   35   37 1    
    74   37   38 1    
    75   37   39 1    
    76   37  160 1    
    77   38  161 1    
    78   38  162 1    
    79   38  163 1    
    80   39   40 am   BACKBONE|DICT|INTERRES
    81   39  164 1    
    82   40   41 2    
    83   40   42 1    
    84   42   43 1    
    85   42   44 1    
    86   42  165 1    
    87   43  166 1    
    88   43  167 1    
    89   43  168 1    
    90   44   45 am   BACKBONE|DICT|INTERRES
    91   44  169 1    
    92   45   46 2    
    93   45   47 1    
    94   47   48 1    
    95   47   49 1    
    96   47  170 1    
    97   48  171 1    
    98   48  172 1    
    99   48  173 1    
   100   49   50 am   BACKBONE|DICT|INTERRES
   101   49  174 1    
   102   50   51 2    
   103   50   52 1    
   104   52   53 1    
   105   52   54 1    
   106   52  175 1    
   107   53  176 1    
   108   53  177 1    
   109   53  178 1    
   110   54   55 am   BACKBONE|DICT|INTERRES
   111   54  179 1    
   112   55   56 2    
   113   55   57 1    
   114   57   58 1    
   115   57   59 1    
   116   57  180 1    
   117   58  181 1    
   118   58  182 1    
   119   58  183 1    
   120   59   60 am   BACKBONE|DICT|INTERRES
   121   59  184 1    
   122   60   61 2    
   123   60   62 1    
   124   62   63 1    
   125   62   64 1    
   126   62  185 1    
   127   63  186 1    
   128   63  187 1    
   129   63  188 1    
   130   64   65 am   BACKBONE|DICT|INTERRES
   131   64  189 1    
   132   65   66 2    
   133   67   68 2    
   134   67   69 am   BACKBONE|DICT|INTERRES
   135   69   70 1    
   136   69  190 1    
   137   70   71 1    
   138   70   72 1    
   139   70  191 1    
   140   71  192 1    
   141   71  193 1    
   142   71  194 1    
   143   72   73 2    
   144   72   74 am   BACKBONE|DICT|INTERRES
   145   74   75 1    
   146   74  195 1    
   147   75   76 1    
   148   75   77 1    
   149   75  196 1    
   150   76  197 1    
   151   76  198 1    
   152   76  199 1    
   153   77   78 2    
   154   77   79 am   BACKBONE|DICT|INTERRES
   155   79   80 1    
   156   79  200 1    
   157   80   81 1    
   158   80   82 1    
   159   80  201 1    
   160   81  202 1    
   161   81  203 1    
   162   81  204 1    
   163   82   83 2    
   164   82   84 am   BACKBONE|DICT|INTERRES
   165   84   85 1    
   166   84  205 1    
   167   85   86 1    
   168   85   87 1    
   169   85  206 1    
   170   86  207 1    
   171   86  208 1    
   172   86  209 1    
   173   87   88 2    
   174   87   89 am   BACKBONE|DICT|INTERRES
   175   89   90 1    
   176   89  210 1    
   177   90   91 1    
   178   90   92 1    
   179   90  211 1    
   180   91  212 1    
   181   91  213 1    
   182   91  214 1    
   183   92   93 2    
   184   92   94 am   BACKBONE|DICT|INTERRES
   185   94   95 1    
   186   94  215 1    
   187   95   96 1    
   188   95   97 1    
   189   95  216 1    
   190   96  217 1    
   191   96  218 1    
   192   96  219 1    
   193   97   98 2    
   194   97   99 am   BACKBONE|DICT|INTERRES
   195   99  100 1    
   196   99  220 1    
   197  100  101 1    
   198  100  102 1    
   199  100  221 1    
   200  101  222 1    
   201  101  223 1    
   202  101  224 1    
   203  102  103 2    
   204  102  104 am   BACKBONE|DICT|INTERRES
   205  104  105 1    
   206  104  225 1    
   207  105  106 1    
   208  105  107 1    
   209  105  226 1    
   210  106  227 1    
   211  106  228 1    
   212  106  229 1    
   213  107  108 2    
   214  107  109 am   BACKBONE|DICT|INTERRES
   215  109  110 1    
   216  109  230 1    
   217  110  111 1    
   218  110  112 1    
   219  110  231 1    
   220  111  232 1    
   221  111  233 1    
   222  111  234 1    
   223  112  113 2    
   224  112  114 am   BACKBONE|DICT|INTERRES
   225  114  115 1    
   226  114  235 1    
   227  115  116 1    
   228  115  117 1    
   229  115  236 1    
   230  116  237 1    
   231  116  238 1    
   232  116  239 1    
   233  117  118 2    
   234  117  119 am   BACKBONE|DICT|INTERRES
   235  119  120 1    
   236  119  240 1    
   237  120  121 1    
   238  120  124 1    
   239  120  241 1    
   240  121  122 am   BACKBONE|DICT|INTERRES
   241  121  123 2    
   242  122  242 1    
   243  122  243 1    
   244  124  125 1    
   245  124  244 1    
   246  124  245 1    
   247  125  126 1    
   248  126  246 1    
   249  126  247 1    
@<TRIPOS>SUBSTRUCTURE
     1 UNK         1 GROUP             0       ****    0 ROOT    
