@<TRIPOS>MOLECULE
3R540
247   249    1
SMALL
USER_CHARGES


@<TRIPOS>ATOM
      1 CA         -1.1911  -10.2154  -49.9684 C.3       0 UNK        -0.1800 
      2 C           0.2411  -10.4854  -49.5283 C.2       0 UNK         0.5000 
      3 O           0.8588   -9.6243  -48.9029 O.2       0 UNK        -0.5000 
      4 N           0.7663  -11.6700  -49.8649 N.am      1 UNK        -0.5000 
      5 CA          2.0941  -12.1574  -49.4820 C.3       1 UNK         0.1400 
      6 C6          2.6872  -13.0878  -50.5789 C.3       23 UNK        -0.0398 
      7 S7          1.6576  -14.5421  -51.0200 S.3       23 UNK        -0.2404 
      8 C8          2.9477  -15.8143  -51.1975 C.3       23 UNK        -0.0205 
      9 C9          2.3663  -17.2173  -51.2767 C.ar      23 UNK        -0.0193 
     10 C10         1.6367  -17.6171  -52.3995 C.ar      23 UNK        -0.1150 
     11 C11         1.1476  -18.9225  -52.4994 C.ar      23 UNK        -0.0193 
     12 C12         1.3834  -19.8293  -51.4601 C.ar      23 UNK        -0.1150 
     13 C13         2.1286  -19.4473  -50.3409 C.ar      23 UNK        -0.0193 
     14 C14         2.6100  -18.1382  -50.2533 C.ar      23 UNK        -0.1150 
     15 C15         2.4894  -20.4609  -49.2634 C.3       23 UNK        -0.0205 
     16 S16         1.5388  -20.2248  -47.7313 S.3       23 UNK        -0.2404 
     17 C17         0.0647  -21.2521  -48.0456 C.3       23 UNK        -0.0398 
     18 CA          0.1663  -22.6652  -47.4181 C.3       11 UNK         0.1400 
     19 N           0.5154  -22.6229  -45.9957 N.am      11 UNK        -0.5000 
     20 C           0.8605  -23.6857  -45.2574 C.2       10 UNK         0.5000 
     21 O           0.9762  -24.8244  -45.7089 O.2       10 UNK        -0.5000 
     22 CA          1.0507  -23.4380  -43.7515 C.3       10 UNK         0.1400 
     23 CB          2.4782  -22.9590  -43.4488 C.3       10 UNK        -0.1800 
     24 N           0.0797  -22.4680  -43.2410 N.am      10 UNK        -0.5000 
     25 C          -1.2267  -22.7322  -43.0883 C.2       9 UNK         0.5000 
     26 O          -1.7264  -23.8335  -43.3139 O.2       9 UNK        -0.5000 
     27 CA         -2.1379  -21.5674  -42.6597 C.3       9 UNK         0.1400 
     28 CB         -2.1912  -21.4606  -41.1292 C.3       9 UNK        -0.1800 
     29 N          -1.7261  -20.2838  -43.2284 N.am      9 UNK        -0.5000 
     30 C          -1.7532  -19.9936  -44.5386 C.2       8 UNK         0.5000 
     31 O          -2.1692  -20.7700  -45.3977 O.2       8 UNK        -0.5000 
     32 CA         -1.1922  -18.6283  -44.9804 C.3       8 UNK         0.1400 
     33 CB         -2.3365  -17.6128  -45.0764 C.3       8 UNK        -0.1800 
     34 N          -0.1537  -18.0916  -44.1001 N.am      8 UNK        -0.5000 
     35 C           0.9801  -18.7202  -43.7561 C.2       7 UNK         0.5000 
     36 O           1.3100  -19.8209  -44.1973 O.2       7 UNK        -0.5000 
     37 CA          1.8597  -18.0430  -42.6872 C.3       7 UNK         0.1400 
     38 CB          2.9761  -17.2235  -43.3514 C.3       7 UNK        -0.1800 
     39 N           1.1273  -17.1762  -41.7589 N.am      7 UNK        -0.5000 
     40 C           0.0770  -17.5198  -40.9959 C.2       6 UNK         0.5000 
     41 O          -0.4127  -18.6493  -40.9782 O.2       6 UNK        -0.5000 
     42 CA         -0.5491  -16.4086  -40.1263 C.3       6 UNK         0.1400 
     43 CB         -0.1522  -16.5926  -38.6537 C.3       6 UNK        -0.1800 
     44 N          -0.1731  -15.0572  -40.5558 N.am      6 UNK        -0.5000 
     45 C          -0.5909  -14.4741  -41.6876 C.2       5 UNK         0.5000 
     46 O          -1.4213  -14.9823  -42.4442 O.2       5 UNK        -0.5000 
     47 CA          0.0621  -13.1230  -42.0268 C.3       5 UNK         0.1400 
     48 CB          1.5882  -13.2655  -42.1837 C.3       5 UNK        -0.1800 
     49 N          -0.4700  -12.5967  -43.2797 N.am      5 UNK        -0.5000 
     50 C          -0.9218  -11.3515  -43.4731 C.2       4 UNK         0.5000 
     51 O          -0.9813  -10.5074  -42.5773 O.2       4 UNK        -0.5000 
     52 CA         -1.3595  -10.9545  -44.8995 C.3       4 UNK         0.1400 
     53 CB         -0.4962   -9.7998  -45.4338 C.3       4 UNK        -0.1800 
     54 N          -1.2882  -12.0586  -45.8557 N.am      4 UNK        -0.5000 
     55 C          -2.2469  -12.9762  -46.0399 C.2       3 UNK         0.5000 
     56 O          -3.3219  -12.9706  -45.4403 O.2       3 UNK        -0.5000 
     57 CA         -1.9597  -14.0852  -47.0717 C.3       3 UNK         0.1400 
     58 CB         -2.5305  -13.6779  -48.4380 C.3       3 UNK        -0.1800 
     59 N          -0.5381  -14.3920  -47.2474 N.am      3 UNK        -0.5000 
     60 C           0.3444  -14.7611  -46.3052 C.2       2 UNK         0.5000 
     61 O           0.0570  -14.9524  -45.1263 O.2       2 UNK        -0.5000 
     62 CA          1.8148  -14.8828  -46.7530 C.3       2 UNK         0.1400 
     63 CB          2.1743  -16.3534  -47.0108 C.3       2 UNK        -0.1800 
     64 N           2.1050  -14.1028  -47.9603 N.am      2 UNK        -0.5000 
     65 C           2.0211  -12.7688  -48.0618 C.2       1 UNK         0.5000 
     66 O           1.8202  -12.0389  -47.0898 O.2       1 UNK        -0.5000 
     67 C          -1.1312  -23.4732  -47.6402 C.2       11 UNK         0.5000 
     68 O          -1.1916  -24.3081  -48.5429 O.2       11 UNK        -0.5000 
     69 N          -2.1355  -23.2454  -46.7810 N.am      12 UNK        -0.5000 
     70 CA         -3.4021  -23.9763  -46.7625 C.3       12 UNK         0.1400 
     71 CB         -4.3873  -23.2808  -45.8131 C.3       12 UNK        -0.1800 
     72 C          -3.2302  -25.4605  -46.3946 C.2       12 UNK         0.5000 
     73 O          -3.8590  -26.3088  -47.0258 O.2       12 UNK        -0.5000 
     74 N          -2.3447  -25.7611  -45.4329 N.am      13 UNK        -0.5000 
     75 CA         -1.9584  -27.1263  -45.0577 C.3       13 UNK         0.1400 
     76 CB         -1.0898  -27.0899  -43.7918 C.3       13 UNK        -0.1800 
     77 C          -1.2393  -27.8846  -46.1925 C.2       13 UNK         0.5000 
     78 O          -1.4026  -29.0991  -46.3107 O.2       13 UNK        -0.5000 
     79 N          -0.5018  -27.1485  -47.0351 N.am      14 UNK        -0.5000 
     80 CA          0.1166  -27.6344  -48.2709 C.3       14 UNK         0.1400 
     81 CB          1.3129  -26.7308  -48.6150 C.3       14 UNK        -0.1800 
     82 C          -0.8714  -27.7304  -49.4572 C.2       14 UNK         0.5000 
     83 O          -0.4543  -28.1214  -50.5481 O.2       14 UNK        -0.5000 
     84 N          -2.1487  -27.3821  -49.2327 N.am      15 UNK        -0.5000 
     85 CA         -3.2695  -27.3972  -50.1784 C.3       15 UNK         0.1400 
     86 CB         -3.5626  -28.8303  -50.6710 C.3       15 UNK        -0.1800 
     87 C          -3.1217  -26.3761  -51.3253 C.2       15 UNK         0.5000 
     88 O          -3.5997  -26.6236  -52.4338 O.2       15 UNK        -0.5000 
     89 N          -2.4817  -25.2370  -51.0378 N.am      16 UNK        -0.5000 
     90 CA         -2.2420  -24.1501  -51.9809 C.3       16 UNK         0.1400 
     91 CB         -0.9103  -24.3955  -52.7177 C.3       16 UNK        -0.1800 
     92 C          -2.2743  -22.8217  -51.2130 C.2       16 UNK         0.5000 
     93 O          -1.2743  -22.1057  -51.1937 O.2       16 UNK        -0.5000 
     94 N          -3.4117  -22.5486  -50.5521 N.am      17 UNK        -0.5000 
     95 CA         -3.6541  -21.3941  -49.6776 C.3       17 UNK         0.1400 
     96 CB         -5.1254  -21.3930  -49.2356 C.3       17 UNK        -0.1800 
     97 C          -3.2905  -20.0504  -50.3324 C.2       17 UNK         0.5000 
     98 O          -3.7539  -19.7840  -51.4435 O.2       17 UNK        -0.5000 
     99 N          -2.4646  -19.2572  -49.6357 N.am      18 UNK        -0.5000 
    100 CA        -1.8697  -18.0098  -50.1154 C.3       18 UNK         0.1400 
    101 CB        -0.9718  -17.4186  -49.0195 C.3       18 UNK        -0.1800 
    102 C         -2.9314  -16.9911  -50.5521 C.2       18 UNK         0.5000 
    103 O         -3.7827  -16.6227  -49.7407 O.2       18 UNK        -0.5000 
    104 N         -2.8851  -16.6018  -51.8327 N.am      19 UNK        -0.5000 
    105 CA        -3.7944  -15.7096  -52.5665 C.3       19 UNK         0.1400 
    106 CB        -3.8007  -14.2960  -51.9539 C.3       19 UNK        -0.1800 
    107 C         -5.2328  -16.2453  -52.7402 C.2       19 UNK         0.5000 
    108 O         -5.8446  -15.9996  -53.7803 O.2       19 UNK        -0.5000 
    109 N         -5.7463  -16.9624  -51.7349 N.am      20 UNK        -0.5000 
    110 CA        -7.0803  -17.5535  -51.6832 C.3       20 UNK         0.1400 
    111 CB        -7.3473  -18.0391  -50.2504 C.3       20 UNK        -0.1800 
    112 C         -7.2902  -18.7022  -52.6857 C.2       20 UNK         0.5000 
    113 O         -8.4151  -18.8834  -53.1548 O.2       20 UNK        -0.5000 
    114 N         -6.2259  -19.4548  -52.9923 N.am      21 UNK        -0.5000 
    115 CA        -6.2621  -20.5827  -53.9184 C.3       21 UNK         0.1400 
    116 CB        -6.4980  -21.8926  -53.1439 C.3       21 UNK        -0.1800 
    117 C         -4.9812  -20.6454  -54.7579 C.2       21 UNK         0.5000 
    118 O         -5.0574  -20.5484  -55.9837 O.2       21 UNK        -0.5000 
    119 N         -3.8348  -20.8090  -54.0844 N.am      22 UNK        -0.5000 
    120 CA        -2.5094  -21.0625  -54.6734 C.3       22 UNK         0.1400 
    121 C         -2.4594  -22.3070  -55.6198 C.2       22 UNK         0.5000 
    122 N         -1.4779  -22.4223  -56.5054 N.am      22 UNK        -0.7600 
    123 O         -3.2700  -23.2242  -55.5100 O.2       22 UNK        -0.5000 
    124 C124       -1.8730  -19.7629  -55.2464 C.3       23 UNK        -0.0398 
    125 S125       -1.2542  -18.7054  -53.8957 S.3       23 UNK        -0.2404 
    126 C126        0.4329  -19.3746  -53.7621 C.3       23 UNK        -0.0205 
    127 H127       -1.2396   -9.2899  -50.5422 H         1 UNK         0.0600 
    128 H128       -1.8366  -10.1111  -49.0961 H         1 UNK         0.0600 
    129 H129       -1.5842  -11.0199  -50.5905 H         1 UNK         0.0600 
    130 H130        0.2121  -12.3215  -50.4021 H         1 UNK         0.3000 
    131 H131        2.7680  -11.3015  -49.4038 H         1 UNK         0.0600 
    132 H132        2.8325  -12.5087  -51.4919 H         1 UNK         0.0800 
    133 H133        3.6885  -13.4075  -50.2860 H         1 UNK         0.0800 
    134 H134        3.5272  -15.6127  -52.0997 H         1 UNK         0.0800 
    135 H135        3.6470  -15.7486  -50.3626 H         1 UNK         0.0800 
    136 H136        1.4664  -16.9169  -53.2054 H         1 UNK         0.1150 
    137 H137        1.0217  -20.8447  -51.5409 H         1 UNK         0.1150 
    138 H138        3.2013  -17.8493  -49.3962 H         1 UNK         0.1150 
    139 H139        2.3603  -21.4813  -49.6276 H         1 UNK         0.0800 
    140 H140        3.5498  -20.3604  -49.0278 H         1 UNK         0.0800 
    141 H141       -0.0932  -21.3182  -49.1210 H         1 UNK         0.0800 
    142 H142       -0.7948  -20.7162  -47.6453 H         1 UNK         0.0800 
    143 H143        0.9685  -23.1983  -47.9329 H         1 UNK         0.0600 
    144 H144        0.4821  -21.7160  -45.5495 H         1 UNK         0.3000 
    145 H145        0.8962  -24.3857  -43.2315 H         1 UNK         0.0600 
    146 H146        2.6185  -22.7834  -42.3822 H         1 UNK         0.0600 
    147 H147        3.2098  -23.7078  -43.7545 H         1 UNK         0.0600 
    148 H148        2.7187  -22.0359  -43.9764 H         1 UNK         0.0600 
    149 H149        0.4097  -21.5201  -43.1101 H         1 UNK         0.3000 
    150 H150       -3.1459  -21.7834  -43.0191 H         1 UNK         0.0600 
    151 H151       -2.5569  -22.3879  -40.6864 H         1 UNK         0.0600 
    152 H152       -2.8611  -20.6613  -40.8116 H         1 UNK         0.0600 
    153 H153       -1.2064  -21.2609  -40.7050 H         1 UNK         0.0600 
    154 H154       -1.3427  -19.6042  -42.5797 H         1 UNK         0.3000 
    155 H155       -0.7489  -18.7504  -45.9703 H         1 UNK         0.0600 
    156 H156       -2.8442  -17.4864  -44.1191 H         1 UNK         0.0600 
    157 H157       -1.9647  -16.6384  -45.3794 H         1 UNK         0.0600 
    158 H158       -3.0809  -17.9247  -45.8103 H         1 UNK         0.0600 
    159 H159       -0.3330  -17.1782  -43.7036 H         1 UNK         0.3000 
    160 H160        2.3197  -18.8391  -42.0985 H         1 UNK         0.0600 
    161 H161        3.6909  -16.8599  -42.6130 H         1 UNK         0.0600 
    162 H162        2.5764  -16.3596  -43.8835 H         1 UNK         0.0600 
    163 H163        3.5323  -17.8263  -44.0709 H         1 UNK         0.0600 
    164 H164        1.4481  -16.2222  -41.6996 H         1 UNK         0.3000 
    165 H165       -1.6341  -16.5058  -40.2038 H         1 UNK         0.0600 
    166 H166       -0.6426  -15.8554  -38.0177 H         1 UNK         0.0600 
    167 H167       -0.4451  -17.5787  -38.2904 H         1 UNK         0.0600 
    168 H168        0.9250  -16.4972  -38.5116 H         1 UNK         0.0600 
    169 H169        0.4929  -14.5724  -39.9712 H         1 UNK         0.3000 
    170 H170       -0.1514  -12.4433  -41.1996 H         1 UNK         0.0600 
    171 H171        2.0446  -12.3110  -42.4470 H         1 UNK         0.0600 
    172 H172        1.8451  -13.9812  -42.9660 H         1 UNK         0.0600 
    173 H173        2.0608  -13.5992  -41.2596 H         1 UNK         0.0600 
    174 H174       -0.5195  -13.2725  -44.0355 H         1 UNK         0.3000 
    175 H175       -2.3908  -10.6016  -44.8353 H         1 UNK         0.0600 
    176 H176       -0.8253   -9.4867  -46.4249 H         1 UNK         0.0600 
    177 H177        0.5545  -10.0837  -45.5055 H         1 UNK         0.0600 
    178 H178       -0.5573   -8.9270  -44.7826 H         1 UNK         0.0600 
    179 H179       -0.4202  -12.1478  -46.3683 H         1 UNK         0.3000 
    180 H180       -2.4694  -14.9918  -46.7485 H         1 UNK         0.0600 
    181 H181       -2.1171  -12.7296  -48.7801 H         1 UNK         0.0600 
    182 H182       -3.6145  -13.5669  -48.3912 H         1 UNK         0.0600 
    183 H183       -2.3135  -14.4261  -49.1985 H         1 UNK         0.0600 
    184 H184       -0.1787  -14.2647  -48.1804 H         1 UNK         0.3000 
    185 H185        2.4396  -14.5069  -45.9403 H         1 UNK         0.0600 
    186 H186        1.6304  -16.7533  -47.8655 H         1 UNK         0.0600 
    187 H187        3.2403  -16.4715  -47.2050 H         1 UNK         0.0600 
    188 H188        1.9287  -16.9799  -46.1535 H         1 UNK         0.0600 
    189 H189        2.2363  -14.6308  -48.8126 H         1 UNK         0.3000 
    190 H190       -2.0364  -22.4979  -46.0983 H         1 UNK         0.3000 
    191 H191       -3.8195  -23.9383  -47.7703 H         1 UNK         0.0600 
    192 H192       -4.5526  -22.2439  -46.1063 H         1 UNK         0.0600 
    193 H193       -5.3567  -23.7806  -45.8224 H         1 UNK         0.0600 
    194 H194       -4.0259  -23.2842  -44.7849 H         1 UNK         0.0600 
    195 H195       -1.9191  -25.0069  -44.9031 H         1 UNK         0.3000 
    196 H196       -2.8722  -27.6764  -44.8240 H         1 UNK         0.0600 
    197 H197       -0.8237  -28.0982  -43.4722 H         1 UNK         0.0600 
    198 H198       -1.6177  -26.6158  -42.9642 H         1 UNK         0.0600 
    199 H199       -0.1616  -26.5430  -43.9552 H         1 UNK         0.0600 
    200 H200       -0.3771  -26.1641  -46.8304 H         1 UNK         0.3000 
    201 H201        0.5000  -28.6411  -48.0937 H         1 UNK         0.0600 
    202 H202        2.0194  -26.6794  -47.7863 H         1 UNK         0.0600 
    203 H203        0.9993  -25.7140  -48.8490 H         1 UNK         0.0600 
    204 H204        1.8564  -27.1117  -49.4803 H         1 UNK         0.0600 
    205 H205       -2.3909  -27.0574  -48.3042 H         1 UNK         0.3000 
    206 H206       -4.1414  -27.0715  -49.6103 H         1 UNK         0.0600 
    207 H207       -3.6677  -29.5207  -49.8341 H         1 UNK         0.0600 
    208 H208       -4.4938  -28.8660  -51.2374 H         1 UNK         0.0600 
    209 H209       -2.7724  -29.2071  -51.3208 H         1 UNK         0.0600 
    210 H210       -2.1049  -25.0931  -50.1034 H         1 UNK         0.3000 
    211 H211       -3.0455  -24.1062  -52.7193 H         1 UNK         0.0600 
    212 H212       -0.0764  -24.4747  -52.0190 H         1 UNK         0.0600 
    213 H213       -0.6852  -23.5839  -53.4099 H         1 UNK         0.0600 
    214 H214       -0.9470  -25.3163  -53.2998 H         1 UNK         0.0600 
    215 H215       -4.1711  -23.2079  -50.6327 H         1 UNK         0.3000 
    216 H216       -3.0354  -21.5250  -48.7902 H         1 UNK         0.0600 
    217 H217       -5.3198  -20.5804  -48.5344 H         1 UNK         0.0600 
    218 H218       -5.3939  -22.3222  -48.7338 H         1 UNK         0.0600 
    219 H219       -5.8010  -21.2629  -50.0818 H         1 UNK         0.0600 
    220 H220       -2.1924  -19.5383  -48.7081 H         1 UNK         0.3000 
    221 H221       -1.2377  -18.2584  -50.9685 H         1 UNK         0.0600 
    222 H222       -1.5359  -17.1715  -48.1194 H         1 UNK         0.0600 
    223 H223       -0.1827  -18.1147  -48.7429 H         1 UNK         0.0600 
    224 H224       -0.4864  -16.5064  -49.3682 H         1 UNK         0.0600 
    225 H225       -2.1828  -17.0397  -52.4159 H         1 UNK         0.3000 
    226 H226       -3.3728  -15.6296  -53.5697 H         1 UNK         0.0600 
    227 H227       -2.7896  -13.8981  -51.8662 H         1 UNK         0.0600 
    228 H228       -4.3693  -13.6057  -52.5781 H         1 UNK         0.0600 
    229 H229       -4.2544  -14.2836  -50.9626 H         1 UNK         0.0600 
    230 H230       -5.1680  -17.0638  -50.9053 H         1 UNK         0.3000 
    231 H231       -7.8032  -16.7706  -51.9212 H         1 UNK         0.0600 
    232 H232       -6.6237  -18.7948  -49.9431 H         1 UNK         0.0600 
    233 H233       -8.3415  -18.4792  -50.1634 H         1 UNK         0.0600 
    234 H234       -7.2927  -17.2153  -49.5384 H         1 UNK         0.0600 
    235 H235       -5.3314  -19.2541  -52.5547 H         1 UNK         0.3000 
    236 H236       -7.0872  -20.4556  -54.6228 H         1 UNK         0.0600 
    237 H237       -7.4589  -21.8777  -52.6295 H         1 UNK         0.0600 
    238 H238       -6.5026  -22.7492  -53.8190 H         1 UNK         0.0600 
    239 H239       -5.7231  -22.0673  -52.3977 H         1 UNK         0.0600 
    240 H240       -3.8560  -20.7603  -53.0706 H         1 UNK         0.3000 
    241 H241       -1.8952  -21.3830  -53.8327 H         1 UNK         0.0600 
    242 H242       -0.7652  -21.7197  -56.6172 H         1 UNK         0.3800 
    243 H243       -1.4499  -23.2452  -57.0874 H         1 UNK         0.3800 
    244 H244       -1.0383  -19.9598  -55.9181 H         1 UNK         0.0800 
    245 H245       -2.5984  -19.2021  -55.8371 H         1 UNK         0.0800 
    246 H246        1.0112  -19.0662  -54.6343 H         1 UNK         0.0800 
    247 H247        0.3931  -20.4647  -53.7918 H         1 UNK         0.0800 
@<TRIPOS>BOND
     1    1    2 1    
     2    1  127 1    
     3    1  128 1    
     4    1  129 1    
     5    2    3 2    
     6    2    4 am   BACKBONE|DICT|INTERRES
     7    4    5 1    
     8    4  130 1    
     9    5    6 1    
    10    5   65 1    
    11    5  131 1    
    12    6    7 1    
    13    6  132 1    
    14    6  133 1    
    15    7    8 1    
    16    8    9 1    
    17    8  134 1    
    18    8  135 1    
    19    9   10 ar   
    20    9   14 ar   
    21   10   11 ar   
    22   10  136 1    
    23   11   12 ar   
    24   11  126 1    
    25   12   13 ar   
    26   12  137 1    
    27   13   14 ar   
    28   13   15 1    
    29   14  138 1    
    30   15   16 1    
    31   15  139 1    
    32   15  140 1    
    33   16   17 1    
    34   17   18 1    
    35   17  141 1    
    36   17  142 1    
    37   18   19 1    
    38   18   67 1    
    39   18  143 1    
    40   19   20 am   BACKBONE|DICT|INTERRES
    41   19  144 1    
    42   20   21 2    
    43   20   22 1    
    44   22   23 1    
    45   22   24 1    
    46   22  145 1    
    47   23  146 1    
    48   23  147 1    
    49   23  148 1    
    50   24   25 am   BACKBONE|DICT|INTERRES
    51   24  149 1    
    52   25   26 2    
    53   25   27 1    
    54   27   28 1    
    55   27   29 1    
    56   27  150 1    
    57   28  151 1    
    58   28  152 1    
    59   28  153 1    
    60   29   30 am   BACKBONE|DICT|INTERRES
    61   29  154 1    
    62   30   31 2    
    63   30   32 1    
    64   32   33 1    
    65   32   34 1    
    66   32  155 1    
    67   33  156 1    
    68   33  157 1    
    69   33  158 1    
    70   34   35 am   BACKBONE|DICT|INTERRES
    71   34  159 1    
    72   35   36 2    
    73   35   37 1    
    74   37   38 1    
    75   37   39 1    
    76   37  160 1    
    77   38  161 1    
    78   38  162 1    
    79   38  163 1    
    80   39   40 am   BACKBONE|DICT|INTERRES
    81   39  164 1    
    82   40   41 2    
    83   40   42 1    
    84   42   43 1    
    85   42   44 1    
    86   42  165 1    
    87   43  166 1    
    88   43  167 1    
    89   43  168 1    
    90   44   45 am   BACKBONE|DICT|INTERRES
    91   44  169 1    
    92   45   46 2    
    93   45   47 1    
    94   47   48 1    
    95   47   49 1    
    96   47  170 1    
    97   48  171 1    
    98   48  172 1    
    99   48  173 1    
   100   49   50 am   BACKBONE|DICT|INTERRES
   101   49  174 1    
   102   50   51 2    
   103   50   52 1    
   104   52   53 1    
   105   52   54 1    
   106   52  175 1    
   107   53  176 1    
   108   53  177 1    
   109   53  178 1    
   110   54   55 am   BACKBONE|DICT|INTERRES
   111   54  179 1    
   112   55   56 2    
   113   55   57 1    
   114   57   58 1    
   115   57   59 1    
   116   57  180 1    
   117   58  181 1    
   118   58  182 1    
   119   58  183 1    
   120   59   60 am   BACKBONE|DICT|INTERRES
   121   59  184 1    
   122   60   61 2    
   123   60   62 1    
   124   62   63 1    
   125   62   64 1    
   126   62  185 1    
   127   63  186 1    
   128   63  187 1    
   129   63  188 1    
   130   64   65 am   BACKBONE|DICT|INTERRES
   131   64  189 1    
   132   65   66 2    
   133   67   68 2    
   134   67   69 am   BACKBONE|DICT|INTERRES
   135   69   70 1    
   136   69  190 1    
   137   70   71 1    
   138   70   72 1    
   139   70  191 1    
   140   71  192 1    
   141   71  193 1    
   142   71  194 1    
   143   72   73 2    
   144   72   74 am   BACKBONE|DICT|INTERRES
   145   74   75 1    
   146   74  195 1    
   147   75   76 1    
   148   75   77 1    
   149   75  196 1    
   150   76  197 1    
   151   76  198 1    
   152   76  199 1    
   153   77   78 2    
   154   77   79 am   BACKBONE|DICT|INTERRES
   155   79   80 1    
   156   79  200 1    
   157   80   81 1    
   158   80   82 1    
   159   80  201 1    
   160   81  202 1    
   161   81  203 1    
   162   81  204 1    
   163   82   83 2    
   164   82   84 am   BACKBONE|DICT|INTERRES
   165   84   85 1    
   166   84  205 1    
   167   85   86 1    
   168   85   87 1    
   169   85  206 1    
   170   86  207 1    
   171   86  208 1    
   172   86  209 1    
   173   87   88 2    
   174   87   89 am   BACKBONE|DICT|INTERRES
   175   89   90 1    
   176   89  210 1    
   177   90   91 1    
   178   90   92 1    
   179   90  211 1    
   180   91  212 1    
   181   91  213 1    
   182   91  214 1    
   183   92   93 2    
   184   92   94 am   BACKBONE|DICT|INTERRES
   185   94   95 1    
   186   94  215 1    
   187   95   96 1    
   188   95   97 1    
   189   95  216 1    
   190   96  217 1    
   191   96  218 1    
   192   96  219 1    
   193   97   98 2    
   194   97   99 am   BACKBONE|DICT|INTERRES
   195   99  100 1    
   196   99  220 1    
   197  100  101 1    
   198  100  102 1    
   199  100  221 1    
   200  101  222 1    
   201  101  223 1    
   202  101  224 1    
   203  102  103 2    
   204  102  104 am   BACKBONE|DICT|INTERRES
   205  104  105 1    
   206  104  225 1    
   207  105  106 1    
   208  105  107 1    
   209  105  226 1    
   210  106  227 1    
   211  106  228 1    
   212  106  229 1    
   213  107  108 2    
   214  107  109 am   BACKBONE|DICT|INTERRES
   215  109  110 1    
   216  109  230 1    
   217  110  111 1    
   218  110  112 1    
   219  110  231 1    
   220  111  232 1    
   221  111  233 1    
   222  111  234 1    
   223  112  113 2    
   224  112  114 am   BACKBONE|DICT|INTERRES
   225  114  115 1    
   226  114  235 1    
   227  115  116 1    
   228  115  117 1    
   229  115  236 1    
   230  116  237 1    
   231  116  238 1    
   232  116  239 1    
   233  117  118 2    
   234  117  119 am   BACKBONE|DICT|INTERRES
   235  119  120 1    
   236  119  240 1    
   237  120  121 1    
   238  120  124 1    
   239  120  241 1    
   240  121  122 am   BACKBONE|DICT|INTERRES
   241  121  123 2    
   242  122  242 1    
   243  122  243 1    
   244  124  125 1    
   245  124  244 1    
   246  124  245 1    
   247  125  126 1    
   248  126  246 1    
   249  126  247 1    
@<TRIPOS>SUBSTRUCTURE
     1 UNK         1 GROUP             0       ****    0 ROOT    
