@<TRIPOS>MOLECULE
3R540
247   249    1
SMALL
USER_CHARGES


@<TRIPOS>ATOM
      1 CA          6.9972  -10.8765  -49.4823 C.3       0 UNK        -0.1800 
      2 C           6.3310  -11.3906  -48.2144 C.2       0 UNK         0.5000 
      3 O           5.8300  -10.5960  -47.4182 O.2       0 UNK        -0.5000 
      4 N           6.3095  -12.7177  -48.0280 N.am      1 UNK        -0.5000 
      5 CA          5.7178  -13.3979  -46.8672 C.3       1 UNK         0.1400 
      6 C6          6.1124  -14.8950  -46.7949 C.3       23 UNK        -0.0398 
      7 S7          5.6074  -15.8667  -48.2579 S.3       23 UNK        -0.2404 
      8 C8          4.0969  -16.6739  -47.6407 C.3       23 UNK        -0.0205 
      9 C9          3.3562  -17.3535  -48.7761 C.ar      23 UNK        -0.0193 
     10 C10         2.4079  -16.6493  -49.5233 C.ar      23 UNK        -0.1150 
     11 C11         1.7531  -17.2635  -50.5948 C.ar      23 UNK        -0.0193 
     12 C12         2.0479  -18.5937  -50.9093 C.ar      23 UNK        -0.1150 
     13 C13         2.9790  -19.3123  -50.1536 C.ar      23 UNK        -0.0193 
     14 C14         3.6326  -18.6849  -49.0906 C.ar      23 UNK        -0.1150 
     15 C15         3.2761  -20.7701  -50.4724 C.3       23 UNK        -0.0205 
     16 S16         1.8550  -21.8548  -50.1276 S.3       23 UNK        -0.2404 
     17 C17         1.3981  -21.3557  -48.4286 C.3       23 UNK        -0.0398 
     18 CA          0.7442  -22.4837  -47.5982 C.3       11 UNK         0.1400 
     19 N           0.5429  -22.0745  -46.2059 N.am      11 UNK        -0.5000 
     20 C           0.1477  -22.8922  -45.2195 C.2       10 UNK         0.5000 
     21 O          -0.0273  -24.1025  -45.3587 O.2       10 UNK        -0.5000 
     22 CA         -0.1689  -22.2343  -43.8655 C.3       10 UNK         0.1400 
     23 CB          1.1195  -21.9375  -43.0841 C.3       10 UNK        -0.1800 
     24 N          -0.9576  -21.0099  -44.0160 N.am      10 UNK        -0.5000 
     25 C          -2.1913  -20.9696  -44.5404 C.2       9 UNK         0.5000 
     26 O          -2.8143  -21.9721  -44.8889 O.2       9 UNK        -0.5000 
     27 CA         -2.8248  -19.5823  -44.7477 C.3       9 UNK         0.1400 
     28 CB         -3.4925  -19.0968  -43.4534 C.3       9 UNK        -0.1800 
     29 N          -1.8742  -18.5766  -45.2274 N.am      9 UNK        -0.5000 
     30 C          -1.2329  -18.6293  -46.4048 C.2       8 UNK         0.5000 
     31 O          -1.3857  -19.5351  -47.2222 O.2       8 UNK        -0.5000 
     32 CA         -0.2056  -17.5184  -46.6939 C.3       8 UNK         0.1400 
     33 CB         -0.8930  -16.2204  -47.1421 C.3       8 UNK        -0.1800 
     34 N           0.6456  -17.2487  -45.5367 N.am      8 UNK        -0.5000 
     35 C           1.5120  -18.1300  -45.0181 C.2       7 UNK         0.5000 
     36 O           1.7450  -19.2366  -45.5079 O.2       7 UNK        -0.5000 
     37 CA          2.1814  -17.7224  -43.6949 C.3       7 UNK         0.1400 
     38 CB          3.3882  -16.8034  -43.9416 C.3       7 UNK        -0.1800 
     39 N           1.2331  -17.0624  -42.7945 N.am      7 UNK        -0.5000 
     40 C           0.2553  -17.7053  -42.1386 C.2       6 UNK         0.5000 
     41 O           0.0645  -18.9174  -42.2250 O.2       6 UNK        -0.5000 
     42 CA         -0.6859  -16.8601  -41.2585 C.3       6 UNK         0.1400 
     43 CB         -0.1046  -16.7080  -39.8451 C.3       6 UNK        -0.1800 
     44 N          -0.9633  -15.5340  -41.8084 N.am      6 UNK        -0.5000 
     45 C          -1.6022  -15.2995  -42.9631 C.2       5 UNK         0.5000 
     46 O          -2.0655  -16.1849  -43.6794 O.2       5 UNK        -0.5000 
     47 CA         -1.6867  -13.8317  -43.4239 C.3       5 UNK         0.1400 
     48 CB         -2.9799  -13.1800  -42.9130 C.3       5 UNK        -0.1800 
     49 N          -0.5380  -13.0157  -43.0162 N.am      5 UNK        -0.5000 
     50 C           0.7349  -13.2807  -43.3369 C.2       4 UNK         0.5000 
     51 O           1.0807  -14.2672  -43.9908 O.2       4 UNK        -0.5000 
     52 CA          1.7867  -12.2733  -42.8541 C.3       4 UNK         0.1400 
     53 CB          3.0268  -12.9802  -42.2802 C.3       4 UNK        -0.1800 
     54 N           2.1749  -11.4625  -43.9994 N.am      4 UNK        -0.5000 
     55 C           1.6308  -10.2801  -44.3198 C.2       3 UNK         0.5000 
     56 O           0.8482   -9.6702  -43.5899 O.2       3 UNK        -0.5000 
     57 CA          1.9949   -9.6857  -45.6973 C.3       3 UNK         0.1400 
     58 CB          3.1761   -8.7122  -45.5695 C.3       3 UNK        -0.1800 
     59 N           2.3269  -10.7059  -46.6925 N.am      3 UNK        -0.5000 
     60 C           1.4751  -11.6301  -47.1613 C.2       2 UNK         0.5000 
     61 O           0.2679  -11.6279  -46.9191 O.2       2 UNK        -0.5000 
     62 CA          2.0691  -12.7658  -48.0207 C.3       2 UNK         0.1400 
     63 CB          1.7241  -12.5566  -49.5034 C.3       2 UNK        -0.1800 
     64 N           3.5204  -12.9364  -47.8940 N.am      2 UNK        -0.5000 
     65 C           4.1878  -13.2245  -46.7654 C.2       1 UNK         0.5000 
     66 O           3.6478  -13.3448  -45.6687 O.2       1 UNK        -0.5000 
     67 C          -0.5689  -22.9938  -48.2308 C.2       11 UNK         0.5000 
     68 O          -0.5728  -24.0709  -48.8262 O.2       11 UNK        -0.5000 
     69 N          -1.6637  -22.2415  -48.0488 N.am      12 UNK        -0.5000 
     70 CA         -3.0021  -22.5694  -48.5414 C.3       12 UNK         0.1400 
     71 CB         -3.9741  -21.4425  -48.1673 C.3       12 UNK        -0.1800 
     72 C          -3.5345  -23.9143  -48.0213 C.2       12 UNK         0.5000 
     73 O          -4.1351  -24.6645  -48.7930 O.2       12 UNK        -0.5000 
     74 N          -3.2884  -24.1910  -46.7342 N.am      13 UNK        -0.5000 
     75 CA         -3.6172  -25.4482  -46.0705 C.3       13 UNK         0.1400 
     76 CB         -3.5091  -25.2660  -44.5491 C.3       13 UNK        -0.1800 
     77 C          -2.7294  -26.6104  -46.5471 C.2       13 UNK         0.5000 
     78 O          -3.2535  -27.6881  -46.8276 O.2       13 UNK        -0.5000 
     79 N          -1.4132  -26.3722  -46.6511 N.am      14 UNK        -0.5000 
     80 CA         -0.4202  -27.3564  -47.0923 C.3       14 UNK         0.1400 
     81 CB          0.9945  -26.8020  -46.8662 C.3       14 UNK        -0.1800 
     82 C          -0.6050  -27.7872  -48.5584 C.2       14 UNK         0.5000 
     83 O          -0.4991  -28.9760  -48.8622 O.2       14 UNK        -0.5000 
     84 N          -0.9052  -26.8188  -49.4334 N.am      15 UNK        -0.5000 
     85 CA         -1.2206  -27.0406  -50.8454 C.3       15 UNK         0.1400 
     86 CB         -1.0731  -25.7084  -51.5987 C.3       15 UNK        -0.1800 
     87 C          -2.6339  -27.6142  -51.0655 C.2       15 UNK         0.5000 
     88 O          -2.9075  -28.1356  -52.1470 O.2       15 UNK        -0.5000 
     89 N          -3.5075  -27.4712  -50.0561 N.am      16 UNK        -0.5000 
     90 CA         -4.9428  -27.7783  -50.0567 C.3       16 UNK         0.1400 
     91 CB         -5.1872  -29.2929  -50.2161 C.3       16 UNK        -0.1800 
     92 C          -5.7351  -26.9243  -51.0717 C.2       16 UNK         0.5000 
     93 O          -6.7753  -27.3562  -51.5717 O.2       16 UNK        -0.5000 
     94 N          -5.2193  -25.7219  -51.3561 N.am      17 UNK        -0.5000 
     95 CA         -5.8000  -24.7494  -52.2773 C.3       17 UNK         0.1400 
     96 CB         -4.6730  -23.8816  -52.8578 C.3       17 UNK        -0.1800 
     97 C          -6.8660  -23.8769  -51.5959 C.2       17 UNK         0.5000 
     98 O          -7.7950  -23.4309  -52.2705 O.2       17 UNK        -0.5000 
     99 N          -6.7209  -23.6574  -50.2785 N.am      18 UNK        -0.5000 
    100 CA        -7.6165  -22.8800  -49.4160 C.3       18 UNK         0.1400 
    101 CB        -8.9009  -23.6894  -49.1304 C.3       18 UNK        -0.1800 
    102 C         -7.8743  -21.4632  -49.9777 C.2       18 UNK         0.5000 
    103 O         -6.9321  -20.6795  -50.0881 O.2       18 UNK        -0.5000 
    104 N         -9.1226  -21.1668  -50.3614 N.am      19 UNK        -0.5000 
    105 CA        -9.5489  -19.8894  -50.9374 C.3       19 UNK         0.1400 
    106 CB       -11.0825  -19.8803  -51.0330 C.3       19 UNK        -0.1800 
    107 C         -8.9221  -19.5594  -52.3095 C.2       19 UNK         0.5000 
    108 O         -8.9035  -18.3874  -52.6874 O.2       19 UNK        -0.5000 
    109 N         -8.4252  -20.5742  -53.0319 N.am      20 UNK        -0.5000 
    110 CA        -7.7709  -20.4142  -54.3330 C.3       20 UNK         0.1400 
    111 CB        -7.9665  -21.6997  -55.1537 C.3       20 UNK        -0.1800 
    112 C         -6.2723  -20.0662  -54.2224 C.2       20 UNK         0.5000 
    113 O         -5.6554  -19.7587  -55.2443 O.2       20 UNK        -0.5000 
    114 N         -5.6973  -20.1403  -53.0133 N.am      21 UNK        -0.5000 
    115 CA        -4.2862  -19.8585  -52.7528 C.3       21 UNK         0.1400 
    116 CB        -3.9473  -20.2882  -51.3217 C.3       21 UNK        -0.1800 
    117 C         -3.9339  -18.3730  -52.9476 C.2       21 UNK         0.5000 
    118 O         -4.7506  -17.4996  -52.6454 O.2       21 UNK        -0.5000 
    119 N         -2.7040  -18.1284  -53.4151 N.am      22 UNK        -0.5000 
    120 CA        -2.0896  -16.8008  -53.6072 C.3       22 UNK         0.1400 
    121 C         -2.7405  -15.9226  -54.7217 C.2       22 UNK         0.5000 
    122 N         -3.5918  -16.4646  -55.5845 N.am      22 UNK        -0.7600 
    123 O         -2.4427  -14.7364  -54.8339 O.2       22 UNK        -0.5000 
    124 C124       -1.8874  -16.0191  -52.2751 C.3       23 UNK        -0.0398 
    125 S125       -0.9625  -16.9680  -51.0167 S.3       23 UNK        -0.2404 
    126 C126        0.7431  -16.4904  -51.4272 C.3       23 UNK        -0.0205 
    127 H127        6.2804  -10.3142  -50.0808 H         1 UNK         0.0600 
    128 H128        7.3875  -11.6904  -50.0939 H         1 UNK         0.0600 
    129 H129        7.8250  -10.2143  -49.2284 H         1 UNK         0.0600 
    130 H130        6.7234  -13.3255  -48.7214 H         1 UNK         0.3000 
    131 H131        6.1329  -12.9168  -45.9789 H         1 UNK         0.0600 
    132 H132        7.1963  -14.9757  -46.7041 H         1 UNK         0.0800 
    133 H133        5.7133  -15.3564  -45.8894 H         1 UNK         0.0800 
    134 H134        4.3647  -17.4058  -46.8780 H         1 UNK         0.0800 
    135 H135        3.4404  -15.9494  -47.1581 H         1 UNK         0.0800 
    136 H136        2.1918  -15.6202  -49.2774 H         1 UNK         0.1150 
    137 H137        1.5398  -19.0760  -51.7328 H         1 UNK         0.1150 
    138 H138        4.3612  -19.2307  -48.5075 H         1 UNK         0.1150 
    139 H139        3.5469  -20.8616  -51.5251 H         1 UNK         0.0800 
    140 H140        4.1366  -21.1243  -49.9026 H         1 UNK         0.0800 
    141 H141        0.7431  -20.4854  -48.4904 H         1 UNK         0.0800 
    142 H142        2.2986  -21.0172  -47.9143 H         1 UNK         0.0800 
    143 H143        1.4407  -23.3247  -47.5813 H         1 UNK         0.0600 
    144 H144        0.6707  -21.0907  -45.9981 H         1 UNK         0.3000 
    145 H145       -0.7619  -22.9432  -43.2838 H         1 UNK         0.0600 
    146 H146        0.8957  -21.5656  -42.0842 H         1 UNK         0.0600 
    147 H147        1.7221  -22.8390  -42.9674 H         1 UNK         0.0600 
    148 H148        1.7359  -21.1924  -43.5874 H         1 UNK         0.0600 
    149 H149       -0.5341  -20.1503  -43.6818 H         1 UNK         0.3000 
    150 H150       -3.6022  -19.6839  -45.5069 H         1 UNK         0.0600 
    151 H151       -4.2247  -19.8219  -43.0959 H         1 UNK         0.0600 
    152 H152       -4.0184  -18.1549  -43.6095 H         1 UNK         0.0600 
    153 H153       -2.7633  -18.9473  -42.6575 H         1 UNK         0.0600 
    154 H154       -1.7387  -17.7649  -44.6299 H         1 UNK         0.3000 
    155 H155        0.4328  -17.8622  -47.5110 H         1 UNK         0.0600 
    156 H156       -1.5116  -15.7946  -46.3520 H         1 UNK         0.0600 
    157 H157       -1.5377  -16.3996  -48.0032 H         1 UNK         0.0600 
    158 H158       -0.1601  -15.4695  -47.4367 H         1 UNK         0.0600 
    159 H159        0.5181  -16.3632  -45.0642 H         1 UNK         0.3000 
    160 H160        2.5434  -18.6299  -43.2067 H         1 UNK         0.0600 
    161 H161        3.1149  -15.9125  -44.5080 H         1 UNK         0.0600 
    162 H162        4.1628  -17.3256  -44.5029 H         1 UNK         0.0600 
    163 H163        3.8354  -16.4772  -43.0026 H         1 UNK         0.0600 
    164 H164        1.2786  -16.0523  -42.7510 H         1 UNK         0.3000 
    165 H165       -1.6348  -17.3937  -41.1797 H         1 UNK         0.0600 
    166 H166       -0.7987  -16.1849  -39.1870 H         1 UNK         0.0600 
    167 H167        0.0930  -17.6830  -39.3976 H         1 UNK         0.0600 
    168 H168        0.8348  -16.1537  -39.8529 H         1 UNK         0.0600 
    169 H169       -0.6126  -14.7433  -41.2887 H         1 UNK         0.3000 
    170 H170       -1.7137  -13.8355  -44.5157 H         1 UNK         0.0600 
    171 H171       -3.8546  -13.7549  -43.2205 H         1 UNK         0.0600 
    172 H172       -2.9954  -13.1152  -41.8243 H         1 UNK         0.0600 
    173 H173       -3.0987  -12.1726  -43.3122 H         1 UNK         0.0600 
    174 H174       -0.7453  -12.1735  -42.4985 H         1 UNK         0.3000 
    175 H175        1.3601  -11.6502  -42.0652 H         1 UNK         0.0600 
    176 H176        3.5078  -13.6270  -43.0145 H         1 UNK         0.0600 
    177 H177        3.7675  -12.2567  -41.9397 H         1 UNK         0.0600 
    178 H178        2.7590  -13.6007  -41.4243 H         1 UNK         0.0600 
    179 H179        2.7483  -11.9452  -44.6861 H         1 UNK         0.3000 
    180 H180        1.1272   -9.1302  -46.0588 H         1 UNK         0.0600 
    181 H181        4.0813   -9.2210  -45.2350 H         1 UNK         0.0600 
    182 H182        2.9565   -7.9226  -44.8497 H         1 UNK         0.0600 
    183 H183        3.3959   -8.2310  -46.5228 H         1 UNK         0.0600 
    184 H184        3.3014  -10.7816  -46.9516 H         1 UNK         0.3000 
    185 H185        1.6038  -13.6947  -47.6855 H         1 UNK         0.0600 
    186 H186        0.6447  -12.4967  -49.6488 H         1 UNK         0.0600 
    187 H187        2.1593  -11.6337  -49.8886 H         1 UNK         0.0600 
    188 H188        2.0876  -13.3794  -50.1187 H         1 UNK         0.0600 
    189 H189        4.0581  -12.8497  -48.7439 H         1 UNK         0.3000 
    190 H190       -1.5650  -21.3425  -47.5818 H         1 UNK         0.3000 
    191 H191       -2.9388  -22.6335  -49.6287 H         1 UNK         0.0600 
    192 H192       -3.6003  -20.4688  -48.4815 H         1 UNK         0.0600 
    193 H193       -4.9387  -21.5925  -48.6481 H         1 UNK         0.0600 
    194 H194       -4.1529  -21.3980  -47.0941 H         1 UNK         0.0600 
    195 H195       -2.8487  -23.4761  -46.1616 H         1 UNK         0.3000 
    196 H196       -4.6532  -25.6977  -46.3099 H         1 UNK         0.0600 
    197 H197       -3.7594  -26.1892  -44.0251 H         1 UNK         0.0600 
    198 H198       -4.1941  -24.4947  -44.1965 H         1 UNK         0.0600 
    199 H199       -2.5012  -24.9779  -44.2478 H         1 UNK         0.0600 
    200 H200       -1.0530  -25.4639  -46.3728 H         1 UNK         0.3000 
    201 H201       -0.5367  -28.2464  -46.4705 H         1 UNK         0.0600 
    202 H202        1.1699  -26.5895  -45.8116 H         1 UNK         0.0600 
    203 H203        1.1593  -25.8804  -47.4252 H         1 UNK         0.0600 
    204 H204        1.7522  -27.5197  -47.1832 H         1 UNK         0.0600 
    205 H205       -0.9093  -25.8510  -49.1140 H         1 UNK         0.3000 
    206 H206       -0.5026  -27.7521  -51.2584 H         1 UNK         0.0600 
    207 H207       -0.0665  -25.3036  -51.4913 H         1 UNK         0.0600 
    208 H208       -1.2604  -25.8369  -52.6655 H         1 UNK         0.0600 
    209 H209       -1.7747  -24.9587  -51.2300 H         1 UNK         0.0600 
    210 H210       -3.1683  -27.0285  -49.2128 H         1 UNK         0.3000 
    211 H211       -5.3096  -27.4884  -49.0710 H         1 UNK         0.0600 
    212 H212       -4.9151  -29.6466  -51.2108 H         1 UNK         0.0600 
    213 H213       -6.2384  -29.5374  -50.0595 H         1 UNK         0.0600 
    214 H214       -4.6107  -29.8624  -49.4870 H         1 UNK         0.0600 
    215 H215       -4.4028  -25.4317  -50.8337 H         1 UNK         0.3000 
    216 H216       -6.2823  -25.2763  -53.1034 H         1 UNK         0.0600 
    217 H217       -5.0703  -23.0956  -53.5014 H         1 UNK         0.0600 
    218 H218       -3.9908  -24.4812  -53.4607 H         1 UNK         0.0600 
    219 H219       -4.0867  -23.4050  -52.0727 H         1 UNK         0.0600 
    220 H220       -5.9134  -24.0628  -49.8198 H         1 UNK         0.3000 
    221 H221       -7.0968  -22.7429  -48.4670 H         1 UNK         0.0600 
    222 H222       -9.4628  -23.9078  -50.0393 H         1 UNK         0.0600 
    223 H223       -8.6591  -24.6428  -48.6603 H         1 UNK         0.0600 
    224 H224       -9.5613  -23.1558  -48.4456 H         1 UNK         0.0600 
    225 H225       -9.8318  -21.8799  -50.2741 H         1 UNK         0.3000 
    226 H226       -9.2460  -19.0984  -50.2481 H         1 UNK         0.0600 
    227 H227      -11.5407  -20.0204  -50.0538 H         1 UNK         0.0600 
    228 H228      -11.4452  -18.9294  -51.4259 H         1 UNK         0.0600 
    229 H229      -11.4481  -20.6685  -51.6924 H         1 UNK         0.0600 
    230 H230       -8.4459  -21.5151  -52.6507 H         1 UNK         0.3000 
    231 H231       -8.2533  -19.5990  -54.8765 H         1 UNK         0.0600 
    232 H232       -7.4325  -22.5441  -54.7180 H         1 UNK         0.0600 
    233 H233       -7.5949  -21.5719  -56.1711 H         1 UNK         0.0600 
    234 H234       -9.0206  -21.9682  -55.2254 H         1 UNK         0.0600 
    235 H235       -6.2738  -20.3427  -52.2061 H         1 UNK         0.3000 
    236 H236       -3.6939  -20.4616  -53.4443 H         1 UNK         0.0600 
    237 H237       -4.2625  -21.3122  -51.1315 H         1 UNK         0.0600 
    238 H238       -2.8742  -20.2297  -51.1347 H         1 UNK         0.0600 
    239 H239       -4.4430  -19.6483  -50.5906 H         1 UNK         0.0600 
    240 H240       -2.1065  -18.9115  -53.6370 H         1 UNK         0.3000 
    241 H241       -1.0937  -17.0128  -53.9970 H         1 UNK         0.0600 
    242 H242       -3.9967  -15.8918  -56.3083 H         1 UNK         0.3800 
    243 H243       -3.8573  -17.4343  -55.5050 H         1 UNK         0.3800 
    244 H244       -1.3609  -15.0800  -52.4528 H         1 UNK         0.0800 
    245 H245       -2.8524  -15.7415  -51.8494 H         1 UNK         0.0800 
    246 H246        0.8636  -15.4166  -51.2761 H         1 UNK         0.0800 
    247 H247        0.9309  -16.6778  -52.4853 H         1 UNK         0.0800 
@<TRIPOS>BOND
     1    1    2 1    
     2    1  127 1    
     3    1  128 1    
     4    1  129 1    
     5    2    3 2    
     6    2    4 am   BACKBONE|DICT|INTERRES
     7    4    5 1    
     8    4  130 1    
     9    5    6 1    
    10    5   65 1    
    11    5  131 1    
    12    6    7 1    
    13    6  132 1    
    14    6  133 1    
    15    7    8 1    
    16    8    9 1    
    17    8  134 1    
    18    8  135 1    
    19    9   10 ar   
    20    9   14 ar   
    21   10   11 ar   
    22   10  136 1    
    23   11   12 ar   
    24   11  126 1    
    25   12   13 ar   
    26   12  137 1    
    27   13   14 ar   
    28   13   15 1    
    29   14  138 1    
    30   15   16 1    
    31   15  139 1    
    32   15  140 1    
    33   16   17 1    
    34   17   18 1    
    35   17  141 1    
    36   17  142 1    
    37   18   19 1    
    38   18   67 1    
    39   18  143 1    
    40   19   20 am   BACKBONE|DICT|INTERRES
    41   19  144 1    
    42   20   21 2    
    43   20   22 1    
    44   22   23 1    
    45   22   24 1    
    46   22  145 1    
    47   23  146 1    
    48   23  147 1    
    49   23  148 1    
    50   24   25 am   BACKBONE|DICT|INTERRES
    51   24  149 1    
    52   25   26 2    
    53   25   27 1    
    54   27   28 1    
    55   27   29 1    
    56   27  150 1    
    57   28  151 1    
    58   28  152 1    
    59   28  153 1    
    60   29   30 am   BACKBONE|DICT|INTERRES
    61   29  154 1    
    62   30   31 2    
    63   30   32 1    
    64   32   33 1    
    65   32   34 1    
    66   32  155 1    
    67   33  156 1    
    68   33  157 1    
    69   33  158 1    
    70   34   35 am   BACKBONE|DICT|INTERRES
    71   34  159 1    
    72   35   36 2    
    73   35   37 1    
    74   37   38 1    
    75   37   39 1    
    76   37  160 1    
    77   38  161 1    
    78   38  162 1    
    79   38  163 1    
    80   39   40 am   BACKBONE|DICT|INTERRES
    81   39  164 1    
    82   40   41 2    
    83   40   42 1    
    84   42   43 1    
    85   42   44 1    
    86   42  165 1    
    87   43  166 1    
    88   43  167 1    
    89   43  168 1    
    90   44   45 am   BACKBONE|DICT|INTERRES
    91   44  169 1    
    92   45   46 2    
    93   45   47 1    
    94   47   48 1    
    95   47   49 1    
    96   47  170 1    
    97   48  171 1    
    98   48  172 1    
    99   48  173 1    
   100   49   50 am   BACKBONE|DICT|INTERRES
   101   49  174 1    
   102   50   51 2    
   103   50   52 1    
   104   52   53 1    
   105   52   54 1    
   106   52  175 1    
   107   53  176 1    
   108   53  177 1    
   109   53  178 1    
   110   54   55 am   BACKBONE|DICT|INTERRES
   111   54  179 1    
   112   55   56 2    
   113   55   57 1    
   114   57   58 1    
   115   57   59 1    
   116   57  180 1    
   117   58  181 1    
   118   58  182 1    
   119   58  183 1    
   120   59   60 am   BACKBONE|DICT|INTERRES
   121   59  184 1    
   122   60   61 2    
   123   60   62 1    
   124   62   63 1    
   125   62   64 1    
   126   62  185 1    
   127   63  186 1    
   128   63  187 1    
   129   63  188 1    
   130   64   65 am   BACKBONE|DICT|INTERRES
   131   64  189 1    
   132   65   66 2    
   133   67   68 2    
   134   67   69 am   BACKBONE|DICT|INTERRES
   135   69   70 1    
   136   69  190 1    
   137   70   71 1    
   138   70   72 1    
   139   70  191 1    
   140   71  192 1    
   141   71  193 1    
   142   71  194 1    
   143   72   73 2    
   144   72   74 am   BACKBONE|DICT|INTERRES
   145   74   75 1    
   146   74  195 1    
   147   75   76 1    
   148   75   77 1    
   149   75  196 1    
   150   76  197 1    
   151   76  198 1    
   152   76  199 1    
   153   77   78 2    
   154   77   79 am   BACKBONE|DICT|INTERRES
   155   79   80 1    
   156   79  200 1    
   157   80   81 1    
   158   80   82 1    
   159   80  201 1    
   160   81  202 1    
   161   81  203 1    
   162   81  204 1    
   163   82   83 2    
   164   82   84 am   BACKBONE|DICT|INTERRES
   165   84   85 1    
   166   84  205 1    
   167   85   86 1    
   168   85   87 1    
   169   85  206 1    
   170   86  207 1    
   171   86  208 1    
   172   86  209 1    
   173   87   88 2    
   174   87   89 am   BACKBONE|DICT|INTERRES
   175   89   90 1    
   176   89  210 1    
   177   90   91 1    
   178   90   92 1    
   179   90  211 1    
   180   91  212 1    
   181   91  213 1    
   182   91  214 1    
   183   92   93 2    
   184   92   94 am   BACKBONE|DICT|INTERRES
   185   94   95 1    
   186   94  215 1    
   187   95   96 1    
   188   95   97 1    
   189   95  216 1    
   190   96  217 1    
   191   96  218 1    
   192   96  219 1    
   193   97   98 2    
   194   97   99 am   BACKBONE|DICT|INTERRES
   195   99  100 1    
   196   99  220 1    
   197  100  101 1    
   198  100  102 1    
   199  100  221 1    
   200  101  222 1    
   201  101  223 1    
   202  101  224 1    
   203  102  103 2    
   204  102  104 am   BACKBONE|DICT|INTERRES
   205  104  105 1    
   206  104  225 1    
   207  105  106 1    
   208  105  107 1    
   209  105  226 1    
   210  106  227 1    
   211  106  228 1    
   212  106  229 1    
   213  107  108 2    
   214  107  109 am   BACKBONE|DICT|INTERRES
   215  109  110 1    
   216  109  230 1    
   217  110  111 1    
   218  110  112 1    
   219  110  231 1    
   220  111  232 1    
   221  111  233 1    
   222  111  234 1    
   223  112  113 2    
   224  112  114 am   BACKBONE|DICT|INTERRES
   225  114  115 1    
   226  114  235 1    
   227  115  116 1    
   228  115  117 1    
   229  115  236 1    
   230  116  237 1    
   231  116  238 1    
   232  116  239 1    
   233  117  118 2    
   234  117  119 am   BACKBONE|DICT|INTERRES
   235  119  120 1    
   236  119  240 1    
   237  120  121 1    
   238  120  124 1    
   239  120  241 1    
   240  121  122 am   BACKBONE|DICT|INTERRES
   241  121  123 2    
   242  122  242 1    
   243  122  243 1    
   244  124  125 1    
   245  124  244 1    
   246  124  245 1    
   247  125  126 1    
   248  126  246 1    
   249  126  247 1    
@<TRIPOS>SUBSTRUCTURE
     1 UNK         1 GROUP             0       ****    0 ROOT    
