@<TRIPOS>MOLECULE
3R540
247   249    1
SMALL
USER_CHARGES


@<TRIPOS>ATOM
      1 CA         -5.5054  -13.5308  -47.4396 C.3       0 UNK        -0.1800 
      2 C          -4.9584  -14.9245  -47.1463 C.2       0 UNK         0.5000 
      3 O          -5.7041  -15.8963  -47.2375 O.2       0 UNK        -0.5000 
      4 N          -3.6777  -15.0745  -46.7895 N.am      1 UNK        -0.5000 
      5 CA         -2.6462  -14.0418  -46.6485 C.3       1 UNK         0.1400 
      6 C6         -1.4489  -14.2950  -47.6006 C.3       23 UNK        -0.0398 
      7 S7         -1.9271  -14.2582  -49.3581 S.3       23 UNK        -0.2404 
      8 C8         -0.3055  -14.4874  -50.1497 C.3       23 UNK        -0.0205 
      9 C9          0.1776  -15.9275  -50.0581 C.ar      23 UNK        -0.0193 
     10 C10        -0.3265  -16.8850  -50.9410 C.ar      23 UNK        -0.1150 
     11 C11         0.1334  -18.2030  -50.8979 C.ar      23 UNK        -0.0193 
     12 C12         1.1050  -18.5640  -49.9602 C.ar      23 UNK        -0.1150 
     13 C13         1.6182  -17.6157  -49.0692 C.ar      23 UNK        -0.0193 
     14 C14         1.1465  -16.2991  -49.1205 C.ar      23 UNK        -0.1150 
     15 C15         2.7110  -18.0011  -48.0792 C.3       23 UNK        -0.0205 
     16 S16         2.1762  -19.2620  -46.8769 S.3       23 UNK        -0.2404 
     17 C17         0.8070  -18.4150  -46.0251 C.3       23 UNK        -0.0398 
     18 CA         -0.5399  -19.1415  -46.2279 C.3       11 UNK         0.1400 
     19 N          -0.5065  -20.4979  -45.6733 N.am      11 UNK        -0.5000 
     20 C          -1.5114  -21.3831  -45.6481 C.2       10 UNK         0.5000 
     21 O          -2.5940  -21.1980  -46.2061 O.2       10 UNK        -0.5000 
     22 CA         -1.2932  -22.6518  -44.7996 C.3       10 UNK         0.1400 
     23 CB         -0.9204  -23.8411  -45.6957 C.3       10 UNK        -0.1800 
     24 N          -0.2716  -22.5052  -43.7551 N.am      10 UNK        -0.5000 
     25 C          -0.2714  -21.6091  -42.7584 C.2       9 UNK         0.5000 
     26 O          -1.1496  -20.7581  -42.6159 O.2       9 UNK        -0.5000 
     27 CA          0.9279  -21.6144  -41.7914 C.3       9 UNK         0.1400 
     28 CB          0.6568  -22.5197  -40.5758 C.3       9 UNK        -0.1800 
     29 N           2.2272  -21.9178  -42.4092 N.am      9 UNK        -0.5000 
     30 C           2.6754  -23.0720  -42.9308 C.2       8 UNK         0.5000 
     31 O           1.9834  -24.0843  -43.0418 O.2       8 UNK        -0.5000 
     32 CA          4.1324  -23.1048  -43.4418 C.3       8 UNK         0.1400 
     33 CB          4.1550  -23.0042  -44.9754 C.3       8 UNK        -0.1800 
     34 N           4.9737  -22.0403  -42.8926 N.am      8 UNK        -0.5000 
     35 C           5.3194  -21.9011  -41.6046 C.2       7 UNK         0.5000 
     36 O           5.0831  -22.7472  -40.7417 O.2       7 UNK        -0.5000 
     37 CA          6.0149  -20.5814  -41.2019 C.3       7 UNK         0.1400 
     38 CB          7.5046  -20.8260  -40.9149 C.3       7 UNK        -0.1800 
     39 N           5.8966  -19.4916  -42.1814 N.am      7 UNK        -0.5000 
     40 C           4.7552  -18.9396  -42.6166 C.2       6 UNK         0.5000 
     41 O           3.6343  -19.3177  -42.2631 O.2       6 UNK        -0.5000 
     42 CA          4.9076  -17.8344  -43.6792 C.3       6 UNK         0.1400 
     43 CB          5.4062  -18.4302  -45.0070 C.3       6 UNK        -0.1800 
     44 N           3.6426  -17.1468  -43.9293 N.am      6 UNK        -0.5000 
     45 C           3.1097  -16.2149  -43.1309 C.2       5 UNK         0.5000 
     46 O           3.6606  -15.7747  -42.1186 O.2       5 UNK        -0.5000 
     47 CA          1.7131  -15.7034  -43.5271 C.3       5 UNK         0.1400 
     48 CB          0.6152  -16.4017  -42.7084 C.3       5 UNK        -0.1800 
     49 N           1.5951  -14.2562  -43.3666 N.am      5 UNK        -0.5000 
     50 C           2.2030  -13.3599  -44.1553 C.2       4 UNK         0.5000 
     51 O           2.9325  -13.6720  -45.0988 O.2       4 UNK        -0.5000 
     52 CA          1.9224  -11.8768  -43.8537 C.3       4 UNK         0.1400 
     53 CB          2.2885  -10.9423  -45.0241 C.3       4 UNK        -0.1800 
     54 N           0.5192  -11.6809  -43.4890 N.am      4 UNK        -0.5000 
     55 C           0.0720  -10.7393  -42.6467 C.2       3 UNK         0.5000 
     56 O           0.8135   -9.9535  -42.0548 O.2       3 UNK        -0.5000 
     57 CA         -1.4527  -10.6312  -42.4264 C.3       3 UNK         0.1400 
     58 CB         -2.0203   -9.4334  -43.2041 C.3       3 UNK        -0.1800 
     59 N          -2.1998  -11.8305  -42.8073 N.am      3 UNK        -0.5000 
     60 C          -2.1503  -13.0036  -42.1637 C.2       2 UNK         0.5000 
     61 O          -1.4955  -13.1919  -41.1383 O.2       2 UNK        -0.5000 
     62 CA         -2.9358  -14.1762  -42.7845 C.3       2 UNK         0.1400 
     63 CB         -4.2971  -14.3391  -42.0924 C.3       2 UNK        -0.1800 
     64 N          -3.1493  -14.1003  -44.2375 N.am      2 UNK        -0.5000 
     65 C          -2.1956  -13.9764  -45.1743 C.2       1 UNK         0.5000 
     66 O          -1.0068  -13.8161  -44.9027 O.2       1 UNK        -0.5000 
     67 C          -1.6820  -18.2808  -45.6481 C.2       11 UNK         0.5000 
     68 O          -2.1978  -17.4235  -46.3616 O.2       11 UNK        -0.5000 
     69 N          -2.1148  -18.5516  -44.4065 N.am      12 UNK        -0.5000 
     70 CA         -3.2674  -17.9029  -43.7739 C.3       12 UNK         0.1400 
     71 CB         -3.3040  -18.2697  -42.2838 C.3       12 UNK        -0.1800 
     72 C          -4.6206  -18.2056  -44.4531 C.2       12 UNK         0.5000 
     73 O          -5.5774  -17.4648  -44.2301 O.2       12 UNK        -0.5000 
     74 N          -4.6677  -19.2599  -45.2775 N.am      13 UNK        -0.5000 
     75 CA         -5.7852  -19.6132  -46.1520 C.3       13 UNK         0.1400 
     76 CB         -6.2694  -21.0243  -45.7710 C.3       13 UNK        -0.1800 
     77 C          -5.3696  -19.5494  -47.6373 C.2       13 UNK         0.5000 
     78 O          -6.0624  -20.1224  -48.4789 O.2       13 UNK        -0.5000 
     79 N          -4.2248  -18.9115  -47.9355 N.am      14 UNK        -0.5000 
     80 CA         -3.5717  -18.8090  -49.2472 C.3       14 UNK         0.1400 
     81 CB         -4.3621  -17.8657  -50.1752 C.3       14 UNK        -0.1800 
     82 C          -3.2853  -20.1853  -49.8878 C.2       14 UNK         0.5000 
     83 O          -3.4159  -20.3432  -51.1001 O.2       14 UNK        -0.5000 
     84 N          -2.9206  -21.1618  -49.0447 N.am      15 UNK        -0.5000 
     85 CA         -2.6855  -22.5756  -49.3522 C.3       15 UNK         0.1400 
     86 CB         -1.5591  -22.7580  -50.3885 C.3       15 UNK        -0.1800 
     87 C          -3.9629  -23.3747  -49.6921 C.2       15 UNK         0.5000 
     88 O          -3.8535  -24.5126  -50.1524 O.2       15 UNK        -0.5000 
     89 N          -5.1447  -22.8017  -49.4117 N.am      16 UNK        -0.5000 
     90 CA         -6.4765  -23.4044  -49.5115 C.3       16 UNK         0.1400 
     91 CB         -6.6789  -24.4226  -48.3675 C.3       16 UNK        -0.1800 
     92 C          -6.7590  -23.9727  -50.9172 C.2       16 UNK         0.5000 
     93 O          -6.8992  -23.1984  -51.8630 O.2       16 UNK        -0.5000 
     94 N          -6.8123  -25.3050  -51.0467 N.am      17 UNK        -0.5000 
     95 CA         -7.0207  -26.0185  -52.3089 C.3       17 UNK         0.1400 
     96 CB         -7.2106  -27.5133  -52.0100 C.3       17 UNK        -0.1800 
     97 C          -5.8893  -25.8141  -53.3376 C.2       17 UNK         0.5000 
     98 O          -6.1397  -25.9311  -54.5376 O.2       17 UNK        -0.5000 
     99 N          -4.6769  -25.4949  -52.8631 N.am      18 UNK        -0.5000 
    100 CA        -3.5047  -25.2261  -53.6956 C.3       18 UNK         0.1400 
    101 CB        -2.2427  -25.7126  -52.9672 C.3       18 UNK        -0.1800 
    102 C         -3.3833  -23.7471  -54.1131 C.2       18 UNK         0.5000 
    103 O         -2.4042  -23.3989  -54.7743 O.2       18 UNK        -0.5000 
    104 N         -4.3676  -22.8983  -53.7724 N.am      19 UNK        -0.5000 
    105 CA        -4.4110  -21.4785  -54.1470 C.3       19 UNK         0.1400 
    106 CB        -5.6617  -20.8173  -53.5509 C.3       19 UNK        -0.1800 
    107 C         -4.3617  -21.2364  -55.6685 C.2       19 UNK         0.5000 
    108 O         -3.7634  -20.2547  -56.1086 O.2       19 UNK        -0.5000 
    109 N         -4.9484  -22.1598  -56.4434 N.am      20 UNK        -0.5000 
    110 CA        -4.9296  -22.1595  -57.9071 C.3       20 UNK         0.1400 
    111 CB        -5.9318  -23.2058  -58.4179 C.3       20 UNK        -0.1800 
    112 C         -3.5309  -22.4156  -58.5045 C.2       20 UNK         0.5000 
    113 O         -3.2447  -21.9220  -59.5959 O.2       20 UNK        -0.5000 
    114 N         -2.6880  -23.1712  -57.7864 N.am      21 UNK        -0.5000 
    115 CA        -1.2913  -23.4176  -58.1468 C.3       21 UNK         0.1400 
    116 CB        -0.8458  -24.7739  -57.5767 C.3       21 UNK        -0.1800 
    117 C         -0.3804  -22.2841  -57.6439 C.2       21 UNK         0.5000 
    118 O          0.5463  -21.8894  -58.3526 O.2       21 UNK        -0.5000 
    119 N         -0.6692  -21.7817  -56.4363 N.am      22 UNK        -0.5000 
    120 CA        -0.0012  -20.6363  -55.8041 C.3       22 UNK         0.1400 
    121 C         -0.1896  -19.3037  -56.5869 C.2       22 UNK         0.5000 
    122 N         -1.4012  -18.9685  -57.0133 N.am      22 UNK        -0.7600 
    123 O          0.7722  -18.5783  -56.8257 O.2       22 UNK        -0.5000 
    124 C124       -0.4443  -20.5075  -54.3257 C.3       23 UNK        -0.0398 
    125 S125        0.6443  -19.4503  -53.3156 S.3       23 UNK        -0.2404 
    126 C126       -0.4259  -19.2312  -51.8646 C.3       23 UNK        -0.0205 
    127 H127       -4.9757  -13.0792  -48.2787 H         1 UNK         0.0600 
    128 H128       -5.4083  -12.8834  -46.5681 H         1 UNK         0.0600 
    129 H129       -6.5625  -13.5814  -47.7013 H         1 UNK         0.0600 
    130 H130       -3.3232  -16.0127  -46.6208 H         1 UNK         0.3000 
    131 H131       -3.0418  -13.0525  -46.8781 H         1 UNK         0.0600 
    132 H132       -0.9846  -15.2581  -47.3840 H         1 UNK         0.0800 
    133 H133       -0.6757  -13.5384  -47.4547 H         1 UNK         0.0800 
    134 H134        0.4220  -13.8050  -49.7075 H         1 UNK         0.0800 
    135 H135       -0.3863  -14.2023  -51.1996 H         1 UNK         0.0800 
    136 H136       -1.0740  -16.5993  -51.6680 H         1 UNK         0.1150 
    137 H137        1.4697  -19.5813  -49.9292 H         1 UNK         0.1150 
    138 H138        1.5451  -15.5574  -48.4423 H         1 UNK         0.1150 
    139 H139        3.5661  -18.3892  -48.6341 H         1 UNK         0.0800 
    140 H140        3.0733  -17.1255  -47.5380 H         1 UNK         0.0800 
    141 H141        0.7468  -17.3832  -46.3761 H         1 UNK         0.0800 
    142 H142        1.0512  -18.3683  -44.9637 H         1 UNK         0.0800 
    143 H143       -0.7249  -19.2339  -47.3004 H         1 UNK         0.0600 
    144 H144        0.3495  -20.7584  -45.2066 H         1 UNK         0.3000 
    145 H145       -2.2390  -22.8760  -44.3028 H         1 UNK         0.0600 
    146 H146       -0.7778  -24.7483  -45.1080 H         1 UNK         0.0600 
    147 H147       -1.7098  -24.0493  -46.4179 H         1 UNK         0.0600 
    148 H148       -0.0005  -23.6542  -46.2515 H         1 UNK         0.0600 
    149 H149        0.4846  -23.1843  -43.7547 H         1 UNK         0.3000 
    150 H150        1.0224  -20.5930  -41.4188 H         1 UNK         0.0600 
    151 H151       -0.2472  -22.2057  -40.0525 H         1 UNK         0.0600 
    152 H152        1.4786  -22.4748  -39.8609 H         1 UNK         0.0600 
    153 H153        0.5188  -23.5620  -40.8641 H         1 UNK         0.0600 
    154 H154        2.8689  -21.1296  -42.4099 H         1 UNK         0.3000 
    155 H155        4.5628  -24.0645  -43.1490 H         1 UNK         0.0600 
    156 H156        3.7467  -22.0540  -45.3231 H         1 UNK         0.0600 
    157 H157        3.5636  -23.8006  -45.4293 H         1 UNK         0.0600 
    158 H158        5.1700  -23.0955  -45.3625 H         1 UNK         0.0600 
    159 H159        5.2277  -21.2982  -43.5267 H         1 UNK         0.3000 
    160 H160        5.5402  -20.2426  -40.2789 H         1 UNK         0.0600 
    161 H161        8.0397  -21.1410  -41.8116 H         1 UNK         0.0600 
    162 H162        7.6368  -21.6055  -40.1631 H         1 UNK         0.0600 
    163 H163        7.9869  -19.9259  -40.5331 H         1 UNK         0.0600 
    164 H164        6.7697  -19.1332  -42.5410 H         1 UNK         0.3000 
    165 H165        5.6405  -17.1081  -43.3216 H         1 UNK         0.0600 
    166 H166        5.4580  -17.6706  -45.7874 H         1 UNK         0.0600 
    167 H167        6.4078  -18.8487  -44.9019 H         1 UNK         0.0600 
    168 H168        4.7552  -19.2300  -45.3612 H         1 UNK         0.0600 
    169 H169        3.1215  -17.4710  -44.7287 H         1 UNK         0.3000 
    170 H170        1.5454  -15.9310  -44.5812 H         1 UNK         0.0600 
    171 H171        0.6324  -16.0908  -41.6633 H         1 UNK         0.0600 
    172 H172       -0.3712  -16.1782  -43.1128 H         1 UNK         0.0600 
    173 H173        0.7327  -17.4860  -42.7268 H         1 UNK         0.0600 
    174 H174        1.0264  -13.9254  -42.6011 H         1 UNK         0.3000 
    175 H175        2.5562  -11.6225  -43.0018 H         1 UNK         0.0600 
    176 H176        1.6974  -11.1672  -45.9126 H         1 UNK         0.0600 
    177 H177        2.1193   -9.8971  -44.7649 H         1 UNK         0.0600 
    178 H178        3.3411  -11.0399  -45.2926 H         1 UNK         0.0600 
    179 H179       -0.1390  -12.3201  -43.9275 H         1 UNK         0.3000 
    180 H180       -1.6153  -10.4544  -41.3611 H         1 UNK         0.0600 
    181 H181       -3.0821   -9.2958  -42.9986 H         1 UNK         0.0600 
    182 H182       -1.8987   -9.5594  -44.2808 H         1 UNK         0.0600 
    183 H183       -1.5147   -8.5086  -42.9231 H         1 UNK         0.0600 
    184 H184       -2.7612  -11.7683  -43.6434 H         1 UNK         0.3000 
    185 H185       -2.3503  -15.0739  -42.5859 H         1 UNK         0.0600 
    186 H186       -4.8158  -15.2317  -42.4429 H         1 UNK         0.0600 
    187 H187       -4.1787  -14.4383  -41.0125 H         1 UNK         0.0600 
    188 H188       -4.9448  -13.4808  -42.2747 H         1 UNK         0.0600 
    189 H189       -4.0998  -14.2327  -44.5511 H         1 UNK         0.3000 
    190 H190       -1.6772  -19.2981  -43.8736 H         1 UNK         0.3000 
    191 H191       -3.1152  -16.8284  -43.8553 H         1 UNK         0.0600 
    192 H192       -4.1096  -17.7436  -41.7701 H         1 UNK         0.0600 
    193 H193       -2.3714  -17.9997  -41.7877 H         1 UNK         0.0600 
    194 H194       -3.4648  -19.3386  -42.1389 H         1 UNK         0.0600 
    195 H195       -3.8368  -19.8309  -45.3915 H         1 UNK         0.3000 
    196 H196       -6.6132  -18.9132  -46.0249 H         1 UNK         0.0600 
    197 H197       -5.4943  -21.7729  -45.9411 H         1 UNK         0.0600 
    198 H198       -6.5559  -21.0714  -44.7203 H         1 UNK         0.0600 
    199 H199       -7.1425  -21.3151  -46.3565 H         1 UNK         0.0600 
    200 H200       -3.7379  -18.4415  -47.1819 H         1 UNK         0.3000 
    201 H201       -2.5977  -18.3503  -49.0698 H         1 UNK         0.0600 
    202 H202       -3.8244  -17.6939  -51.1085 H         1 UNK         0.0600 
    203 H203       -4.5142  -16.8929  -49.7077 H         1 UNK         0.0600 
    204 H204       -5.3403  -18.2751  -50.4291 H         1 UNK         0.0600 
    205 H205       -2.8747  -20.9429  -48.0528 H         1 UNK         0.3000 
    206 H206       -2.3237  -23.0074  -48.4201 H         1 UNK         0.0600 
    207 H207       -0.6815  -22.1700  -50.1216 H         1 UNK         0.0600 
    208 H208       -1.2373  -23.7980  -50.4286 H         1 UNK         0.0600 
    209 H209       -1.8737  -22.4706  -51.3923 H         1 UNK         0.0600 
    210 H210       -5.1457  -21.8376  -49.0969 H         1 UNK         0.3000 
    211 H211       -7.1929  -22.5953  -49.3623 H         1 UNK         0.0600 
    212 H212       -7.6782  -24.8586  -48.3994 H         1 UNK         0.0600 
    213 H213       -6.5742  -23.9373  -47.3969 H         1 UNK         0.0600 
    214 H214       -5.9553  -25.2376  -48.4047 H         1 UNK         0.0600 
    215 H215       -6.6557  -25.8726  -50.2266 H         1 UNK         0.3000 
    216 H216       -7.9412  -25.6398  -52.7580 H         1 UNK         0.0600 
    217 H217       -6.3274  -27.9435  -51.5360 H         1 UNK         0.0600 
    218 H218       -7.3977  -28.0747  -52.9265 H         1 UNK         0.0600 
    219 H219       -8.0620  -27.6793  -51.3498 H         1 UNK         0.0600 
    220 H220       -4.5534  -25.3659  -51.8630 H         1 UNK         0.3000 
    221 H221       -3.5820  -25.8011  -54.6206 H         1 UNK         0.0600 
    222 H222       -2.3075  -26.7761  -52.7371 H         1 UNK         0.0600 
    223 H223       -2.0878  -25.1789  -52.0323 H         1 UNK         0.0600 
    224 H224       -1.3517  -25.5683  -53.5796 H         1 UNK         0.0600 
    225 H225       -5.1417  -23.2389  -53.2152 H         1 UNK         0.3000 
    226 H226       -3.5349  -21.0004  -53.7083 H         1 UNK         0.0600 
    227 H227       -6.5776  -21.2796  -53.9206 H         1 UNK         0.0600 
    228 H228       -5.6652  -20.8880  -52.4633 H         1 UNK         0.0600 
    229 H229       -5.7011  -19.7567  -53.8024 H         1 UNK         0.0600 
    230 H230       -5.4156  -22.9342  -55.9944 H         1 UNK         0.3000 
    231 H231       -5.2581  -21.1756  -58.2486 H         1 UNK         0.0600 
    232 H232       -5.6697  -24.2108  -58.0844 H         1 UNK         0.0600 
    233 H233       -5.9617  -23.2187  -59.5083 H         1 UNK         0.0600 
    234 H234       -6.9415  -22.9885  -58.0691 H         1 UNK         0.0600 
    235 H235       -2.9794  -23.4931  -56.8733 H         1 UNK         0.3000 
    236 H236       -1.2007  -23.4665  -59.2341 H         1 UNK         0.0600 
    237 H237       -0.8927  -24.7949  -56.4877 H         1 UNK         0.0600 
    238 H238       -1.4702  -25.5836  -57.9544 H         1 UNK         0.0600 
    239 H239        0.1829  -24.9959  -57.8634 H         1 UNK         0.0600 
    240 H240       -1.4133  -22.2191  -55.9018 H         1 UNK         0.3000 
    241 H241        1.0667  -20.8635  -55.8100 H         1 UNK         0.0600 
    242 H242       -1.5229  -18.1124  -57.5296 H         1 UNK         0.3800 
    243 H243       -2.2178  -19.5277  -56.7743 H         1 UNK         0.3800 
    244 H244       -1.4647  -20.1268  -54.2728 H         1 UNK         0.0800 
    245 H245       -0.4636  -21.4912  -53.8535 H         1 UNK         0.0800 
    246 H246       -1.4204  -18.9256  -52.1928 H         1 UNK         0.0800 
    247 H247       -0.5463  -20.1885  -51.3595 H         1 UNK         0.0800 
@<TRIPOS>BOND
     1    1    2 1    
     2    1  127 1    
     3    1  128 1    
     4    1  129 1    
     5    2    3 2    
     6    2    4 am   BACKBONE|DICT|INTERRES
     7    4    5 1    
     8    4  130 1    
     9    5    6 1    
    10    5   65 1    
    11    5  131 1    
    12    6    7 1    
    13    6  132 1    
    14    6  133 1    
    15    7    8 1    
    16    8    9 1    
    17    8  134 1    
    18    8  135 1    
    19    9   10 ar   
    20    9   14 ar   
    21   10   11 ar   
    22   10  136 1    
    23   11   12 ar   
    24   11  126 1    
    25   12   13 ar   
    26   12  137 1    
    27   13   14 ar   
    28   13   15 1    
    29   14  138 1    
    30   15   16 1    
    31   15  139 1    
    32   15  140 1    
    33   16   17 1    
    34   17   18 1    
    35   17  141 1    
    36   17  142 1    
    37   18   19 1    
    38   18   67 1    
    39   18  143 1    
    40   19   20 am   BACKBONE|DICT|INTERRES
    41   19  144 1    
    42   20   21 2    
    43   20   22 1    
    44   22   23 1    
    45   22   24 1    
    46   22  145 1    
    47   23  146 1    
    48   23  147 1    
    49   23  148 1    
    50   24   25 am   BACKBONE|DICT|INTERRES
    51   24  149 1    
    52   25   26 2    
    53   25   27 1    
    54   27   28 1    
    55   27   29 1    
    56   27  150 1    
    57   28  151 1    
    58   28  152 1    
    59   28  153 1    
    60   29   30 am   BACKBONE|DICT|INTERRES
    61   29  154 1    
    62   30   31 2    
    63   30   32 1    
    64   32   33 1    
    65   32   34 1    
    66   32  155 1    
    67   33  156 1    
    68   33  157 1    
    69   33  158 1    
    70   34   35 am   BACKBONE|DICT|INTERRES
    71   34  159 1    
    72   35   36 2    
    73   35   37 1    
    74   37   38 1    
    75   37   39 1    
    76   37  160 1    
    77   38  161 1    
    78   38  162 1    
    79   38  163 1    
    80   39   40 am   BACKBONE|DICT|INTERRES
    81   39  164 1    
    82   40   41 2    
    83   40   42 1    
    84   42   43 1    
    85   42   44 1    
    86   42  165 1    
    87   43  166 1    
    88   43  167 1    
    89   43  168 1    
    90   44   45 am   BACKBONE|DICT|INTERRES
    91   44  169 1    
    92   45   46 2    
    93   45   47 1    
    94   47   48 1    
    95   47   49 1    
    96   47  170 1    
    97   48  171 1    
    98   48  172 1    
    99   48  173 1    
   100   49   50 am   BACKBONE|DICT|INTERRES
   101   49  174 1    
   102   50   51 2    
   103   50   52 1    
   104   52   53 1    
   105   52   54 1    
   106   52  175 1    
   107   53  176 1    
   108   53  177 1    
   109   53  178 1    
   110   54   55 am   BACKBONE|DICT|INTERRES
   111   54  179 1    
   112   55   56 2    
   113   55   57 1    
   114   57   58 1    
   115   57   59 1    
   116   57  180 1    
   117   58  181 1    
   118   58  182 1    
   119   58  183 1    
   120   59   60 am   BACKBONE|DICT|INTERRES
   121   59  184 1    
   122   60   61 2    
   123   60   62 1    
   124   62   63 1    
   125   62   64 1    
   126   62  185 1    
   127   63  186 1    
   128   63  187 1    
   129   63  188 1    
   130   64   65 am   BACKBONE|DICT|INTERRES
   131   64  189 1    
   132   65   66 2    
   133   67   68 2    
   134   67   69 am   BACKBONE|DICT|INTERRES
   135   69   70 1    
   136   69  190 1    
   137   70   71 1    
   138   70   72 1    
   139   70  191 1    
   140   71  192 1    
   141   71  193 1    
   142   71  194 1    
   143   72   73 2    
   144   72   74 am   BACKBONE|DICT|INTERRES
   145   74   75 1    
   146   74  195 1    
   147   75   76 1    
   148   75   77 1    
   149   75  196 1    
   150   76  197 1    
   151   76  198 1    
   152   76  199 1    
   153   77   78 2    
   154   77   79 am   BACKBONE|DICT|INTERRES
   155   79   80 1    
   156   79  200 1    
   157   80   81 1    
   158   80   82 1    
   159   80  201 1    
   160   81  202 1    
   161   81  203 1    
   162   81  204 1    
   163   82   83 2    
   164   82   84 am   BACKBONE|DICT|INTERRES
   165   84   85 1    
   166   84  205 1    
   167   85   86 1    
   168   85   87 1    
   169   85  206 1    
   170   86  207 1    
   171   86  208 1    
   172   86  209 1    
   173   87   88 2    
   174   87   89 am   BACKBONE|DICT|INTERRES
   175   89   90 1    
   176   89  210 1    
   177   90   91 1    
   178   90   92 1    
   179   90  211 1    
   180   91  212 1    
   181   91  213 1    
   182   91  214 1    
   183   92   93 2    
   184   92   94 am   BACKBONE|DICT|INTERRES
   185   94   95 1    
   186   94  215 1    
   187   95   96 1    
   188   95   97 1    
   189   95  216 1    
   190   96  217 1    
   191   96  218 1    
   192   96  219 1    
   193   97   98 2    
   194   97   99 am   BACKBONE|DICT|INTERRES
   195   99  100 1    
   196   99  220 1    
   197  100  101 1    
   198  100  102 1    
   199  100  221 1    
   200  101  222 1    
   201  101  223 1    
   202  101  224 1    
   203  102  103 2    
   204  102  104 am   BACKBONE|DICT|INTERRES
   205  104  105 1    
   206  104  225 1    
   207  105  106 1    
   208  105  107 1    
   209  105  226 1    
   210  106  227 1    
   211  106  228 1    
   212  106  229 1    
   213  107  108 2    
   214  107  109 am   BACKBONE|DICT|INTERRES
   215  109  110 1    
   216  109  230 1    
   217  110  111 1    
   218  110  112 1    
   219  110  231 1    
   220  111  232 1    
   221  111  233 1    
   222  111  234 1    
   223  112  113 2    
   224  112  114 am   BACKBONE|DICT|INTERRES
   225  114  115 1    
   226  114  235 1    
   227  115  116 1    
   228  115  117 1    
   229  115  236 1    
   230  116  237 1    
   231  116  238 1    
   232  116  239 1    
   233  117  118 2    
   234  117  119 am   BACKBONE|DICT|INTERRES
   235  119  120 1    
   236  119  240 1    
   237  120  121 1    
   238  120  124 1    
   239  120  241 1    
   240  121  122 am   BACKBONE|DICT|INTERRES
   241  121  123 2    
   242  122  242 1    
   243  122  243 1    
   244  124  125 1    
   245  124  244 1    
   246  124  245 1    
   247  125  126 1    
   248  126  246 1    
   249  126  247 1    
@<TRIPOS>SUBSTRUCTURE
     1 UNK         1 GROUP             0       ****    0 ROOT    
