@<TRIPOS>MOLECULE
3R540
247   249    1
SMALL
USER_CHARGES


@<TRIPOS>ATOM
      1 CA          2.7831  -11.2175  -52.3442 C.3       0 UNK        -0.1800 
      2 C           2.6767  -12.3219  -51.3028 C.2       0 UNK         0.5000 
      3 O           3.3829  -13.3260  -51.3988 O.2       0 UNK        -0.5000 
      4 N           1.8039  -12.1413  -50.3035 N.am      1 UNK        -0.5000 
      5 CA          1.5443  -13.0833  -49.2081 C.3       1 UNK         0.1400 
      6 C6          0.1119  -12.8927  -48.6445 C.3       23 UNK        -0.0398 
      7 S7         -0.5404  -14.4059  -47.8608 S.3       23 UNK        -0.2404 
      8 C8         -1.6234  -15.0641  -49.1680 C.3       23 UNK        -0.0205 
      9 C9         -0.8213  -15.7283  -50.2747 C.ar      23 UNK        -0.0193 
     10 C10        -0.4501  -15.0093  -51.4137 C.ar      23 UNK        -0.1150 
     11 C11         0.2958  -15.6191  -52.4256 C.ar      23 UNK        -0.0193 
     12 C12         0.6723  -16.9587  -52.2900 C.ar      23 UNK        -0.1150 
     13 C13         0.3026  -17.6911  -51.1580 C.ar      23 UNK        -0.0193 
     14 C14        -0.4493  -17.0693  -50.1570 C.ar      23 UNK        -0.1150 
     15 C15         0.7210  -19.1487  -51.0212 C.3       23 UNK        -0.0205 
     16 S16         2.1409  -19.3380  -49.8945 S.3       23 UNK        -0.2404 
     17 C17         1.3054  -19.3408  -48.2705 C.3       23 UNK        -0.0398 
     18 CA          1.8871  -20.3332  -47.2332 C.3       11 UNK         0.1400 
     19 N           1.1961  -20.1731  -45.9543 N.am      11 UNK        -0.5000 
     20 C           1.5395  -20.7254  -44.7838 C.2       10 UNK         0.5000 
     21 O           2.4907  -21.4909  -44.6325 O.2       10 UNK        -0.5000 
     22 CA          0.6456  -20.3684  -43.5844 C.3       10 UNK         0.1400 
     23 CB          0.9550  -18.9536  -43.0689 C.3       10 UNK        -0.1800 
     24 N          -0.7657  -20.4664  -43.9614 N.am      10 UNK        -0.5000 
     25 C          -1.4842  -21.5932  -43.8560 C.2       9 UNK         0.5000 
     26 O          -1.0750  -22.5980  -43.2765 O.2       9 UNK        -0.5000 
     27 CA         -2.8796  -21.6304  -44.5120 C.3       9 UNK         0.1400 
     28 CB         -3.9969  -21.6447  -43.4595 C.3       9 UNK        -0.1800 
     29 N          -3.1250  -20.5362  -45.4539 N.am      9 UNK        -0.5000 
     30 C          -2.6042  -20.4671  -46.6866 C.2       8 UNK         0.5000 
     31 O          -1.8490  -21.3154  -47.1561 O.2       8 UNK        -0.5000 
     32 CA         -2.9121  -19.1983  -47.5033 C.3       8 UNK         0.1400 
     33 CB         -4.2557  -19.3232  -48.2354 C.3       8 UNK        -0.1800 
     34 N          -2.9065  -17.9792  -46.6915 N.am      8 UNK        -0.5000 
     35 C          -1.8651  -17.5530  -45.9634 C.2       7 UNK         0.5000 
     36 O          -0.7845  -18.1431  -45.9240 O.2       7 UNK        -0.5000 
     37 CA         -2.0560  -16.2889  -45.1095 C.3       7 UNK         0.1400 
     38 CB         -3.3095  -15.4577  -45.4661 C.3       7 UNK        -0.1800 
     39 N          -2.0284  -16.6023  -43.6812 N.am      7 UNK        -0.5000 
     40 C          -2.8877  -17.3615  -42.9858 C.2       6 UNK         0.5000 
     41 O          -3.8120  -17.9877  -43.5075 O.2       6 UNK        -0.5000 
     42 CA         -2.6955  -17.4426  -41.4532 C.3       6 UNK         0.1400 
     43 CB         -2.6398  -18.8994  -40.9655 C.3       6 UNK        -0.1800 
     44 N          -1.5041  -16.7452  -40.9644 N.am      6 UNK        -0.5000 
     45 C          -1.3950  -15.4270  -40.7510 C.2       5 UNK         0.5000 
     46 O          -2.3118  -14.6251  -40.9342 O.2       5 UNK        -0.5000 
     47 CA         -0.0209  -14.9095  -40.2691 C.3       5 UNK         0.1400 
     48 CB          0.9010  -16.0186  -39.7119 C.3       5 UNK        -0.1800 
     49 N           0.6966  -14.1458  -41.2973 N.am      5 UNK        -0.5000 
     50 C           0.9806  -14.5392  -42.5484 C.2       4 UNK         0.5000 
     51 O           0.5571  -15.5850  -43.0434 O.2       4 UNK        -0.5000 
     52 CA          1.8836  -13.6144  -43.3986 C.3       4 UNK         0.1400 
     53 CB          2.7992  -12.6956  -42.5601 C.3       4 UNK        -0.1800 
     54 N           2.6800  -14.3618  -44.3785 N.am      4 UNK        -0.5000 
     55 C           3.5316  -15.3728  -44.1325 C.2       3 UNK         0.5000 
     56 O           3.8284  -15.7739  -43.0060 O.2       3 UNK        -0.5000 
     57 CA          4.1705  -16.0557  -45.3584 C.3       3 UNK         0.1400 
     58 CB          3.3153  -17.2521  -45.8027 C.3       3 UNK        -0.1800 
     59 N           4.3486  -15.1523  -46.4952 N.am      3 UNK        -0.5000 
     60 C           5.1796  -14.1009  -46.5165 C.2       2 UNK         0.5000 
     61 O           5.9628  -13.8316  -45.6049 O.2       2 UNK        -0.5000 
     62 CA          5.1233  -13.1854  -47.7559 C.3       2 UNK         0.1400 
     63 CB          6.3227  -13.4529  -48.6780 C.3       2 UNK        -0.1800 
     64 N           3.8928  -13.2929  -48.5459 N.am      2 UNK        -0.5000 
     65 C           2.6524  -13.0025  -48.1313 C.2       1 UNK         0.5000 
     66 O           2.3863  -12.6700  -46.9746 O.2       1 UNK        -0.5000 
     67 C           1.8662  -21.7936  -47.7346 C.2       11 UNK         0.5000 
     68 O           2.9265  -22.3617  -48.0013 O.2       11 UNK        -0.5000 
     69 N           0.6640  -22.3697  -47.8553 N.am      12 UNK        -0.5000 
     70 CA          0.4321  -23.6920  -48.4398 C.3       12 UNK         0.1400 
     71 CB         -0.8029  -23.6039  -49.3469 C.3       12 UNK        -0.1800 
     72 C           0.2601  -24.7921  -47.3780 C.2       12 UNK         0.5000 
     73 O          -0.0023  -25.9402  -47.7407 O.2       12 UNK        -0.5000 
     74 N           0.3966  -24.4335  -46.0929 N.am      13 UNK        -0.5000 
     75 CA          0.2539  -25.3005  -44.9211 C.3       13 UNK         0.1400 
     76 CB          1.4500  -26.2757  -44.8304 C.3       13 UNK        -0.1800 
     77 C          -1.1312  -25.9834  -44.8930 C.2       13 UNK         0.5000 
     78 O          -2.1454  -25.2895  -44.9773 O.2       13 UNK        -0.5000 
     79 N          -1.1558  -27.3201  -44.8102 N.am      14 UNK        -0.5000 
     80 CA         -2.3631  -28.1469  -44.7638 C.3       14 UNK         0.1400 
     81 CB         -1.9580  -29.5955  -44.4502 C.3       14 UNK        -0.1800 
     82 C          -3.2293  -28.0949  -46.0392 C.2       14 UNK         0.5000 
     83 O          -4.4247  -28.3802  -45.9554 O.2       14 UNK        -0.5000 
     84 N          -2.6354  -27.7363  -47.1886 N.am      15 UNK        -0.5000 
     85 CA         -3.3565  -27.5632  -48.4539 C.3       15 UNK         0.1400 
     86 CB         -2.3622  -27.6084  -49.6230 C.3       15 UNK        -0.1800 
     87 C          -4.1876  -26.2650  -48.4823 C.2       15 UNK         0.5000 
     88 O          -5.2220  -26.2277  -49.1501 O.2       15 UNK        -0.5000 
     89 N          -3.7284  -25.2504  -47.7326 N.am      16 UNK        -0.5000 
     90 CA         -4.3622  -23.9629  -47.4423 C.3       16 UNK         0.1400 
     91 CB         -5.3166  -24.1264  -46.2399 C.3       16 UNK        -0.1800 
     92 C          -5.0168  -23.2857  -48.6645 C.2       16 UNK         0.5000 
     93 O          -4.3102  -22.7729  -49.5342 O.2       16 UNK        -0.5000 
     94 N          -6.3558  -23.3178  -48.7139 N.am      17 UNK        -0.5000 
     95 CA         -7.2120  -22.7193  -49.7384 C.3       17 UNK         0.1400 
     96 CB         -8.6800  -22.9411  -49.3442 C.3       17 UNK        -0.1800 
     97 C          -6.9613  -23.2117  -51.1772 C.2       17 UNK         0.5000 
     98 O          -7.3658  -22.5218  -52.1126 O.2       17 UNK        -0.5000 
     99 N          -6.2720  -24.3503  -51.3482 N.am      18 UNK        -0.5000 
    100 CA        -5.8371  -24.8793  -52.6448 C.3       18 UNK         0.1400 
    101 CB        -5.1609  -26.2411  -52.4338 C.3       18 UNK        -0.1800 
    102 C         -4.8955  -23.9334  -53.4207 C.2       18 UNK         0.5000 
    103 O         -4.8873  -23.9723  -54.6516 O.2       18 UNK        -0.5000 
    104 N         -4.1432  -23.0867  -52.7008 N.am      19 UNK        -0.5000 
    105 CA        -3.2980  -22.0402  -53.2825 C.3       19 UNK         0.1400 
    106 CB        -2.1808  -21.6897  -52.2895 C.3       19 UNK        -0.1800 
    107 C         -4.0818  -20.7739  -53.6813 C.2       19 UNK         0.5000 
    108 O         -3.5223  -19.9182  -54.3689 O.2       19 UNK        -0.5000 
    109 N         -5.3384  -20.6534  -53.2201 N.am      20 UNK        -0.5000 
    110 CA        -6.3012  -19.5753  -53.4884 C.3       20 UNK         0.1400 
    111 CB        -6.7814  -19.6586  -54.9517 C.3       20 UNK        -0.1800 
    112 C         -5.8006  -18.1606  -53.1200 C.2       20 UNK         0.5000 
    113 O         -6.2656  -17.1783  -53.7023 O.2       20 UNK        -0.5000 
    114 N         -4.8240  -18.0850  -52.1996 N.am      21 UNK        -0.5000 
    115 CA        -4.0541  -16.8909  -51.8232 C.3       21 UNK         0.1400 
    116 CB        -4.9189  -15.9511  -50.9580 C.3       21 UNK        -0.1800 
    117 C         -3.4188  -16.1794  -53.0429 C.2       21 UNK         0.5000 
    118 O         -3.4019  -14.9494  -53.0926 O.2       21 UNK        -0.5000 
    119 N         -2.9807  -16.9873  -54.0219 N.am      22 UNK        -0.5000 
    120 CA        -2.5230  -16.6204  -55.3730 C.3       22 UNK         0.1400 
    121 C         -3.5203  -15.7932  -56.2450 C.2       22 UNK         0.5000 
    122 N         -4.8077  -15.7436  -55.9201 N.am      22 UNK        -0.7600 
    123 O         -3.1374  -15.2268  -57.2655 O.2       22 UNK        -0.5000 
    124 C124       -1.0398  -16.1514  -55.4445 C.3       23 UNK        -0.0398 
    125 S125       -0.6763  -14.4881  -54.7797 S.3       23 UNK        -0.2404 
    126 C126        0.7146  -14.8214  -53.6520 C.3       23 UNK        -0.0205 
    127 H127        2.5571  -11.6131  -53.3344 H         1 UNK         0.0600 
    128 H128        3.7954  -10.8138  -52.3600 H         1 UNK         0.0600 
    129 H129        2.0927  -10.3989  -52.1396 H         1 UNK         0.0600 
    130 H130        1.2854  -11.2753  -50.2619 H         1 UNK         0.3000 
    131 H131        1.6000  -14.0896  -49.6291 H         1 UNK         0.0600 
    132 H132        0.0662  -12.0702  -47.9287 H         1 UNK         0.0800 
    133 H133       -0.5710  -12.6075  -49.4452 H         1 UNK         0.0800 
    134 H134       -2.3057  -15.7925  -48.7283 H         1 UNK         0.0800 
    135 H135       -2.2514  -14.2681  -49.5704 H         1 UNK         0.0800 
    136 H136       -0.7410  -13.9737  -51.5177 H         1 UNK         0.1150 
    137 H137        1.2586  -17.4315  -53.0651 H         1 UNK         0.1150 
    138 H138       -0.7338  -17.6191  -49.2740 H         1 UNK         0.1150 
    139 H139       -0.1210  -19.7544  -50.6831 H         1 UNK         0.0800 
    140 H140        1.0012  -19.5490  -51.9967 H         1 UNK         0.0800 
    141 H141        1.3548  -18.3240  -47.8792 H         1 UNK         0.0800 
    142 H142        0.2453  -19.5519  -48.4096 H         1 UNK         0.0800 
    143 H143        2.9325  -20.0667  -47.0663 H         1 UNK         0.0600 
    144 H144        0.4183  -19.5174  -45.9575 H         1 UNK         0.3000 
    145 H145        0.8678  -21.0684  -42.7760 H         1 UNK         0.0600 
    146 H146        2.0009  -18.8663  -42.7723 H         1 UNK         0.0600 
    147 H147        0.7696  -18.1903  -43.8241 H         1 UNK         0.0600 
    148 H148        0.3518  -18.7110  -42.1958 H         1 UNK         0.0600 
    149 H149       -1.1499  -19.6881  -44.4809 H         1 UNK         0.3000 
    150 H150       -2.9307  -22.5747  -45.0552 H         1 UNK         0.0600 
    151 H151       -3.8293  -22.4236  -42.7145 H         1 UNK         0.0600 
    152 H152       -4.9652  -21.8406  -43.9197 H         1 UNK         0.0600 
    153 H153       -4.0662  -20.6932  -42.9362 H         1 UNK         0.0600 
    154 H154       -3.6800  -19.7612  -45.1125 H         1 UNK         0.3000 
    155 H155       -2.1307  -19.1000  -48.2567 H         1 UNK         0.0600 
    156 H156       -4.4518  -18.4463  -48.8518 H         1 UNK         0.0600 
    157 H157       -5.0874  -19.4388  -47.5393 H         1 UNK         0.0600 
    158 H158       -4.2579  -20.1879  -48.8989 H         1 UNK         0.0600 
    159 H159       -3.7714  -17.4611  -46.6399 H         1 UNK         0.3000 
    160 H160       -1.1811  -15.6650  -45.2930 H         1 UNK         0.0600 
    161 H161       -4.2381  -15.9941  -45.2700 H         1 UNK         0.0600 
    162 H162       -3.3075  -15.1701  -46.5177 H         1 UNK         0.0600 
    163 H163       -3.3363  -14.5355  -44.8856 H         1 UNK         0.0600 
    164 H164       -1.2293  -16.2120  -43.1880 H         1 UNK         0.3000 
    165 H165       -3.5728  -16.9754  -41.0013 H         1 UNK         0.0600 
    166 H166       -1.8648  -19.4713  -41.4754 H         1 UNK         0.0600 
    167 H167       -2.4450  -18.9515  -39.8941 H         1 UNK         0.0600 
    168 H168       -3.5918  -19.4007  -41.1361 H         1 UNK         0.0600 
    169 H169       -0.6838  -17.3139  -40.8155 H         1 UNK         0.3000 
    170 H170       -0.2287  -14.2157  -39.4532 H         1 UNK         0.0600 
    171 H171        0.4049  -16.5894  -38.9258 H         1 UNK         0.0600 
    172 H172        1.2215  -16.7176  -40.4856 H         1 UNK         0.0600 
    173 H173        1.8005  -15.5876  -39.2722 H         1 UNK         0.0600 
    174 H174        1.0540  -13.2507  -40.9957 H         1 UNK         0.3000 
    175 H175        1.2117  -12.9801  -43.9783 H         1 UNK         0.0600 
    176 H176        3.4284  -13.2656  -41.8753 H         1 UNK         0.0600 
    177 H177        3.4570  -12.1102  -43.2030 H         1 UNK         0.0600 
    178 H178        2.2204  -11.9847  -41.9698 H         1 UNK         0.0600 
    179 H179        2.5289  -14.0929  -45.3434 H         1 UNK         0.3000 
    180 H180        5.1544  -16.4257  -45.0625 H         1 UNK         0.0600 
    181 H181        2.3031  -16.9457  -46.0715 H         1 UNK         0.0600 
    182 H182        3.2311  -17.9872  -45.0017 H         1 UNK         0.0600 
    183 H183        3.7568  -17.7567  -46.6620 H         1 UNK         0.0600 
    184 H184        3.7520  -15.3011  -47.2949 H         1 UNK         0.3000 
    185 H185        5.1915  -12.1568  -47.3962 H         1 UNK         0.0600 
    186 H186        6.3459  -12.7486  -49.5099 H         1 UNK         0.0600 
    187 H187        7.2647  -13.3474  -48.1382 H         1 UNK         0.0600 
    188 H188        6.2921  -14.4613  -49.0927 H         1 UNK         0.0600 
    189 H189        4.0046  -13.5231  -49.5290 H         1 UNK         0.3000 
    190 H190       -0.1751  -21.8612  -47.5795 H         1 UNK         0.3000 
    191 H191        1.2810  -23.9781  -49.0639 H         1 UNK         0.0600 
    192 H192       -0.9322  -24.5129  -49.9340 H         1 UNK         0.0600 
    193 H193       -0.7045  -22.7744  -50.0442 H         1 UNK         0.0600 
    194 H194       -1.7154  -23.4469  -48.7740 H         1 UNK         0.0600 
    195 H195        0.5859  -23.4607  -45.9014 H         1 UNK         0.3000 
    196 H196        0.2964  -24.6546  -44.0447 H         1 UNK         0.0600 
    197 H197        1.4164  -26.8592  -43.9095 H         1 UNK         0.0600 
    198 H198        2.3933  -25.7293  -44.8237 H         1 UNK         0.0600 
    199 H199        1.4818  -26.9718  -45.6694 H         1 UNK         0.0600 
    200 H200       -0.2748  -27.8120  -44.7761 H         1 UNK         0.3000 
    201 H201       -2.9812  -27.7807  -43.9414 H         1 UNK         0.0600 
    202 H202       -1.4263  -29.6609  -43.5008 H         1 UNK         0.0600 
    203 H203       -1.3136  -30.0094  -45.2268 H         1 UNK         0.0600 
    204 H204       -2.8350  -30.2398  -44.3738 H         1 UNK         0.0600 
    205 H205       -1.6526  -27.4926  -47.1836 H         1 UNK         0.3000 
    206 H206       -4.0478  -28.4002  -48.5737 H         1 UNK         0.0600 
    207 H207       -1.7591  -28.5160  -49.5941 H         1 UNK         0.0600 
    208 H208       -2.8856  -27.6001  -50.5788 H         1 UNK         0.0600 
    209 H209       -1.6848  -26.7556  -49.6130 H         1 UNK         0.0600 
    210 H210       -2.8776  -25.4216  -47.2134 H         1 UNK         0.3000 
    211 H211       -3.5571  -23.2999  -47.1345 H         1 UNK         0.0600 
    212 H212       -6.0958  -24.8649  -46.4321 H         1 UNK         0.0600 
    213 H213       -5.7987  -23.1821  -45.9835 H         1 UNK         0.0600 
    214 H214       -4.7709  -24.4542  -45.3549 H         1 UNK         0.0600 
    215 H215       -6.8361  -23.8051  -47.9718 H         1 UNK         0.3000 
    216 H216       -7.0158  -21.6453  -49.7338 H         1 UNK         0.0600 
    217 H217       -9.3548  -22.4777  -50.0654 H         1 UNK         0.0600 
    218 H218       -8.8989  -22.5022  -48.3705 H         1 UNK         0.0600 
    219 H219       -8.9267  -24.0026  -49.2988 H         1 UNK         0.0600 
    220 H220       -5.9714  -24.8654  -50.5264 H         1 UNK         0.3000 
    221 H221       -6.7295  -25.0297  -53.2556 H         1 UNK         0.0600 
    222 H222       -4.2537  -26.1426  -51.8378 H         1 UNK         0.0600 
    223 H223       -5.8248  -26.9400  -51.9245 H         1 UNK         0.0600 
    224 H224       -4.8812  -26.6920  -53.3867 H         1 UNK         0.0600 
    225 H225       -4.2031  -23.1143  -51.6884 H         1 UNK         0.3000 
    226 H226       -2.8287  -22.4238  -54.1908 H         1 UNK         0.0600 
    227 H227       -1.5287  -22.5485  -52.1376 H         1 UNK         0.0600 
    228 H228       -1.5571  -20.8765  -52.6632 H         1 UNK         0.0600 
    229 H229       -2.5774  -21.3848  -51.3201 H         1 UNK         0.0600 
    230 H230       -5.7206  -21.4284  -52.6908 H         1 UNK         0.3000 
    231 H231       -7.1612  -19.7668  -52.8455 H         1 UNK         0.0600 
    232 H232       -7.6019  -18.9649  -55.1386 H         1 UNK         0.0600 
    233 H233       -7.1452  -20.6584  -55.1892 H         1 UNK         0.0600 
    234 H234       -5.9813  -19.4172  -55.6524 H         1 UNK         0.0600 
    235 H235       -4.5091  -18.9550  -51.7962 H         1 UNK         0.3000 
    236 H236       -3.2241  -17.2395  -51.2079 H         1 UNK         0.0600 
    237 H237       -5.3234  -16.4717  -50.0905 H         1 UNK         0.0600 
    238 H238       -4.3349  -15.1090  -50.5869 H         1 UNK         0.0600 
    239 H239       -5.7569  -15.5420  -51.5232 H         1 UNK         0.0600 
    240 H240       -3.1062  -17.9860  -53.8938 H         1 UNK         0.3000 
    241 H241       -2.5271  -17.5829  -55.8858 H         1 UNK         0.0600 
    242 H242       -5.1619  -16.2108  -55.0922 H         1 UNK         0.3800 
    243 H243       -5.4412  -15.2191  -56.5017 H         1 UNK         0.3800 
    244 H244       -0.4141  -16.8874  -54.9403 H         1 UNK         0.0800 
    245 H245       -0.7038  -16.1637  -56.4824 H         1 UNK         0.0800 
    246 H246        1.5099  -15.3322  -54.1969 H         1 UNK         0.0800 
    247 H247        1.1337  -13.8687  -53.3293 H         1 UNK         0.0800 
@<TRIPOS>BOND
     1    1    2 1    
     2    1  127 1    
     3    1  128 1    
     4    1  129 1    
     5    2    3 2    
     6    2    4 am   BACKBONE|DICT|INTERRES
     7    4    5 1    
     8    4  130 1    
     9    5    6 1    
    10    5   65 1    
    11    5  131 1    
    12    6    7 1    
    13    6  132 1    
    14    6  133 1    
    15    7    8 1    
    16    8    9 1    
    17    8  134 1    
    18    8  135 1    
    19    9   10 ar   
    20    9   14 ar   
    21   10   11 ar   
    22   10  136 1    
    23   11   12 ar   
    24   11  126 1    
    25   12   13 ar   
    26   12  137 1    
    27   13   14 ar   
    28   13   15 1    
    29   14  138 1    
    30   15   16 1    
    31   15  139 1    
    32   15  140 1    
    33   16   17 1    
    34   17   18 1    
    35   17  141 1    
    36   17  142 1    
    37   18   19 1    
    38   18   67 1    
    39   18  143 1    
    40   19   20 am   BACKBONE|DICT|INTERRES
    41   19  144 1    
    42   20   21 2    
    43   20   22 1    
    44   22   23 1    
    45   22   24 1    
    46   22  145 1    
    47   23  146 1    
    48   23  147 1    
    49   23  148 1    
    50   24   25 am   BACKBONE|DICT|INTERRES
    51   24  149 1    
    52   25   26 2    
    53   25   27 1    
    54   27   28 1    
    55   27   29 1    
    56   27  150 1    
    57   28  151 1    
    58   28  152 1    
    59   28  153 1    
    60   29   30 am   BACKBONE|DICT|INTERRES
    61   29  154 1    
    62   30   31 2    
    63   30   32 1    
    64   32   33 1    
    65   32   34 1    
    66   32  155 1    
    67   33  156 1    
    68   33  157 1    
    69   33  158 1    
    70   34   35 am   BACKBONE|DICT|INTERRES
    71   34  159 1    
    72   35   36 2    
    73   35   37 1    
    74   37   38 1    
    75   37   39 1    
    76   37  160 1    
    77   38  161 1    
    78   38  162 1    
    79   38  163 1    
    80   39   40 am   BACKBONE|DICT|INTERRES
    81   39  164 1    
    82   40   41 2    
    83   40   42 1    
    84   42   43 1    
    85   42   44 1    
    86   42  165 1    
    87   43  166 1    
    88   43  167 1    
    89   43  168 1    
    90   44   45 am   BACKBONE|DICT|INTERRES
    91   44  169 1    
    92   45   46 2    
    93   45   47 1    
    94   47   48 1    
    95   47   49 1    
    96   47  170 1    
    97   48  171 1    
    98   48  172 1    
    99   48  173 1    
   100   49   50 am   BACKBONE|DICT|INTERRES
   101   49  174 1    
   102   50   51 2    
   103   50   52 1    
   104   52   53 1    
   105   52   54 1    
   106   52  175 1    
   107   53  176 1    
   108   53  177 1    
   109   53  178 1    
   110   54   55 am   BACKBONE|DICT|INTERRES
   111   54  179 1    
   112   55   56 2    
   113   55   57 1    
   114   57   58 1    
   115   57   59 1    
   116   57  180 1    
   117   58  181 1    
   118   58  182 1    
   119   58  183 1    
   120   59   60 am   BACKBONE|DICT|INTERRES
   121   59  184 1    
   122   60   61 2    
   123   60   62 1    
   124   62   63 1    
   125   62   64 1    
   126   62  185 1    
   127   63  186 1    
   128   63  187 1    
   129   63  188 1    
   130   64   65 am   BACKBONE|DICT|INTERRES
   131   64  189 1    
   132   65   66 2    
   133   67   68 2    
   134   67   69 am   BACKBONE|DICT|INTERRES
   135   69   70 1    
   136   69  190 1    
   137   70   71 1    
   138   70   72 1    
   139   70  191 1    
   140   71  192 1    
   141   71  193 1    
   142   71  194 1    
   143   72   73 2    
   144   72   74 am   BACKBONE|DICT|INTERRES
   145   74   75 1    
   146   74  195 1    
   147   75   76 1    
   148   75   77 1    
   149   75  196 1    
   150   76  197 1    
   151   76  198 1    
   152   76  199 1    
   153   77   78 2    
   154   77   79 am   BACKBONE|DICT|INTERRES
   155   79   80 1    
   156   79  200 1    
   157   80   81 1    
   158   80   82 1    
   159   80  201 1    
   160   81  202 1    
   161   81  203 1    
   162   81  204 1    
   163   82   83 2    
   164   82   84 am   BACKBONE|DICT|INTERRES
   165   84   85 1    
   166   84  205 1    
   167   85   86 1    
   168   85   87 1    
   169   85  206 1    
   170   86  207 1    
   171   86  208 1    
   172   86  209 1    
   173   87   88 2    
   174   87   89 am   BACKBONE|DICT|INTERRES
   175   89   90 1    
   176   89  210 1    
   177   90   91 1    
   178   90   92 1    
   179   90  211 1    
   180   91  212 1    
   181   91  213 1    
   182   91  214 1    
   183   92   93 2    
   184   92   94 am   BACKBONE|DICT|INTERRES
   185   94   95 1    
   186   94  215 1    
   187   95   96 1    
   188   95   97 1    
   189   95  216 1    
   190   96  217 1    
   191   96  218 1    
   192   96  219 1    
   193   97   98 2    
   194   97   99 am   BACKBONE|DICT|INTERRES
   195   99  100 1    
   196   99  220 1    
   197  100  101 1    
   198  100  102 1    
   199  100  221 1    
   200  101  222 1    
   201  101  223 1    
   202  101  224 1    
   203  102  103 2    
   204  102  104 am   BACKBONE|DICT|INTERRES
   205  104  105 1    
   206  104  225 1    
   207  105  106 1    
   208  105  107 1    
   209  105  226 1    
   210  106  227 1    
   211  106  228 1    
   212  106  229 1    
   213  107  108 2    
   214  107  109 am   BACKBONE|DICT|INTERRES
   215  109  110 1    
   216  109  230 1    
   217  110  111 1    
   218  110  112 1    
   219  110  231 1    
   220  111  232 1    
   221  111  233 1    
   222  111  234 1    
   223  112  113 2    
   224  112  114 am   BACKBONE|DICT|INTERRES
   225  114  115 1    
   226  114  235 1    
   227  115  116 1    
   228  115  117 1    
   229  115  236 1    
   230  116  237 1    
   231  116  238 1    
   232  116  239 1    
   233  117  118 2    
   234  117  119 am   BACKBONE|DICT|INTERRES
   235  119  120 1    
   236  119  240 1    
   237  120  121 1    
   238  120  124 1    
   239  120  241 1    
   240  121  122 am   BACKBONE|DICT|INTERRES
   241  121  123 2    
   242  122  242 1    
   243  122  243 1    
   244  124  125 1    
   245  124  244 1    
   246  124  245 1    
   247  125  126 1    
   248  126  246 1    
   249  126  247 1    
@<TRIPOS>SUBSTRUCTURE
     1 UNK         1 GROUP             0       ****    0 ROOT    
