@<TRIPOS>MOLECULE
3R540
247   249    1
SMALL
USER_CHARGES


@<TRIPOS>ATOM
      1 CA          5.9968  -16.3134  -46.6700 C.3       0 UNK        -0.1800 
      2 C           6.4956  -15.6650  -47.9618 C.2       0 UNK         0.5000 
      3 O           7.6367  -15.9023  -48.3532 O.2       0 UNK        -0.5000 
      4 N           5.6870  -14.8601  -48.6650 N.am      1 UNK        -0.5000 
      5 CA          4.3437  -14.4131  -48.2853 C.3       1 UNK         0.1400 
      6 C6          3.5549  -13.8524  -49.4943 C.3       23 UNK        -0.0398 
      7 S7          3.0266  -15.1740  -50.6346 S.3       23 UNK        -0.2404 
      8 C8          1.4802  -15.6559  -49.8067 C.3       23 UNK        -0.0205 
      9 C9          0.7863  -16.8347  -50.4705 C.ar      23 UNK        -0.0193 
     10 C10        -0.4990  -16.6842  -50.9949 C.ar      23 UNK        -0.1150 
     11 C11        -1.1705  -17.7724  -51.5585 C.ar      23 UNK        -0.0193 
     12 C12        -0.5529  -19.0264  -51.5698 C.ar      23 UNK        -0.1150 
     13 C13         0.7288  -19.2003  -51.0370 C.ar      23 UNK        -0.0193 
     14 C14         1.3995  -18.0902  -50.5059 C.ar      23 UNK        -0.1150 
     15 C15         1.3483  -20.5994  -51.0567 C.3       23 UNK        -0.0205 
     16 S16         2.5681  -20.9525  -49.7386 S.3       23 UNK        -0.2404 
     17 C17         1.6391  -20.5601  -48.2163 C.3       23 UNK        -0.0398 
     18 CA          1.0444  -21.7874  -47.4890 C.3       11 UNK         0.1400 
     19 N           0.6486  -21.4462  -46.1205 N.am      11 UNK        -0.5000 
     20 C           0.2044  -22.3081  -45.1957 C.2       10 UNK         0.5000 
     21 O           0.1248  -23.5229  -45.3724 O.2       10 UNK        -0.5000 
     22 CA         -0.2839  -21.7023  -43.8661 C.3       10 UNK         0.1400 
     23 CB          0.8992  -21.3600  -42.9489 C.3       10 UNK        -0.1800 
     24 N          -1.1144  -20.5128  -44.0642 N.am      10 UNK        -0.5000 
     25 C          -2.2918  -20.5108  -44.7067 C.2       9 UNK         0.5000 
     26 O          -2.8293  -21.5221  -45.1560 O.2       9 UNK        -0.5000 
     27 CA         -2.9527  -19.1419  -44.9372 C.3       9 UNK         0.1400 
     28 CB         -3.7019  -18.6684  -43.6824 C.3       9 UNK        -0.1800 
     29 N          -1.9799  -18.1299  -45.3477 N.am      9 UNK        -0.5000 
     30 C          -1.3372  -18.1362  -46.5245 C.2       8 UNK         0.5000 
     31 O          -1.5199  -18.9803  -47.4007 O.2       8 UNK        -0.5000 
     32 CA         -0.2724  -17.0446  -46.7314 C.3       8 UNK         0.1400 
     33 CB         -0.9226  -15.7243  -47.1734 C.3       8 UNK        -0.1800 
     34 N           0.5302  -16.8117  -45.5296 N.am      8 UNK        -0.5000 
     35 C           1.3579  -17.7154  -44.9846 C.2       7 UNK         0.5000 
     36 O           1.5793  -18.8202  -45.4741 O.2       7 UNK        -0.5000 
     37 CA          2.0030  -17.3430  -43.6398 C.3       7 UNK         0.1400 
     38 CB          3.3539  -16.6500  -43.8603 C.3       7 UNK        -0.1800 
     39 N           1.1320  -16.4954  -42.8231 N.am      7 UNK        -0.5000 
     40 C          -0.0118  -16.9205  -42.2639 C.2       6 UNK         0.5000 
     41 O          -0.4496  -18.0616  -42.4256 O.2       6 UNK        -0.5000 
     42 CA         -0.8249  -15.9024  -41.4362 C.3       6 UNK         0.1400 
     43 CB         -1.5791  -16.5593  -40.2620 C.3       6 UNK        -0.1800 
     44 N          -0.0437  -14.7438  -40.9897 N.am      6 UNK        -0.5000 
     45 C           0.9865  -14.7220  -40.1278 C.2       5 UNK         0.5000 
     46 O           1.3898  -15.7137  -39.5196 O.2       5 UNK        -0.5000 
     47 CA          1.7137  -13.3746  -39.9318 C.3       5 UNK         0.1400 
     48 CB          3.2160  -13.5191  -40.2312 C.3       5 UNK        -0.1800 
     49 N           1.1694  -12.3262  -40.7972 N.am      5 UNK        -0.5000 
     50 C           0.2542  -11.4171  -40.4342 C.2       4 UNK         0.5000 
     51 O          -0.1893  -11.3128  -39.2903 O.2       4 UNK        -0.5000 
     52 CA         -0.2743  -10.4776  -41.5393 C.3       4 UNK         0.1400 
     53 CB          0.4709   -9.1347  -41.5015 C.3       4 UNK        -0.1800 
     54 N          -0.1698  -11.0402  -42.8893 N.am      4 UNK        -0.5000 
     55 C          -0.8495  -12.1068  -43.3342 C.2       3 UNK         0.5000 
     56 O          -1.6748  -12.7204  -42.6587 O.2       3 UNK        -0.5000 
     57 CA         -0.4897  -12.6242  -44.7409 C.3       3 UNK         0.1400 
     58 CB         -1.3866  -11.9794  -45.8069 C.3       3 UNK        -0.1800 
     59 N           0.9185  -12.4241  -45.1029 N.am      3 UNK        -0.5000 
     60 C           1.9589  -12.9395  -44.4355 C.2       2 UNK         0.5000 
     61 O           1.8362  -13.6629  -43.4447 O.2       2 UNK        -0.5000 
     62 CA          3.3470  -12.6487  -45.0180 C.3       2 UNK         0.1400 
     63 CB          4.4822  -12.8796  -43.9994 C.3       2 UNK        -0.1800 
     64 N           3.5042  -13.5112  -46.1827 N.am      2 UNK        -0.5000 
     65 C           4.4103  -13.3680  -47.1547 C.2       1 UNK         0.5000 
     66 O           5.2497  -12.4661  -47.1948 O.2       1 UNK        -0.5000 
     67 C          -0.1246  -22.4082  -48.2799 C.2       11 UNK         0.5000 
     68 O           0.0484  -23.4690  -48.8797 O.2       11 UNK        -0.5000 
     69 N          -1.3009  -21.7642  -48.2337 N.am      12 UNK        -0.5000 
     70 CA         -2.5312  -22.2510  -48.8571 C.3       12 UNK         0.1400 
     71 CB         -3.6411  -21.1991  -48.7196 C.3       12 UNK        -0.1800 
     72 C          -2.9853  -23.6085  -48.2932 C.2       12 UNK         0.5000 
     73 O          -3.3401  -24.4920  -49.0726 O.2       12 UNK        -0.5000 
     74 N          -2.9300  -23.7683  -46.9633 N.am      13 UNK        -0.5000 
     75 CA         -3.2289  -25.0169  -46.2607 C.3       13 UNK         0.1400 
     76 CB         -3.2262  -24.7786  -44.7436 C.3       13 UNK        -0.1800 
     77 C          -2.2691  -26.1578  -46.6429 C.2       13 UNK         0.5000 
     78 O          -2.7343  -27.2526  -46.9623 O.2       13 UNK        -0.5000 
     79 N          -0.9591  -25.8692  -46.6617 N.am      14 UNK        -0.5000 
     80 CA          0.1015  -26.7931  -47.0792 C.3       14 UNK         0.1400 
     81 CB          1.4720  -26.1529  -46.8130 C.3       14 UNK        -0.1800 
     82 C          -0.0144  -27.2315  -48.5523 C.2       14 UNK         0.5000 
     83 O           0.3307  -28.3669  -48.8796 O.2       14 UNK        -0.5000 
     84 N          -0.5501  -26.3444  -49.3994 N.am      15 UNK        -0.5000 
     85 CA         -0.8902  -26.5856  -50.8018 C.3       15 UNK         0.1400 
     86 CB         -0.8309  -25.2441  -51.5509 C.3       15 UNK        -0.1800 
     87 C          -2.2473  -27.3049  -50.9979 C.2       15 UNK         0.5000 
     88 O          -2.7584  -27.3223  -52.1179 O.2       15 UNK        -0.5000 
     89 N          -2.7951  -27.8993  -49.9265 N.am      16 UNK        -0.5000 
     90 CA         -4.0407  -28.6692  -49.8576 C.3       16 UNK         0.1400 
     91 CB         -4.0137  -29.8886  -50.8044 C.3       16 UNK        -0.1800 
     92 C          -5.2879  -27.7812  -50.0232 C.2       16 UNK         0.5000 
     93 O          -6.1629  -28.0761  -50.8395 O.2       16 UNK        -0.5000 
     94 N          -5.3379  -26.7142  -49.2137 N.am      17 UNK        -0.5000 
     95 CA         -6.4077  -25.7155  -49.1129 C.3       17 UNK         0.1400 
     96 CB         -7.7173  -26.3527  -48.6033 C.3       17 UNK        -0.1800 
     97 C          -6.5870  -24.9044  -50.4113 C.2       17 UNK         0.5000 
     98 O          -7.7107  -24.6863  -50.8687 O.2       17 UNK        -0.5000 
     99 N          -5.4634  -24.4390  -50.9686 N.am      18 UNK        -0.5000 
    100 CA        -5.3718  -23.6209  -52.1797 C.3       18 UNK         0.1400 
    101 CB        -3.9731  -23.8150  -52.7881 C.3       18 UNK        -0.1800 
    102 C         -5.6951  -22.1354  -51.9014 C.2       18 UNK         0.5000 
    103 O         -4.9262  -21.2464  -52.2749 O.2       18 UNK        -0.5000 
    104 N         -6.8204  -21.8901  -51.2191 N.am      19 UNK        -0.5000 
    105 CA        -7.3059  -20.5735  -50.8140 C.3       19 UNK         0.1400 
    106 CB        -8.5557  -20.7456  -49.9371 C.3       19 UNK        -0.1800 
    107 C         -7.5947  -19.6784  -52.0319 C.2       19 UNK         0.5000 
    108 O         -8.4493  -20.0215  -52.8510 O.2       19 UNK        -0.5000 
    109 N         -6.8465  -18.5711  -52.1320 N.am      20 UNK        -0.5000 
    110 CA        -6.8752  -17.5636  -53.2000 C.3       20 UNK         0.1400 
    111 CB        -8.2441  -16.8538  -53.2537 C.3       20 UNK        -0.1800 
    112 C         -6.4283  -18.0765  -54.5880 C.2       20 UNK         0.5000 
    113 O         -6.5891  -17.3556  -55.5749 O.2       20 UNK        -0.5000 
    114 N         -5.8233  -19.2741  -54.6551 N.am      21 UNK        -0.5000 
    115 CA        -5.3023  -19.8787  -55.8898 C.3       21 UNK         0.1400 
    116 CB        -4.9005  -21.3317  -55.6076 C.3       21 UNK        -0.1800 
    117 C         -4.1113  -19.1045  -56.4898 C.2       21 UNK         0.5000 
    118 O         -3.8422  -19.2165  -57.6861 O.2       21 UNK        -0.5000 
    119 N         -3.4440  -18.3166  -55.6413 N.am      22 UNK        -0.5000 
    120 CA        -2.4224  -17.3237  -55.9873 C.3       22 UNK         0.1400 
    121 C         -2.9483  -16.0839  -56.7752 C.2       22 UNK         0.5000 
    122 N         -4.2534  -15.8592  -56.8901 N.am      22 UNK        -0.7600 
    123 O         -2.1510  -15.3150  -57.3055 O.2       22 UNK        -0.5000 
    124 C124       -1.6221  -16.9082  -54.7254 C.3       23 UNK        -0.0398 
    125 S125       -2.6752  -16.2663  -53.3693 S.3       23 UNK        -0.2404 
    126 C126       -2.5729  -17.6024  -52.1301 C.3       23 UNK        -0.0205 
    127 H127        5.0711  -16.8640  -46.8361 H         1 UNK         0.0600 
    128 H128        5.8318  -15.5661  -45.8942 H         1 UNK         0.0600 
    129 H129        6.7339  -17.0222  -46.2921 H         1 UNK         0.0600 
    130 H130        6.0483  -14.4440  -49.5108 H         1 UNK         0.3000 
    131 H131        3.7981  -15.2775  -47.9044 H         1 UNK         0.0600 
    132 H132        2.6658  -13.3067  -49.1716 H         1 UNK         0.0800 
    133 H133        4.1589  -13.1313  -50.0478 H         1 UNK         0.0800 
    134 H134        1.7003  -15.9216  -48.7737 H         1 UNK         0.0800 
    135 H135        0.8140  -14.7925  -49.7702 H         1 UNK         0.0800 
    136 H136       -0.9838  -15.7186  -50.9637 H         1 UNK         0.1150 
    137 H137       -1.0761  -19.8747  -51.9888 H         1 UNK         0.1150 
    138 H138        2.3933  -18.1987  -50.0963 H         1 UNK         0.1150 
    139 H139        0.5608  -21.3524  -50.9985 H         1 UNK         0.0800 
    140 H140        1.8356  -20.7432  -52.0216 H         1 UNK         0.0800 
    141 H141        0.8684  -19.8142  -48.4083 H         1 UNK         0.0800 
    142 H142        2.3598  -20.0707  -47.5615 H         1 UNK         0.0800 
    143 H143        1.8259  -22.5459  -47.4086 H         1 UNK         0.0600 
    144 H144        0.7376  -20.4667  -45.8641 H         1 UNK         0.3000 
    145 H145       -0.8962  -22.4535  -43.3631 H         1 UNK         0.0600 
    146 H146        0.5562  -20.9600  -41.9944 H         1 UNK         0.0600 
    147 H147        1.4952  -22.2482  -42.7357 H         1 UNK         0.0600 
    148 H148        1.5617  -20.6227  -43.4016 H         1 UNK         0.0600 
    149 H149       -0.7660  -19.6397  -43.6821 H         1 UNK         0.3000 
    150 H150       -3.6821  -19.2552  -45.7421 H         1 UNK         0.0600 
    151 H151       -4.4640  -19.3921  -43.3906 H         1 UNK         0.0600 
    152 H152       -4.2072  -17.7188  -43.8591 H         1 UNK         0.0600 
    153 H153       -3.0330  -18.5396  -42.8317 H         1 UNK         0.0600 
    154 H154       -1.7365  -17.4313  -44.6629 H         1 UNK         0.3000 
    155 H155        0.3956  -17.3884  -47.5226 H         1 UNK         0.0600 
    156 H156       -1.6375  -15.3580  -46.4359 H         1 UNK         0.0600 
    157 H157       -1.4608  -15.8539  -48.1134 H         1 UNK         0.0600 
    158 H158       -0.1771  -14.9450  -47.3302 H         1 UNK         0.0600 
    159 H159        0.3960  -15.9378  -45.0449 H         1 UNK         0.3000 
    160 H160        2.1851  -18.2668  -43.0873 H         1 UNK         0.0600 
    161 H161        3.2540  -15.7681  -44.4897 H         1 UNK         0.0600 
    162 H162        4.0583  -17.3222  -44.3516 H         1 UNK         0.0600 
    163 H163        3.8017  -16.3421  -42.9152 H         1 UNK         0.0600 
    164 H164        1.4150  -15.5286  -42.7013 H         1 UNK         0.3000 
    165 H165       -1.5765  -15.5048  -42.1191 H         1 UNK         0.0600 
    166 H166       -0.9008  -17.0644  -39.5741 H         1 UNK         0.0600 
    167 H167       -2.1458  -15.8209  -39.6949 H         1 UNK         0.0600 
    168 H168       -2.2896  -17.3045  -40.6214 H         1 UNK         0.0600 
    169 H169       -0.3051  -13.8680  -41.4249 H         1 UNK         0.3000 
    170 H170        1.6017  -13.0918  -38.8833 H         1 UNK         0.0600 
    171 H171        3.3930  -13.8799  -41.2447 H         1 UNK         0.0600 
    172 H172        3.7351  -12.5673  -40.1182 H         1 UNK         0.0600 
    173 H173        3.6858  -14.2265  -39.5469 H         1 UNK         0.0600 
    174 H174        1.4524  -12.3748  -41.7678 H         1 UNK         0.3000 
    175 H175       -1.3301  -10.2901  -41.3328 H         1 UNK         0.0600 
    176 H176        0.0561   -8.4323  -42.2247 H         1 UNK         0.0600 
    177 H177        0.3906   -8.6706  -40.5176 H         1 UNK         0.0600 
    178 H178        1.5324   -9.2571  -41.7210 H         1 UNK         0.0600 
    179 H179        0.4916  -10.6006  -43.5124 H         1 UNK         0.3000 
    180 H180       -0.6803  -13.6990  -44.7440 H         1 UNK         0.0600 
    181 H181       -1.2197  -10.9038  -45.8768 H         1 UNK         0.0600 
    182 H182       -2.4415  -12.1341  -45.5759 H         1 UNK         0.0600 
    183 H183       -1.2048  -12.4129  -46.7906 H         1 UNK         0.0600 
    184 H184        1.0957  -11.8575  -45.9203 H         1 UNK         0.3000 
    185 H185        3.3686  -11.6038  -45.3346 H         1 UNK         0.0600 
    186 H186        4.5465  -13.9215  -43.6869 H         1 UNK         0.0600 
    187 H187        5.4505  -12.5979  -44.4127 H         1 UNK         0.0600 
    188 H188        4.3283  -12.2774  -43.1032 H         1 UNK         0.0600 
    189 H189        2.8291  -14.2600  -46.2431 H         1 UNK         0.3000 
    190 H190       -1.3611  -20.8708  -47.7525 H         1 UNK         0.3000 
    191 H191       -2.3296  -22.3882  -49.9213 H         1 UNK         0.0600 
    192 H192       -3.3739  -20.2774  -49.2373 H         1 UNK         0.0600 
    193 H193       -4.5756  -21.5567  -49.1521 H         1 UNK         0.0600 
    194 H194       -3.8365  -20.9525  -47.6760 H         1 UNK         0.0600 
    195 H195       -2.6734  -22.9730  -46.3838 H         1 UNK         0.3000 
    196 H196       -4.2367  -25.3231  -46.5474 H         1 UNK         0.0600 
    197 H197       -3.4614  -25.6962  -44.2031 H         1 UNK         0.0600 
    198 H198       -3.9716  -24.0349  -44.4614 H         1 UNK         0.0600 
    199 H199       -2.2563  -24.4284  -44.3905 H         1 UNK         0.0600 
    200 H200       -0.6564  -24.9474  -46.3554 H         1 UNK         0.3000 
    201 H201        0.0190  -27.6904  -46.4628 H         1 UNK         0.0600 
    202 H202        1.5998  -25.9214  -45.7554 H         1 UNK         0.0600 
    203 H203        1.5988  -25.2273  -47.3755 H         1 UNK         0.0600 
    204 H204        2.2814  -26.8258  -47.0987 H         1 UNK         0.0600 
    205 H205       -0.7502  -25.4136  -49.0494 H         1 UNK         0.3000 
    206 H206       -0.1305  -27.2383  -51.2361 H         1 UNK         0.0600 
    207 H207        0.1658  -24.8066  -51.4916 H         1 UNK         0.0600 
    208 H208       -1.0697  -25.3606  -52.6085 H         1 UNK         0.0600 
    209 H209       -1.5303  -24.5255  -51.1270 H         1 UNK         0.0600 
    210 H210       -2.3233  -27.7811  -49.0385 H         1 UNK         0.3000 
    211 H211       -4.0880  -29.0611  -48.8404 H         1 UNK         0.0600 
    212 H212       -4.0353  -29.5953  -51.8541 H         1 UNK         0.0600 
    213 H213       -4.8776  -30.5312  -50.6314 H         1 UNK         0.0600 
    214 H214       -3.1219  -30.4939  -50.6425 H         1 UNK         0.0600 
    215 H215       -4.5205  -26.5287  -48.6474 H         1 UNK         0.3000 
    216 H216       -6.0829  -24.9995  -48.3567 H         1 UNK         0.0600 
    217 H217       -7.5548  -26.8970  -47.6731 H         1 UNK         0.0600 
    218 H218       -8.1425  -27.0467  -49.3288 H         1 UNK         0.0600 
    219 H219       -8.4700  -25.5890  -48.4042 H         1 UNK         0.0600 
    220 H220       -4.5918  -24.6119  -50.4738 H         1 UNK         0.3000 
    221 H221       -6.1044  -23.9845  -52.9030 H         1 UNK         0.0600 
    222 H222       -3.2022  -23.3516  -52.1729 H         1 UNK         0.0600 
    223 H223       -3.7308  -24.8719  -52.8962 H         1 UNK         0.0600 
    224 H224       -3.9110  -23.3723  -53.7805 H         1 UNK         0.0600 
    225 H225       -7.4089  -22.6841  -50.9919 H         1 UNK         0.3000 
    226 H226       -6.5289  -20.1071  -50.2047 H         1 UNK         0.0600 
    227 H227       -8.3325  -21.3270  -49.0423 H         1 UNK         0.0600 
    228 H228       -8.9389  -19.7783  -49.6097 H         1 UNK         0.0600 
    229 H229       -9.3582  -21.2527  -50.4745 H         1 UNK         0.0600 
    230 H230       -6.1535  -18.4084  -51.4149 H         1 UNK         0.3000 
    231 H231       -6.1343  -16.8146  -52.9166 H         1 UNK         0.0600 
    232 H232       -8.2150  -15.9965  -53.9271 H         1 UNK         0.0600 
    233 H233       -8.5345  -16.4812  -52.2714 H         1 UNK         0.0600 
    234 H234       -9.0329  -17.5176  -53.6083 H         1 UNK         0.0600 
    235 H235       -5.6996  -19.8078  -53.8028 H         1 UNK         0.3000 
    236 H236       -6.1050  -19.8797  -56.6300 H         1 UNK         0.0600 
    237 H237       -4.5912  -21.8373  -56.5232 H         1 UNK         0.0600 
    238 H238       -4.0641  -21.3768  -54.9099 H         1 UNK         0.0600 
    239 H239       -5.7292  -21.8999  -55.1847 H         1 UNK         0.0600 
    240 H240       -3.7589  -18.2922  -54.6839 H         1 UNK         0.3000 
    241 H241       -1.7215  -17.8174  -56.6631 H         1 UNK         0.0600 
    242 H242       -4.5692  -15.0552  -57.4088 H         1 UNK         0.3800 
    243 H243       -4.9358  -16.4708  -56.4580 H         1 UNK         0.3800 
    244 H244       -1.0517  -17.7650  -54.3653 H         1 UNK         0.0800 
    245 H245       -0.8755  -16.1513  -54.9719 H         1 UNK         0.0800 
    246 H246       -3.2549  -17.3731  -51.3104 H         1 UNK         0.0800 
    247 H247       -2.9293  -18.5335  -52.5738 H         1 UNK         0.0800 
@<TRIPOS>BOND
     1    1    2 1    
     2    1  127 1    
     3    1  128 1    
     4    1  129 1    
     5    2    3 2    
     6    2    4 am   BACKBONE|DICT|INTERRES
     7    4    5 1    
     8    4  130 1    
     9    5    6 1    
    10    5   65 1    
    11    5  131 1    
    12    6    7 1    
    13    6  132 1    
    14    6  133 1    
    15    7    8 1    
    16    8    9 1    
    17    8  134 1    
    18    8  135 1    
    19    9   10 ar   
    20    9   14 ar   
    21   10   11 ar   
    22   10  136 1    
    23   11   12 ar   
    24   11  126 1    
    25   12   13 ar   
    26   12  137 1    
    27   13   14 ar   
    28   13   15 1    
    29   14  138 1    
    30   15   16 1    
    31   15  139 1    
    32   15  140 1    
    33   16   17 1    
    34   17   18 1    
    35   17  141 1    
    36   17  142 1    
    37   18   19 1    
    38   18   67 1    
    39   18  143 1    
    40   19   20 am   BACKBONE|DICT|INTERRES
    41   19  144 1    
    42   20   21 2    
    43   20   22 1    
    44   22   23 1    
    45   22   24 1    
    46   22  145 1    
    47   23  146 1    
    48   23  147 1    
    49   23  148 1    
    50   24   25 am   BACKBONE|DICT|INTERRES
    51   24  149 1    
    52   25   26 2    
    53   25   27 1    
    54   27   28 1    
    55   27   29 1    
    56   27  150 1    
    57   28  151 1    
    58   28  152 1    
    59   28  153 1    
    60   29   30 am   BACKBONE|DICT|INTERRES
    61   29  154 1    
    62   30   31 2    
    63   30   32 1    
    64   32   33 1    
    65   32   34 1    
    66   32  155 1    
    67   33  156 1    
    68   33  157 1    
    69   33  158 1    
    70   34   35 am   BACKBONE|DICT|INTERRES
    71   34  159 1    
    72   35   36 2    
    73   35   37 1    
    74   37   38 1    
    75   37   39 1    
    76   37  160 1    
    77   38  161 1    
    78   38  162 1    
    79   38  163 1    
    80   39   40 am   BACKBONE|DICT|INTERRES
    81   39  164 1    
    82   40   41 2    
    83   40   42 1    
    84   42   43 1    
    85   42   44 1    
    86   42  165 1    
    87   43  166 1    
    88   43  167 1    
    89   43  168 1    
    90   44   45 am   BACKBONE|DICT|INTERRES
    91   44  169 1    
    92   45   46 2    
    93   45   47 1    
    94   47   48 1    
    95   47   49 1    
    96   47  170 1    
    97   48  171 1    
    98   48  172 1    
    99   48  173 1    
   100   49   50 am   BACKBONE|DICT|INTERRES
   101   49  174 1    
   102   50   51 2    
   103   50   52 1    
   104   52   53 1    
   105   52   54 1    
   106   52  175 1    
   107   53  176 1    
   108   53  177 1    
   109   53  178 1    
   110   54   55 am   BACKBONE|DICT|INTERRES
   111   54  179 1    
   112   55   56 2    
   113   55   57 1    
   114   57   58 1    
   115   57   59 1    
   116   57  180 1    
   117   58  181 1    
   118   58  182 1    
   119   58  183 1    
   120   59   60 am   BACKBONE|DICT|INTERRES
   121   59  184 1    
   122   60   61 2    
   123   60   62 1    
   124   62   63 1    
   125   62   64 1    
   126   62  185 1    
   127   63  186 1    
   128   63  187 1    
   129   63  188 1    
   130   64   65 am   BACKBONE|DICT|INTERRES
   131   64  189 1    
   132   65   66 2    
   133   67   68 2    
   134   67   69 am   BACKBONE|DICT|INTERRES
   135   69   70 1    
   136   69  190 1    
   137   70   71 1    
   138   70   72 1    
   139   70  191 1    
   140   71  192 1    
   141   71  193 1    
   142   71  194 1    
   143   72   73 2    
   144   72   74 am   BACKBONE|DICT|INTERRES
   145   74   75 1    
   146   74  195 1    
   147   75   76 1    
   148   75   77 1    
   149   75  196 1    
   150   76  197 1    
   151   76  198 1    
   152   76  199 1    
   153   77   78 2    
   154   77   79 am   BACKBONE|DICT|INTERRES
   155   79   80 1    
   156   79  200 1    
   157   80   81 1    
   158   80   82 1    
   159   80  201 1    
   160   81  202 1    
   161   81  203 1    
   162   81  204 1    
   163   82   83 2    
   164   82   84 am   BACKBONE|DICT|INTERRES
   165   84   85 1    
   166   84  205 1    
   167   85   86 1    
   168   85   87 1    
   169   85  206 1    
   170   86  207 1    
   171   86  208 1    
   172   86  209 1    
   173   87   88 2    
   174   87   89 am   BACKBONE|DICT|INTERRES
   175   89   90 1    
   176   89  210 1    
   177   90   91 1    
   178   90   92 1    
   179   90  211 1    
   180   91  212 1    
   181   91  213 1    
   182   91  214 1    
   183   92   93 2    
   184   92   94 am   BACKBONE|DICT|INTERRES
   185   94   95 1    
   186   94  215 1    
   187   95   96 1    
   188   95   97 1    
   189   95  216 1    
   190   96  217 1    
   191   96  218 1    
   192   96  219 1    
   193   97   98 2    
   194   97   99 am   BACKBONE|DICT|INTERRES
   195   99  100 1    
   196   99  220 1    
   197  100  101 1    
   198  100  102 1    
   199  100  221 1    
   200  101  222 1    
   201  101  223 1    
   202  101  224 1    
   203  102  103 2    
   204  102  104 am   BACKBONE|DICT|INTERRES
   205  104  105 1    
   206  104  225 1    
   207  105  106 1    
   208  105  107 1    
   209  105  226 1    
   210  106  227 1    
   211  106  228 1    
   212  106  229 1    
   213  107  108 2    
   214  107  109 am   BACKBONE|DICT|INTERRES
   215  109  110 1    
   216  109  230 1    
   217  110  111 1    
   218  110  112 1    
   219  110  231 1    
   220  111  232 1    
   221  111  233 1    
   222  111  234 1    
   223  112  113 2    
   224  112  114 am   BACKBONE|DICT|INTERRES
   225  114  115 1    
   226  114  235 1    
   227  115  116 1    
   228  115  117 1    
   229  115  236 1    
   230  116  237 1    
   231  116  238 1    
   232  116  239 1    
   233  117  118 2    
   234  117  119 am   BACKBONE|DICT|INTERRES
   235  119  120 1    
   236  119  240 1    
   237  120  121 1    
   238  120  124 1    
   239  120  241 1    
   240  121  122 am   BACKBONE|DICT|INTERRES
   241  121  123 2    
   242  122  242 1    
   243  122  243 1    
   244  124  125 1    
   245  124  244 1    
   246  124  245 1    
   247  125  126 1    
   248  126  246 1    
   249  126  247 1    
@<TRIPOS>SUBSTRUCTURE
     1 UNK         1 GROUP             0       ****    0 ROOT    
