@<TRIPOS>MOLECULE
3R540
247   249    1
SMALL
USER_CHARGES


@<TRIPOS>ATOM
      1 CA         -0.8109   -9.9417  -51.3464 C.3       0 UNK        -0.1800 
      2 C          -0.1963  -10.9622  -50.3998 C.2       0 UNK         0.5000 
      3 O           0.2861  -10.5930  -49.3292 O.2       0 UNK        -0.5000 
      4 N          -0.2281  -12.2475  -50.7788 N.am      1 UNK        -0.5000 
      5 CA          0.3601  -13.3761  -50.0382 C.3       1 UNK         0.1400 
      6 C6          0.3264  -14.6912  -50.8556 C.3       23 UNK        -0.0398 
      7 S7          1.2179  -14.5339  -52.4379 S.3       23 UNK        -0.2404 
      8 C8          2.8729  -15.1287  -51.9790 C.3       23 UNK        -0.0205 
      9 C9          2.9872  -16.6440  -52.0551 C.ar      23 UNK        -0.0193 
     10 C10         3.2040  -17.2617  -53.2900 C.ar      23 UNK        -0.1150 
     11 C11         3.4040  -18.6423  -53.3739 C.ar      23 UNK        -0.0193 
     12 C12         3.3907  -19.4037  -52.2003 C.ar      23 UNK        -0.1150 
     13 C13         3.1403  -18.8059  -50.9624 C.ar      23 UNK        -0.0193 
     14 C14         2.9371  -17.4236  -50.8956 C.ar      23 UNK        -0.1150 
     15 C15         3.1335  -19.6512  -49.6974 C.3       23 UNK        -0.0205 
     16 S16         1.7975  -20.8913  -49.7197 S.3       23 UNK        -0.2404 
     17 C17         1.0615  -20.6594  -48.0675 C.3       23 UNK        -0.0398 
     18 CA          0.4212  -21.9497  -47.5034 C.3       11 UNK         0.1400 
     19 N           0.3690  -21.9327  -46.0395 N.am      11 UNK        -0.5000 
     20 C           0.0526  -22.9831  -45.2693 C.2       10 UNK         0.5000 
     21 O          -0.1923  -24.1066  -45.7098 O.2       10 UNK        -0.5000 
     22 CA         -0.0535  -22.7200  -43.7550 C.3       10 UNK         0.1400 
     23 CB          1.3368  -22.6822  -43.1038 C.3       10 UNK        -0.1800 
     24 N          -0.7728  -21.4804  -43.4553 N.am      10 UNK        -0.5000 
     25 C          -2.0659  -21.2742  -43.7447 C.2       9 UNK         0.5000 
     26 O          -2.8016  -22.1349  -44.2277 O.2       9 UNK        -0.5000 
     27 CA         -2.6152  -19.8556  -43.5061 C.3       9 UNK         0.1400 
     28 CB         -2.9931  -19.6504  -42.0319 C.3       9 UNK        -0.1800 
     29 N          -1.6762  -18.8134  -43.9206 N.am      9 UNK        -0.5000 
     30 C          -1.2543  -18.6181  -45.1778 C.2       8 UNK         0.5000 
     31 O          -1.6498  -19.2633  -46.1448 O.2       8 UNK        -0.5000 
     32 CA         -0.1715  -17.5501  -45.3836 C.3       8 UNK         0.1400 
     33 CB         -0.8176  -16.1596  -45.4441 C.3       8 UNK        -0.1800 
     34 N           0.8516  -17.6142  -44.3368 N.am      8 UNK        -0.5000 
     35 C           1.7145  -18.6340  -44.2020 C.2       7 UNK         0.5000 
     36 O           1.7749  -19.5770  -44.9889 O.2       7 UNK        -0.5000 
     37 CA          2.6175  -18.6464  -42.9558 C.3       7 UNK         0.1400 
     38 CB          3.9777  -17.9943  -43.2360 C.3       7 UNK        -0.1800 
     39 N           1.9821  -17.9995  -41.8100 N.am      7 UNK        -0.5000 
     40 C           0.9977  -18.5638  -41.0964 C.2       6 UNK         0.5000 
     41 O           0.5729  -19.7012  -41.3042 O.2       6 UNK        -0.5000 
     42 CA          0.3412  -17.6914  -40.0096 C.3       6 UNK         0.1400 
     43 CB          1.1137  -17.8015  -38.6870 C.3       6 UNK        -0.1800 
     44 N           0.2341  -16.2811  -40.3936 N.am      6 UNK        -0.5000 
     45 C          -0.4743  -15.8302  -41.4377 C.2       5 UNK         0.5000 
     46 O          -1.1344  -16.5686  -42.1676 O.2       5 UNK        -0.5000 
     47 CA         -0.4308  -14.3189  -41.7403 C.3       5 UNK         0.1400 
     48 CB          0.0210  -13.4588  -40.5396 C.3       5 UNK        -0.1800 
     49 N           0.3757  -13.9934  -42.9227 N.am      5 UNK        -0.5000 
     50 C           1.6744  -14.2695  -43.1327 C.2       4 UNK         0.5000 
     51 O           2.3390  -14.9966  -42.3934 O.2       4 UNK        -0.5000 
     52 CA          2.3639  -13.6172  -44.3557 C.3       4 UNK         0.1400 
     53 CB          2.8994  -14.6603  -45.3506 C.3       4 UNK        -0.1800 
     54 N           1.5140  -12.6643  -45.0738 N.am      4 UNK        -0.5000 
     55 C           1.2288  -11.4253  -44.6433 C.2       3 UNK         0.5000 
     56 O           1.7067  -10.9386  -43.6180 O.2       3 UNK        -0.5000 
     57 CA          0.2298  -10.5899  -45.4714 C.3       3 UNK         0.1400 
     58 CB          0.9704   -9.5029  -46.2646 C.3       3 UNK        -0.1800 
     59 N          -0.5966  -11.3737  -46.3937 N.am      3 UNK        -0.5000 
     60 C          -1.4863  -12.3118  -46.0326 C.2       2 UNK         0.5000 
     61 O          -1.7114  -12.6170  -44.8605 O.2       2 UNK        -0.5000 
     62 CA         -2.2166  -13.0667  -47.1637 C.3       2 UNK         0.1400 
     63 CB         -3.6080  -12.4618  -47.3996 C.3       2 UNK        -0.1800 
     64 N          -1.4915  -13.0920  -48.4368 N.am      2 UNK        -0.5000 
     65 C          -0.2608  -13.5874  -48.6400 C.2       1 UNK         0.5000 
     66 O           0.4000  -14.1490  -47.7669 O.2       1 UNK        -0.5000 
     67 C          -0.9632  -22.2432  -48.1220 C.2       11 UNK         0.5000 
     68 O          -1.0584  -23.1008  -48.9982 O.2       11 UNK        -0.5000 
     69 N          -2.0171  -21.5938  -47.6022 N.am      12 UNK        -0.5000 
     70 CA         -3.4161  -21.8233  -47.9660 C.3       12 UNK         0.1400 
     71 CB         -4.3326  -20.8665  -47.1863 C.3       12 UNK        -0.1800 
     72 C          -3.8571  -23.2745  -47.7257 C.2       12 UNK         0.5000 
     73 O          -4.4752  -23.8678  -48.6080 O.2       12 UNK        -0.5000 
     74 N          -3.5102  -23.8270  -46.5543 N.am      13 UNK        -0.5000 
     75 CA         -3.7773  -25.2157  -46.1805 C.3       13 UNK         0.1400 
     76 CB         -3.4006  -25.4407  -44.7086 C.3       13 UNK        -0.1800 
     77 C          -3.0608  -26.2229  -47.0974 C.2       13 UNK         0.5000 
     78 O          -3.6960  -27.1673  -47.5682 O.2       13 UNK        -0.5000 
     79 N          -1.7736  -25.9756  -47.3821 N.am      14 UNK        -0.5000 
     80 CA         -0.9597  -26.7626  -48.3143 C.3       14 UNK         0.1400 
     81 CB          0.4983  -26.2835  -48.2485 C.3       14 UNK        -0.1800 
     82 C          -1.4853  -26.7164  -49.7635 C.2       14 UNK         0.5000 
     83 O          -1.4244  -27.7237  -50.4688 O.2       14 UNK        -0.5000 
     84 N          -2.0308  -25.5610  -50.1609 N.am      15 UNK        -0.5000 
     85 CA         -2.6760  -25.3106  -51.4492 C.3       15 UNK         0.1400 
     86 CB         -2.6032  -23.8042  -51.7351 C.3       15 UNK        -0.1800 
     87 C          -4.1336  -25.8189  -51.5305 C.2       15 UNK         0.5000 
     88 O          -4.7819  -25.5946  -52.5530 O.2       15 UNK        -0.5000 
     89 N          -4.6237  -26.4880  -50.4752 N.am      16 UNK        -0.5000 
     90 CA         -5.9597  -27.0745  -50.3302 C.3       16 UNK         0.1400 
     91 CB         -6.2066  -28.1775  -51.3818 C.3       16 UNK        -0.1800 
     92 C          -7.0769  -26.0121  -50.2759 C.2       16 UNK         0.5000 
     93 O          -8.0650  -26.1043  -51.0066 O.2       16 UNK        -0.5000 
     94 N          -6.8913  -25.0340  -49.3799 N.am      17 UNK        -0.5000 
     95 CA         -7.7871  -23.9204  -49.0537 C.3       17 UNK         0.1400 
     96 CB         -9.1629  -24.4193  -48.5621 C.3       17 UNK        -0.1800 
     97 C          -7.8744  -22.8693  -50.1769 C.2       17 UNK         0.5000 
     98 O          -8.9490  -22.3220  -50.4343 O.2       17 UNK        -0.5000 
     99 N          -6.7300  -22.5886  -50.8126 N.am      18 UNK        -0.5000 
    100 CA        -6.5691  -21.4940  -51.7707 C.3       18 UNK         0.1400 
    101 CB        -5.3693  -21.7976  -52.6773 C.3       18 UNK        -0.1800 
    102 C         -6.3735  -20.1468  -51.0471 C.2       18 UNK         0.5000 
    103 O         -6.1269  -20.1178  -49.8385 O.2       18 UNK        -0.5000 
    104 N         -6.4568  -19.0460  -51.8039 N.am      19 UNK        -0.5000 
    105 CA        -6.2847  -17.6698  -51.3291 C.3       19 UNK         0.1400 
    106 CB        -6.9343  -16.7157  -52.3477 C.3       19 UNK        -0.1800 
    107 C         -4.8038  -17.3246  -51.0548 C.2       19 UNK         0.5000 
    108 O         -4.2234  -16.4856  -51.7474 O.2       19 UNK        -0.5000 
    109 N         -4.2190  -18.0024  -50.0577 N.am      20 UNK        -0.5000 
    110 CA        -2.8253  -17.9587  -49.5985 C.3       20 UNK         0.1400 
    111 CB        -2.4230  -16.5580  -49.1001 C.3       20 UNK        -0.1800 
    112 C         -1.8313  -18.5273  -50.6257 C.2       20 UNK         0.5000 
    113 O         -1.1605  -19.5113  -50.3273 O.2       20 UNK        -0.5000 
    114 N         -1.7790  -17.9337  -51.8227 N.am      21 UNK        -0.5000 
    115 CA        -1.0464  -18.4566  -52.9739 C.3       21 UNK         0.1400 
    116 CB        -1.0269  -17.3790  -54.0694 C.3       21 UNK        -0.1800 
    117 C         -1.7370  -19.7389  -53.4952 C.2       21 UNK         0.5000 
    118 O         -2.9585  -19.7184  -53.6474 O.2       21 UNK        -0.5000 
    119 N         -1.0330  -20.8346  -53.7990 N.am      22 UNK        -0.5000 
    120 CA         0.4054  -21.0908  -53.6814 C.3       22 UNK         0.1400 
    121 C          0.5878  -22.6163  -53.4656 C.2       22 UNK         0.5000 
    122 N          1.2095  -23.0343  -52.3717 N.am      22 UNK        -0.7600 
    123 O          0.1708  -23.4243  -54.2927 O.2       22 UNK        -0.5000 
    124 C124        1.1630  -20.5603  -54.9310 C.3       23 UNK        -0.0398 
    125 S125        2.9529  -20.9289  -54.9610 S.3       23 UNK        -0.2404 
    126 C126        3.6909  -19.2766  -54.7319 C.3       23 UNK        -0.0205 
    127 H127       -0.0608   -9.2095  -51.6453 H         1 UNK         0.0600 
    128 H128       -1.6257   -9.4140  -50.8508 H         1 UNK         0.0600 
    129 H129       -1.2067  -10.4110  -52.2473 H         1 UNK         0.0600 
    130 H130       -0.6272  -12.4839  -51.6764 H         1 UNK         0.3000 
    131 H131        1.4079  -13.1229  -49.8630 H         1 UNK         0.0600 
    132 H132       -0.7018  -14.9725  -51.0844 H         1 UNK         0.0800 
    133 H133        0.7486  -15.5212  -50.2866 H         1 UNK         0.0800 
    134 H134        3.1357  -14.7690  -50.9830 H         1 UNK         0.0800 
    135 H135        3.6007  -14.6822  -52.6582 H         1 UNK         0.0800 
    136 H136        3.2429  -16.6573  -54.1856 H         1 UNK         0.1150 
    137 H137        3.5727  -20.4681  -52.2442 H         1 UNK         0.1150 
    138 H138        2.7708  -16.9503  -49.9382 H         1 UNK         0.1150 
    139 H139        4.0916  -20.1634  -49.6006 H         1 UNK         0.0800 
    140 H140        3.0416  -19.0076  -48.8215 H         1 UNK         0.0800 
    141 H141        0.3513  -19.8312  -48.0915 H         1 UNK         0.0800 
    142 H142        1.8676  -20.3471  -47.4051 H         1 UNK         0.0800 
    143 H143        1.0722  -22.7861  -47.7676 H         1 UNK         0.0600 
    144 H144        0.6028  -21.0522  -45.5919 H         1 UNK         0.3000 
    145 H145       -0.6129  -23.5466  -43.3118 H         1 UNK         0.0600 
    146 H146        1.2641  -22.5327  -42.0264 H         1 UNK         0.0600 
    147 H147        1.8684  -23.6203  -43.2680 H         1 UNK         0.0600 
    148 H148        1.9532  -21.8813  -43.5116 H         1 UNK         0.0600 
    149 H149       -0.2480  -20.7388  -43.0067 H         1 UNK         0.3000 
    150 H150       -3.5200  -19.7432  -44.1063 H         1 UNK         0.0600 
    151 H151       -3.7283  -20.3898  -41.7118 H         1 UNK         0.0600 
    152 H152       -3.4302  -18.6647  -41.8710 H         1 UNK         0.0600 
    153 H153       -2.1280  -19.7425  -41.3753 H         1 UNK         0.0600 
    154 H154       -1.3455  -18.1794  -43.1986 H         1 UNK         0.3000 
    155 H155        0.3163  -17.7372  -46.3428 H         1 UNK         0.0600 
    156 H156       -1.4553  -15.9521  -44.5866 H         1 UNK         0.0600 
    157 H157       -1.4454  -16.0877  -46.3300 H         1 UNK         0.0600 
    158 H158       -0.0804  -15.3644  -45.5057 H         1 UNK         0.0600 
    159 H159        0.8126  -16.9124  -43.6124 H         1 UNK         0.3000 
    160 H160        2.8044  -19.6922  -42.7031 H         1 UNK         0.0600 
    161 H161        3.8874  -16.9217  -43.3914 H         1 UNK         0.0600 
    162 H162        4.4433  -18.4209  -44.1254 H         1 UNK         0.0600 
    163 H163        4.6636  -18.1503  -42.4034 H         1 UNK         0.0600 
    164 H164        2.2401  -17.0365  -41.6252 H         1 UNK         0.3000 
    165 H165       -0.6697  -18.0717  -39.8483 H         1 UNK         0.0600 
    166 H166        0.6107  -17.2542  -37.8896 H         1 UNK         0.0600 
    167 H167        1.1923  -18.8414  -38.3667 H         1 UNK         0.0600 
    168 H168        2.1270  -17.4082  -38.7781 H         1 UNK         0.0600 
    169 H169        0.7725  -15.6189  -39.8542 H         1 UNK         0.3000 
    170 H170       -1.4551  -14.0310  -41.9818 H         1 UNK         0.0600 
    171 H171       -0.5894  -13.6599  -39.6582 H         1 UNK         0.0600 
    172 H172        1.0636  -13.6340  -40.2720 H         1 UNK         0.0600 
    173 H173       -0.0832  -12.3973  -40.7650 H         1 UNK         0.0600 
    174 H174       -0.1045  -13.4360  -43.6198 H         1 UNK         0.3000 
    175 H175        3.2262  -13.0704  -43.9686 H         1 UNK         0.0600 
    176 H176        2.1226  -15.3297  -45.7149 H         1 UNK         0.0600 
    177 H177        3.3517  -14.1789  -46.2178 H         1 UNK         0.0600 
    178 H178        3.6735  -15.2732  -44.8926 H         1 UNK         0.0600 
    179 H179        1.0852  -12.9955  -45.9298 H         1 UNK         0.3000 
    180 H180       -0.4419  -10.0981  -44.7649 H         1 UNK         0.0600 
    181 H181        1.6628   -9.9367  -46.9873 H         1 UNK         0.0600 
    182 H182        1.5489   -8.8583  -45.6016 H         1 UNK         0.0600 
    183 H183        0.2732   -8.8660  -46.8094 H         1 UNK         0.0600 
    184 H184       -0.4491  -11.1977  -47.3814 H         1 UNK         0.3000 
    185 H185       -2.3516  -14.0966  -46.8362 H         1 UNK         0.0600 
    186 H186       -4.1908  -12.4497  -46.4776 H         1 UNK         0.0600 
    187 H187       -3.5438  -11.4348  -47.7614 H         1 UNK         0.0600 
    188 H188       -4.1717  -13.0422  -48.1304 H         1 UNK         0.0600 
    189 H189       -1.9421  -12.6327  -49.2146 H         1 UNK         0.3000 
    190 H190       -1.8471  -20.8601  -46.9168 H         1 UNK         0.3000 
    191 H191       -3.5211  -21.6095  -49.0317 H         1 UNK         0.0600 
    192 H192       -4.2381  -21.0014  -46.1102 H         1 UNK         0.0600 
    193 H193       -5.3793  -21.0374  -47.4402 H         1 UNK         0.0600 
    194 H194       -4.1144  -19.8241  -47.4076 H         1 UNK         0.0600 
    195 H195       -3.0399  -23.2514  -45.8622 H         1 UNK         0.3000 
    196 H196       -4.8516  -25.3832  -46.2820 H         1 UNK         0.0600 
    197 H197       -3.6112  -26.4665  -44.4038 H         1 UNK         0.0600 
    198 H198       -3.9703  -24.7826  -44.0523 H         1 UNK         0.0600 
    199 H199       -2.3418  -25.2548  -44.5282 H         1 UNK         0.0600 
    200 H200       -1.3158  -25.1875  -46.9323 H         1 UNK         0.3000 
    201 H201       -0.9912  -27.8031  -47.9848 H         1 UNK         0.0600 
    202 H202        0.8989  -26.3774  -47.2389 H         1 UNK         0.0600 
    203 H203        0.5931  -25.2397  -48.5491 H         1 UNK         0.0600 
    204 H204        1.1344  -26.8747  -48.9084 H         1 UNK         0.0600 
    205 H205       -1.9662  -24.7613  -49.5370 H         1 UNK         0.3000 
    206 H206       -2.1104  -25.8280  -52.2266 H         1 UNK         0.0600 
    207 H207       -1.5776  -23.4424  -51.6822 H         1 UNK         0.0600 
    208 H208       -2.9759  -23.5721  -52.7329 H         1 UNK         0.0600 
    209 H209       -3.1874  -23.2367  -51.0113 H         1 UNK         0.0600 
    210 H210       -4.0219  -26.5909  -49.6671 H         1 UNK         0.3000 
    211 H211       -5.9641  -27.5608  -49.3536 H         1 UNK         0.0600 
    212 H212       -6.2739  -27.7737  -52.3922 H         1 UNK         0.0600 
    213 H213       -7.1408  -28.7029  -51.1803 H         1 UNK         0.0600 
    214 H214       -5.4083  -28.9195  -51.3690 H         1 UNK         0.0600 
    215 H215       -5.9818  -24.9783  -48.9289 H         1 UNK         0.3000 
    216 H216       -7.3183  -23.4068  -48.2130 H         1 UNK         0.0600 
    217 H217       -9.7562  -23.5946  -48.1656 H         1 UNK         0.0600 
    218 H218       -9.0544  -25.1525  -47.7630 H         1 UNK         0.0600 
    219 H219       -9.7418  -24.8779  -49.3640 H         1 UNK         0.0600 
    220 H220       -5.8885  -23.0570  -50.5069 H         1 UNK         0.3000 
    221 H221       -7.4653  -21.4311  -52.3915 H         1 UNK         0.0600 
    222 H222       -4.4261  -21.6596  -52.1496 H         1 UNK         0.0600 
    223 H223       -5.4032  -22.8174  -53.0614 H         1 UNK         0.0600 
    224 H224       -5.3545  -21.1295  -53.5388 H         1 UNK         0.0600 
    225 H225       -6.6127  -19.1520  -52.7959 H         1 UNK         0.3000 
    226 H226       -6.8223  -17.5576  -50.3851 H         1 UNK         0.0600 
    227 H227       -7.9959  -16.9316  -52.4690 H         1 UNK         0.0600 
    228 H228       -6.8511  -15.6785  -52.0202 H         1 UNK         0.0600 
    229 H229       -6.4624  -16.7900  -53.3283 H         1 UNK         0.0600 
    230 H230       -4.7903  -18.7252  -49.6280 H         1 UNK         0.3000 
    231 H231       -2.7713  -18.6213  -48.7353 H         1 UNK         0.0600 
    232 H232       -1.3871  -16.5514  -48.7591 H         1 UNK         0.0600 
    233 H233       -3.0451  -16.2513  -48.2594 H         1 UNK         0.0600 
    234 H234       -2.5193  -15.7982  -49.8741 H         1 UNK         0.0600 
    235 H235       -2.4612  -17.2038  -52.0054 H         1 UNK         0.3000 
    236 H236       -0.0202  -18.6410  -52.6597 H         1 UNK         0.0600 
    237 H237       -0.4856  -17.7186  -54.9520 H         1 UNK         0.0600 
    238 H238       -2.0355  -17.1116  -54.3878 H         1 UNK         0.0600 
    239 H239       -0.5383  -16.4713  -53.7198 H         1 UNK         0.0600 
    240 H240       -1.5440  -21.6438  -54.1229 H         1 UNK         0.3000 
    241 H241        0.7940  -20.5959  -52.7917 H         1 UNK         0.0600 
    242 H242        1.3337  -24.0236  -52.2300 H         1 UNK         0.3800 
    243 H243        1.5201  -22.3881  -51.6606 H         1 UNK         0.3800 
    244 H244        0.7273  -20.9853  -55.8368 H         1 UNK         0.0800 
    245 H245        1.0276  -19.4832  -55.0172 H         1 UNK         0.0800 
    246 H246        3.3464  -18.6277  -55.5388 H         1 UNK         0.0800 
    247 H247        4.7720  -19.3620  -54.8469 H         1 UNK         0.0800 
@<TRIPOS>BOND
     1    1    2 1    
     2    1  127 1    
     3    1  128 1    
     4    1  129 1    
     5    2    3 2    
     6    2    4 am   BACKBONE|DICT|INTERRES
     7    4    5 1    
     8    4  130 1    
     9    5    6 1    
    10    5   65 1    
    11    5  131 1    
    12    6    7 1    
    13    6  132 1    
    14    6  133 1    
    15    7    8 1    
    16    8    9 1    
    17    8  134 1    
    18    8  135 1    
    19    9   10 ar   
    20    9   14 ar   
    21   10   11 ar   
    22   10  136 1    
    23   11   12 ar   
    24   11  126 1    
    25   12   13 ar   
    26   12  137 1    
    27   13   14 ar   
    28   13   15 1    
    29   14  138 1    
    30   15   16 1    
    31   15  139 1    
    32   15  140 1    
    33   16   17 1    
    34   17   18 1    
    35   17  141 1    
    36   17  142 1    
    37   18   19 1    
    38   18   67 1    
    39   18  143 1    
    40   19   20 am   BACKBONE|DICT|INTERRES
    41   19  144 1    
    42   20   21 2    
    43   20   22 1    
    44   22   23 1    
    45   22   24 1    
    46   22  145 1    
    47   23  146 1    
    48   23  147 1    
    49   23  148 1    
    50   24   25 am   BACKBONE|DICT|INTERRES
    51   24  149 1    
    52   25   26 2    
    53   25   27 1    
    54   27   28 1    
    55   27   29 1    
    56   27  150 1    
    57   28  151 1    
    58   28  152 1    
    59   28  153 1    
    60   29   30 am   BACKBONE|DICT|INTERRES
    61   29  154 1    
    62   30   31 2    
    63   30   32 1    
    64   32   33 1    
    65   32   34 1    
    66   32  155 1    
    67   33  156 1    
    68   33  157 1    
    69   33  158 1    
    70   34   35 am   BACKBONE|DICT|INTERRES
    71   34  159 1    
    72   35   36 2    
    73   35   37 1    
    74   37   38 1    
    75   37   39 1    
    76   37  160 1    
    77   38  161 1    
    78   38  162 1    
    79   38  163 1    
    80   39   40 am   BACKBONE|DICT|INTERRES
    81   39  164 1    
    82   40   41 2    
    83   40   42 1    
    84   42   43 1    
    85   42   44 1    
    86   42  165 1    
    87   43  166 1    
    88   43  167 1    
    89   43  168 1    
    90   44   45 am   BACKBONE|DICT|INTERRES
    91   44  169 1    
    92   45   46 2    
    93   45   47 1    
    94   47   48 1    
    95   47   49 1    
    96   47  170 1    
    97   48  171 1    
    98   48  172 1    
    99   48  173 1    
   100   49   50 am   BACKBONE|DICT|INTERRES
   101   49  174 1    
   102   50   51 2    
   103   50   52 1    
   104   52   53 1    
   105   52   54 1    
   106   52  175 1    
   107   53  176 1    
   108   53  177 1    
   109   53  178 1    
   110   54   55 am   BACKBONE|DICT|INTERRES
   111   54  179 1    
   112   55   56 2    
   113   55   57 1    
   114   57   58 1    
   115   57   59 1    
   116   57  180 1    
   117   58  181 1    
   118   58  182 1    
   119   58  183 1    
   120   59   60 am   BACKBONE|DICT|INTERRES
   121   59  184 1    
   122   60   61 2    
   123   60   62 1    
   124   62   63 1    
   125   62   64 1    
   126   62  185 1    
   127   63  186 1    
   128   63  187 1    
   129   63  188 1    
   130   64   65 am   BACKBONE|DICT|INTERRES
   131   64  189 1    
   132   65   66 2    
   133   67   68 2    
   134   67   69 am   BACKBONE|DICT|INTERRES
   135   69   70 1    
   136   69  190 1    
   137   70   71 1    
   138   70   72 1    
   139   70  191 1    
   140   71  192 1    
   141   71  193 1    
   142   71  194 1    
   143   72   73 2    
   144   72   74 am   BACKBONE|DICT|INTERRES
   145   74   75 1    
   146   74  195 1    
   147   75   76 1    
   148   75   77 1    
   149   75  196 1    
   150   76  197 1    
   151   76  198 1    
   152   76  199 1    
   153   77   78 2    
   154   77   79 am   BACKBONE|DICT|INTERRES
   155   79   80 1    
   156   79  200 1    
   157   80   81 1    
   158   80   82 1    
   159   80  201 1    
   160   81  202 1    
   161   81  203 1    
   162   81  204 1    
   163   82   83 2    
   164   82   84 am   BACKBONE|DICT|INTERRES
   165   84   85 1    
   166   84  205 1    
   167   85   86 1    
   168   85   87 1    
   169   85  206 1    
   170   86  207 1    
   171   86  208 1    
   172   86  209 1    
   173   87   88 2    
   174   87   89 am   BACKBONE|DICT|INTERRES
   175   89   90 1    
   176   89  210 1    
   177   90   91 1    
   178   90   92 1    
   179   90  211 1    
   180   91  212 1    
   181   91  213 1    
   182   91  214 1    
   183   92   93 2    
   184   92   94 am   BACKBONE|DICT|INTERRES
   185   94   95 1    
   186   94  215 1    
   187   95   96 1    
   188   95   97 1    
   189   95  216 1    
   190   96  217 1    
   191   96  218 1    
   192   96  219 1    
   193   97   98 2    
   194   97   99 am   BACKBONE|DICT|INTERRES
   195   99  100 1    
   196   99  220 1    
   197  100  101 1    
   198  100  102 1    
   199  100  221 1    
   200  101  222 1    
   201  101  223 1    
   202  101  224 1    
   203  102  103 2    
   204  102  104 am   BACKBONE|DICT|INTERRES
   205  104  105 1    
   206  104  225 1    
   207  105  106 1    
   208  105  107 1    
   209  105  226 1    
   210  106  227 1    
   211  106  228 1    
   212  106  229 1    
   213  107  108 2    
   214  107  109 am   BACKBONE|DICT|INTERRES
   215  109  110 1    
   216  109  230 1    
   217  110  111 1    
   218  110  112 1    
   219  110  231 1    
   220  111  232 1    
   221  111  233 1    
   222  111  234 1    
   223  112  113 2    
   224  112  114 am   BACKBONE|DICT|INTERRES
   225  114  115 1    
   226  114  235 1    
   227  115  116 1    
   228  115  117 1    
   229  115  236 1    
   230  116  237 1    
   231  116  238 1    
   232  116  239 1    
   233  117  118 2    
   234  117  119 am   BACKBONE|DICT|INTERRES
   235  119  120 1    
   236  119  240 1    
   237  120  121 1    
   238  120  124 1    
   239  120  241 1    
   240  121  122 am   BACKBONE|DICT|INTERRES
   241  121  123 2    
   242  122  242 1    
   243  122  243 1    
   244  124  125 1    
   245  124  244 1    
   246  124  245 1    
   247  125  126 1    
   248  126  246 1    
   249  126  247 1    
@<TRIPOS>SUBSTRUCTURE
     1 UNK         1 GROUP             0       ****    0 ROOT    
