@<TRIPOS>MOLECULE
3R540
247   249    1
SMALL
USER_CHARGES


@<TRIPOS>ATOM
      1 CA          0.1568  -17.4711  -41.9342 C.3       0 UNK        -0.1800 
      2 C          -1.2864  -17.3359  -42.3969 C.2       0 UNK         0.5000 
      3 O          -2.1559  -16.9771  -41.6028 O.2       0 UNK        -0.5000 
      4 N          -1.5437  -17.6322  -43.6756 N.am      1 UNK        -0.5000 
      5 CA         -2.8413  -17.4634  -44.3355 C.3       1 UNK         0.1400 
      6 C6         -2.9127  -18.2674  -45.6590 C.3       23 UNK        -0.0398 
      7 S7         -1.5796  -17.8563  -46.8358 S.3       23 UNK        -0.2404 
      8 C8         -2.0442  -18.8740  -48.2642 C.3       23 UNK        -0.0205 
      9 C9         -0.8306  -19.0975  -49.1470 C.ar      23 UNK        -0.0193 
     10 C10        -0.5467  -18.2527  -50.2217 C.ar      23 UNK        -0.1150 
     11 C11         0.6157  -18.4425  -50.9773 C.ar      23 UNK        -0.0193 
     12 C12         1.5180  -19.4523  -50.6202 C.ar      23 UNK        -0.1150 
     13 C13         1.2376  -20.3054  -49.5484 C.ar      23 UNK        -0.0193 
     14 C14         0.0418  -20.1421  -48.8498 C.ar      23 UNK        -0.1150 
     15 C15         2.1990  -21.4204  -49.1541 C.3       23 UNK        -0.0205 
     16 S16         3.2604  -21.0016  -47.7196 S.3       23 UNK        -0.2404 
     17 C17         2.0865  -20.6966  -46.3496 C.3       23 UNK        -0.0398 
     18 CA          1.2754  -21.9486  -45.9389 C.3       11 UNK         0.1400 
     19 N           2.0777  -22.9214  -45.1982 N.am      11 UNK        -0.5000 
     20 C           1.8313  -24.2380  -45.1634 C.2       10 UNK         0.5000 
     21 O           0.9338  -24.7841  -45.8040 O.2       10 UNK        -0.5000 
     22 CA          2.7200  -25.0845  -44.2314 C.3       10 UNK         0.1400 
     23 CB          3.9866  -25.5447  -44.9684 C.3       10 UNK        -0.1800 
     24 N           3.1054  -24.3729  -43.0111 N.am      10 UNK        -0.5000 
     25 C           2.2496  -23.9887  -42.0535 C.2       9 UNK         0.5000 
     26 O           1.0464  -24.2458  -42.0726 O.2       9 UNK        -0.5000 
     27 CA          2.8251  -23.1255  -40.9127 C.3       9 UNK         0.1400 
     28 CB          3.3035  -24.0155  -39.7563 C.3       9 UNK        -0.1800 
     29 N           3.9189  -22.2375  -41.3251 N.am      9 UNK        -0.5000 
     30 C           3.8325  -21.2948  -42.2734 C.2       8 UNK         0.5000 
     31 O           2.8197  -21.1016  -42.9508 O.2       8 UNK        -0.5000 
     32 CA          5.1155  -20.4875  -42.5518 C.3       8 UNK         0.1400 
     33 CB          6.0925  -21.3273  -43.3908 C.3       8 UNK        -0.1800 
     34 N           4.8521  -19.2379  -43.2673 N.am      8 UNK        -0.5000 
     35 C           4.1751  -18.1937  -42.7748 C.2       7 UNK         0.5000 
     36 O           3.7548  -18.1281  -41.6153 O.2       7 UNK        -0.5000 
     37 CA          3.9279  -17.0289  -43.7473 C.3       7 UNK         0.1400 
     38 CB          3.0748  -17.4783  -44.9525 C.3       7 UNK        -0.1800 
     39 N           3.2673  -15.9482  -43.0210 N.am      7 UNK        -0.5000 
     40 C           3.0918  -14.6989  -43.4584 C.2       6 UNK         0.5000 
     41 O           3.4871  -14.2895  -44.5524 O.2       6 UNK        -0.5000 
     42 CA          2.3440  -13.7401  -42.5244 C.3       6 UNK         0.1400 
     43 CB          3.3011  -12.7418  -41.8529 C.3       6 UNK        -0.1800 
     44 N           1.3633  -13.0284  -43.3310 N.am      6 UNK        -0.5000 
     45 C           0.1613  -12.6115  -42.9251 C.2       5 UNK         0.5000 
     46 O          -0.2164  -12.6660  -41.7541 O.2       5 UNK        -0.5000 
     47 CA         -0.8052  -12.0851  -44.0046 C.3       5 UNK         0.1400 
     48 CB         -0.6585  -10.5664  -44.2165 C.3       5 UNK        -0.1800 
     49 N          -0.7382  -12.8362  -45.2650 N.am      5 UNK        -0.5000 
     50 C           0.2082  -12.8366  -46.2146 C.2       4 UNK         0.5000 
     51 O           1.2020  -12.1110  -46.1942 O.2       4 UNK        -0.5000 
     52 CA          0.0421  -13.8527  -47.3584 C.3       4 UNK         0.1400 
     53 CB          0.8296  -15.1329  -47.0446 C.3       4 UNK        -0.1800 
     54 N          -1.3590  -14.2036  -47.5935 N.am      4 UNK        -0.5000 
     55 C          -2.1700  -13.5445  -48.4320 C.2       3 UNK         0.5000 
     56 O          -1.8182  -12.5786  -49.1102 O.2       3 UNK        -0.5000 
     57 CA         -3.6222  -14.0491  -48.5303 C.3       3 UNK         0.1400 
     58 CB         -3.7155  -15.2217  -49.5189 C.3       3 UNK        -0.1800 
     59 N          -4.1663  -14.4648  -47.2369 N.am      3 UNK        -0.5000 
     60 C          -4.4579  -13.6295  -46.2291 C.2       2 UNK         0.5000 
     61 O          -4.3509  -12.4053  -46.3028 O.2       2 UNK        -0.5000 
     62 CA         -4.9331  -14.2668  -44.9064 C.3       2 UNK         0.1400 
     63 CB         -6.4675  -14.2661  -44.8320 C.3       2 UNK        -0.1800 
     64 N          -4.4443  -15.6326  -44.6825 N.am      2 UNK        -0.5000 
     65 C          -3.1527  -15.9691  -44.5668 C.2       1 UNK         0.5000 
     66 O          -2.2307  -15.1589  -44.6868 O.2       1 UNK        -0.5000 
     67 C           0.0060  -21.5674  -45.1548 C.2       11 UNK         0.5000 
     68 O          -1.0471  -21.4059  -45.7669 O.2       11 UNK        -0.5000 
     69 N           0.0872  -21.4904  -43.8193 N.am      12 UNK        -0.5000 
     70 CA         -1.0709  -21.2771  -42.9434 C.3       12 UNK         0.1400 
     71 CB         -0.5944  -21.1196  -41.4923 C.3       12 UNK        -0.1800 
     72 C          -2.1285  -22.3964  -43.0543 C.2       12 UNK         0.5000 
     73 O          -3.3220  -22.1241  -42.9257 O.2       12 UNK        -0.5000 
     74 N          -1.6661  -23.6240  -43.3209 N.am      13 UNK        -0.5000 
     75 CA         -2.4858  -24.8120  -43.5460 C.3       13 UNK         0.1400 
     76 CB         -1.6700  -26.0405  -43.1090 C.3       13 UNK        -0.1800 
     77 C          -2.9680  -24.9782  -45.0045 C.2       13 UNK         0.5000 
     78 O          -3.7296  -25.9116  -45.2659 O.2       13 UNK        -0.5000 
     79 N          -2.5143  -24.1266  -45.9376 N.am      14 UNK        -0.5000 
     80 CA         -2.8398  -24.2283  -47.3636 C.3       14 UNK         0.1400 
     81 CB         -1.8710  -23.3627  -48.1830 C.3       14 UNK        -0.1800 
     82 C          -4.2961  -23.8338  -47.6724 C.2       14 UNK         0.5000 
     83 O          -4.8845  -23.0093  -46.9679 O.2       14 UNK        -0.5000 
     84 N          -4.8373  -24.4235  -48.7441 N.am      15 UNK        -0.5000 
     85 CA         -6.1718  -24.1422  -49.2683 C.3       15 UNK         0.1400 
     86 CB         -6.5927  -25.3103  -50.1754 C.3       15 UNK        -0.1800 
     87 C          -6.2122  -22.8231  -50.0599 C.2       15 UNK         0.5000 
     88 O          -5.1859  -22.3746  -50.5782 O.2       15 UNK        -0.5000 
     89 N          -7.4206  -22.2659  -50.2126 N.am      16 UNK        -0.5000 
     90 CA         -7.6888  -21.0669  -51.0132 C.3       16 UNK         0.1400 
     91 CB         -9.1577  -20.6551  -50.8372 C.3       16 UNK        -0.1800 
     92 C          -7.3523  -21.2430  -52.5071 C.2       16 UNK         0.5000 
     93 O          -6.9202  -20.2863  -53.1471 O.2       16 UNK        -0.5000 
     94 N          -7.5073  -22.4707  -53.0232 N.am      17 UNK        -0.5000 
     95 CA         -7.1340  -22.8528  -54.3864 C.3       17 UNK         0.1400 
     96 CB         -7.6763  -24.2591  -54.6820 C.3       17 UNK        -0.1800 
     97 C          -5.6136  -22.7969  -54.6322 C.2       17 UNK         0.5000 
     98 O          -5.1919  -22.4392  -55.7319 O.2       17 UNK        -0.5000 
     99 N          -4.8204  -23.1238  -53.6011 N.am      18 UNK        -0.5000 
    100 CA        -3.3620  -23.0140  -53.6241 C.3       18 UNK         0.1400 
    101 CB        -2.7535  -23.8717  -52.5034 C.3       18 UNK        -0.1800 
    102 C         -2.9123  -21.5486  -53.5081 C.2       18 UNK         0.5000 
    103 O         -1.9966  -21.1400  -54.2196 O.2       18 UNK        -0.5000 
    104 N         -3.5971  -20.7749  -52.6536 N.am      19 UNK        -0.5000 
    105 CA        -3.3754  -19.3390  -52.4721 C.3       19 UNK         0.1400 
    106 CB        -4.2278  -18.8422  -51.2958 C.3       19 UNK        -0.1800 
    107 C         -3.6775  -18.5216  -53.7431 C.2       19 UNK         0.5000 
    108 O         -2.9349  -17.5960  -54.0677 O.2       19 UNK        -0.5000 
    109 N         -4.7449  -18.8998  -54.4593 N.am      20 UNK        -0.5000 
    110 CA        -5.1622  -18.2995  -55.7274 C.3       20 UNK         0.1400 
    111 CB        -6.5670  -18.8110  -56.0819 C.3       20 UNK        -0.1800 
    112 C         -4.1879  -18.5604  -56.8937 C.2       20 UNK         0.5000 
    113 O         -4.1963  -17.8000  -57.8625 O.2       20 UNK        -0.5000 
    114 N         -3.3736  -19.6200  -56.7931 N.am      21 UNK        -0.5000 
    115 CA        -2.3783  -19.9973  -57.7976 C.3       21 UNK         0.1400 
    116 CB        -2.0796  -21.4997  -57.6686 C.3       21 UNK        -0.1800 
    117 C         -1.0789  -19.1701  -57.7134 C.2       21 UNK         0.5000 
    118 O         -0.2853  -19.2147  -58.6550 O.2       21 UNK        -0.5000 
    119 N         -0.8676  -18.4480  -56.6044 N.am      22 UNK        -0.5000 
    120 CA         0.2949  -17.5753  -56.3749 C.3       22 UNK         0.1400 
    121 C          0.3372  -16.3602  -57.3438 C.2       22 UNK         0.5000 
    122 N          1.5169  -15.9688  -57.8065 N.am      22 UNK        -0.7600 
    123 O         -0.6814  -15.7414  -57.6442 O.2       22 UNK        -0.5000 
    124 C124        0.3673  -17.0867  -54.9067 C.3       23 UNK        -0.0398 
    125 S125        0.4594  -18.4622  -53.7156 S.3       23 UNK        -0.2404 
    126 C126        0.8851  -17.5692  -52.1905 C.3       23 UNK        -0.0205 
    127 H127        0.1989  -17.9575  -40.9598 H         1 UNK         0.0600 
    128 H128        0.6091  -16.4848  -41.8417 H         1 UNK         0.0600 
    129 H129        0.7518  -18.0619  -42.6308 H         1 UNK         0.0600 
    130 H130       -0.7855  -17.8761  -44.2958 H         1 UNK         0.3000 
    131 H131       -3.6077  -17.8586  -43.6653 H         1 UNK         0.0600 
    132 H132       -2.8464  -19.3334  -45.4356 H         1 UNK         0.0800 
    133 H133       -3.8779  -18.1287  -46.1489 H         1 UNK         0.0800 
    134 H134       -2.4396  -19.8334  -47.9264 H         1 UNK         0.0800 
    135 H135       -2.8428  -18.3788  -48.8131 H         1 UNK         0.0800 
    136 H136       -1.2299  -17.4532  -50.4708 H         1 UNK         0.1150 
    137 H137        2.4250  -19.5866  -51.1926 H         1 UNK         0.1150 
    138 H138       -0.1983  -20.8060  -48.0382 H         1 UNK         0.1150 
    139 H139        1.6434  -22.3375  -48.9576 H         1 UNK         0.0800 
    140 H140        2.8503  -21.6538  -49.9976 H         1 UNK         0.0800 
    141 H141        1.4436  -19.8603  -46.6261 H         1 UNK         0.0800 
    142 H142        2.6595  -20.3407  -45.4941 H         1 UNK         0.0800 
    143 H143        0.9217  -22.4354  -46.8465 H         1 UNK         0.0600 
    144 H144        2.7894  -22.5401  -44.5897 H         1 UNK         0.3000 
    145 H145        2.1493  -25.9696  -43.9421 H         1 UNK         0.0600 
    146 H146        4.5881  -26.2057  -44.3443 H         1 UNK         0.0600 
    147 H147        3.7318  -26.0971  -45.8739 H         1 UNK         0.0600 
    148 H148        4.6107  -24.7002  -45.2638 H         1 UNK         0.0600 
    149 H149        4.0784  -24.1236  -42.9145 H         1 UNK         0.3000 
    150 H150        2.0173  -22.4934  -40.5407 H         1 UNK         0.0600 
    151 H151        4.1410  -24.6476  -40.0541 H         1 UNK         0.0600 
    152 H152        2.5031  -24.6717  -39.4115 H         1 UNK         0.0600 
    153 H153        3.6205  -23.4169  -38.9021 H         1 UNK         0.0600 
    154 H154        4.7907  -22.3467  -40.8270 H         1 UNK         0.3000 
    155 H155        5.5841  -20.2430  -41.5963 H         1 UNK         0.0600 
    156 H156        5.6640  -21.5975  -44.3572 H         1 UNK         0.0600 
    157 H157        6.3598  -22.2533  -42.8801 H         1 UNK         0.0600 
    158 H158        7.0200  -20.7850  -43.5758 H         1 UNK         0.0600 
    159 H159        5.1462  -19.2121  -44.2321 H         1 UNK         0.3000 
    160 H160        4.8971  -16.6698  -44.0990 H         1 UNK         0.0600 
    161 H161        2.8583  -16.6508  -45.6249 H         1 UNK         0.0600 
    162 H162        2.1244  -17.9108  -44.6390 H         1 UNK         0.0600 
    163 H163        3.6024  -18.2227  -45.5478 H         1 UNK         0.0600 
    164 H164        2.9735  -16.2165  -42.0892 H         1 UNK         0.3000 
    165 H165        1.8332  -14.3212  -41.7537 H         1 UNK         0.0600 
    166 H166        4.0520  -13.2624  -41.2574 H         1 UNK         0.0600 
    167 H167        3.8272  -12.1327  -42.5891 H         1 UNK         0.0600 
    168 H168        2.7636  -12.0690  -41.1845 H         1 UNK         0.0600 
    169 H169        1.6026  -12.9365  -44.3137 H         1 UNK         0.3000 
    170 H170       -1.8135  -12.2616  -43.6266 H         1 UNK         0.0600 
    171 H171       -0.8684  -10.0271  -43.2922 H         1 UNK         0.0600 
    172 H172        0.3489  -10.2900  -44.5281 H         1 UNK         0.0600 
    173 H173       -1.3571  -10.2044  -44.9709 H         1 UNK         0.0600 
    174 H174       -1.4384  -13.5703  -45.3293 H         1 UNK         0.3000 
    175 H175        0.4664  -13.4115  -48.2628 H         1 UNK         0.0600 
    176 H176        0.7367  -15.8642  -47.8481 H         1 UNK         0.0600 
    177 H177        1.8910  -14.9116  -46.9276 H         1 UNK         0.0600 
    178 H178        0.4867  -15.6018  -46.1210 H         1 UNK         0.0600 
    179 H179       -1.7297  -14.9728  -47.0529 H         1 UNK         0.3000 
    180 H180       -4.2370  -13.2310  -48.9120 H         1 UNK         0.0600 
    181 H181       -3.1115  -16.0679  -49.1929 H         1 UNK         0.0600 
    182 H182       -3.3595  -14.9283  -50.5073 H         1 UNK         0.0600 
    183 H183       -4.7441  -15.5645  -49.6329 H         1 UNK         0.0600 
    184 H184       -4.2961  -15.4544  -47.0922 H         1 UNK         0.3000 
    185 H185       -4.5524  -13.6438  -44.0942 H         1 UNK         0.0600 
    186 H186       -6.8165  -14.6236  -43.8630 H         1 UNK         0.0600 
    187 H187       -6.8653  -13.2592  -44.9667 H         1 UNK         0.0600 
    188 H188       -6.9081  -14.8988  -45.6035 H         1 UNK         0.0600 
    189 H189       -5.1517  -16.3462  -44.5803 H         1 UNK         0.3000 
    190 H190        0.9986  -21.5711  -43.3782 H         1 UNK         0.3000 
    191 H191       -1.5470  -20.3458  -43.2514 H         1 UNK         0.0600 
    192 H192       -0.2529  -22.0673  -41.0772 H         1 UNK         0.0600 
    193 H193       -1.4048  -20.7603  -40.8572 H         1 UNK         0.0600 
    194 H194        0.2251  -20.4054  -41.4147 H         1 UNK         0.0600 
    195 H195       -0.6626  -23.7615  -43.3396 H         1 UNK         0.3000 
    196 H196       -3.3754  -24.7552  -42.9155 H         1 UNK         0.0600 
    197 H197       -2.2511  -26.9580  -43.2091 H         1 UNK         0.0600 
    198 H198       -1.3677  -25.9616  -42.0645 H         1 UNK         0.0600 
    199 H199       -0.7666  -26.1547  -43.7099 H         1 UNK         0.0600 
    200 H200       -1.9481  -23.3356  -45.6574 H         1 UNK         0.3000 
    201 H201       -2.6926  -25.2687  -47.6616 H         1 UNK         0.0600 
    202 H202       -2.0080  -23.5277  -49.2519 H         1 UNK         0.0600 
    203 H203       -2.0340  -22.3013  -47.9998 H         1 UNK         0.0600 
    204 H204       -0.8329  -23.5981  -47.9501 H         1 UNK         0.0600 
    205 H205       -4.2713  -25.0556  -49.2903 H         1 UNK         0.3000 
    206 H206       -6.8722  -24.0726  -48.4332 H         1 UNK         0.0600 
    207 H207       -6.5857  -26.2543  -49.6300 H         1 UNK         0.0600 
    208 H208       -7.6040  -25.1692  -50.5588 H         1 UNK         0.0600 
    209 H209       -5.9278  -25.4152  -51.0340 H         1 UNK         0.0600 
    210 H210       -8.2190  -22.6959  -49.7680 H         1 UNK         0.3000 
    211 H211       -7.0603  -20.2624  -50.6267 H         1 UNK         0.0600 
    212 H212       -9.8392  -21.4344  -51.1805 H         1 UNK         0.0600 
    213 H213       -9.3799  -19.7508  -51.4054 H         1 UNK         0.0600 
    214 H214       -9.3861  -20.4444  -49.7922 H         1 UNK         0.0600 
    215 H215       -7.8781  -23.1980  -52.4305 H         1 UNK         0.3000 
    216 H216       -7.6071  -22.1506  -55.0763 H         1 UNK         0.0600 
    217 H217       -7.4305  -24.5660  -55.6995 H         1 UNK         0.0600 
    218 H218       -8.7619  -24.2911  -54.5877 H         1 UNK         0.0600 
    219 H219       -7.2574  -25.0039  -54.0040 H         1 UNK         0.0600 
    220 H220       -5.2425  -23.3482  -52.7116 H         1 UNK         0.3000 
    221 H221       -2.9990  -23.4023  -54.5785 H         1 UNK         0.0600 
    222 H222       -3.0519  -23.5239  -51.5151 H         1 UNK         0.0600 
    223 H223       -3.0544  -24.9152  -52.5973 H         1 UNK         0.0600 
    224 H224       -1.6639  -23.8422  -52.5423 H         1 UNK         0.0600 
    225 H225       -4.3075  -21.2073  -52.0738 H         1 UNK         0.3000 
    226 H226       -2.3221  -19.1993  -52.2234 H         1 UNK         0.0600 
    227 H227       -3.9466  -17.8264  -51.0181 H         1 UNK         0.0600 
    228 H228       -5.2893  -18.8295  -51.5420 H         1 UNK         0.0600 
    229 H229       -4.1004  -19.4769  -50.4192 H         1 UNK         0.0600 
    230 H230       -5.3542  -19.6180  -54.0783 H         1 UNK         0.3000 
    231 H231       -5.2182  -17.2184  -55.5851 H         1 UNK         0.0600 
    232 H232       -6.5808  -19.8956  -56.1969 H         1 UNK         0.0600 
    233 H233       -6.9198  -18.3757  -57.0178 H         1 UNK         0.0600 
    234 H234       -7.2895  -18.5467  -55.3095 H         1 UNK         0.0600 
    235 H235       -3.4174  -20.1923  -55.9606 H         1 UNK         0.3000 
    236 H236       -2.8055  -19.8293  -58.7884 H         1 UNK         0.0600 
    237 H237       -1.4271  -21.8367  -58.4749 H         1 UNK         0.0600 
    238 H238       -1.5808  -21.7341  -56.7287 H         1 UNK         0.0600 
    239 H239       -2.9936  -22.0919  -57.7212 H         1 UNK         0.0600 
    240 H240       -1.5665  -18.4569  -55.8738 H         1 UNK         0.3000 
    241 H241        1.1834  -18.1806  -56.5658 H         1 UNK         0.0600 
    242 H242        2.3678  -16.4560  -57.5695 H         1 UNK         0.3800 
    243 H243        1.5610  -15.1724  -58.4236 H         1 UNK         0.3800 
    244 H244       -0.5016  -16.4727  -54.6629 H         1 UNK         0.0800 
    245 H245        1.2446  -16.4537  -54.7611 H         1 UNK         0.0800 
    246 H246        0.3027  -16.6484  -52.1299 H         1 UNK         0.0800 
    247 H247        1.9354  -17.2754  -52.2172 H         1 UNK         0.0800 
@<TRIPOS>BOND
     1    1    2 1    
     2    1  127 1    
     3    1  128 1    
     4    1  129 1    
     5    2    3 2    
     6    2    4 am   BACKBONE|DICT|INTERRES
     7    4    5 1    
     8    4  130 1    
     9    5    6 1    
    10    5   65 1    
    11    5  131 1    
    12    6    7 1    
    13    6  132 1    
    14    6  133 1    
    15    7    8 1    
    16    8    9 1    
    17    8  134 1    
    18    8  135 1    
    19    9   10 ar   
    20    9   14 ar   
    21   10   11 ar   
    22   10  136 1    
    23   11   12 ar   
    24   11  126 1    
    25   12   13 ar   
    26   12  137 1    
    27   13   14 ar   
    28   13   15 1    
    29   14  138 1    
    30   15   16 1    
    31   15  139 1    
    32   15  140 1    
    33   16   17 1    
    34   17   18 1    
    35   17  141 1    
    36   17  142 1    
    37   18   19 1    
    38   18   67 1    
    39   18  143 1    
    40   19   20 am   BACKBONE|DICT|INTERRES
    41   19  144 1    
    42   20   21 2    
    43   20   22 1    
    44   22   23 1    
    45   22   24 1    
    46   22  145 1    
    47   23  146 1    
    48   23  147 1    
    49   23  148 1    
    50   24   25 am   BACKBONE|DICT|INTERRES
    51   24  149 1    
    52   25   26 2    
    53   25   27 1    
    54   27   28 1    
    55   27   29 1    
    56   27  150 1    
    57   28  151 1    
    58   28  152 1    
    59   28  153 1    
    60   29   30 am   BACKBONE|DICT|INTERRES
    61   29  154 1    
    62   30   31 2    
    63   30   32 1    
    64   32   33 1    
    65   32   34 1    
    66   32  155 1    
    67   33  156 1    
    68   33  157 1    
    69   33  158 1    
    70   34   35 am   BACKBONE|DICT|INTERRES
    71   34  159 1    
    72   35   36 2    
    73   35   37 1    
    74   37   38 1    
    75   37   39 1    
    76   37  160 1    
    77   38  161 1    
    78   38  162 1    
    79   38  163 1    
    80   39   40 am   BACKBONE|DICT|INTERRES
    81   39  164 1    
    82   40   41 2    
    83   40   42 1    
    84   42   43 1    
    85   42   44 1    
    86   42  165 1    
    87   43  166 1    
    88   43  167 1    
    89   43  168 1    
    90   44   45 am   BACKBONE|DICT|INTERRES
    91   44  169 1    
    92   45   46 2    
    93   45   47 1    
    94   47   48 1    
    95   47   49 1    
    96   47  170 1    
    97   48  171 1    
    98   48  172 1    
    99   48  173 1    
   100   49   50 am   BACKBONE|DICT|INTERRES
   101   49  174 1    
   102   50   51 2    
   103   50   52 1    
   104   52   53 1    
   105   52   54 1    
   106   52  175 1    
   107   53  176 1    
   108   53  177 1    
   109   53  178 1    
   110   54   55 am   BACKBONE|DICT|INTERRES
   111   54  179 1    
   112   55   56 2    
   113   55   57 1    
   114   57   58 1    
   115   57   59 1    
   116   57  180 1    
   117   58  181 1    
   118   58  182 1    
   119   58  183 1    
   120   59   60 am   BACKBONE|DICT|INTERRES
   121   59  184 1    
   122   60   61 2    
   123   60   62 1    
   124   62   63 1    
   125   62   64 1    
   126   62  185 1    
   127   63  186 1    
   128   63  187 1    
   129   63  188 1    
   130   64   65 am   BACKBONE|DICT|INTERRES
   131   64  189 1    
   132   65   66 2    
   133   67   68 2    
   134   67   69 am   BACKBONE|DICT|INTERRES
   135   69   70 1    
   136   69  190 1    
   137   70   71 1    
   138   70   72 1    
   139   70  191 1    
   140   71  192 1    
   141   71  193 1    
   142   71  194 1    
   143   72   73 2    
   144   72   74 am   BACKBONE|DICT|INTERRES
   145   74   75 1    
   146   74  195 1    
   147   75   76 1    
   148   75   77 1    
   149   75  196 1    
   150   76  197 1    
   151   76  198 1    
   152   76  199 1    
   153   77   78 2    
   154   77   79 am   BACKBONE|DICT|INTERRES
   155   79   80 1    
   156   79  200 1    
   157   80   81 1    
   158   80   82 1    
   159   80  201 1    
   160   81  202 1    
   161   81  203 1    
   162   81  204 1    
   163   82   83 2    
   164   82   84 am   BACKBONE|DICT|INTERRES
   165   84   85 1    
   166   84  205 1    
   167   85   86 1    
   168   85   87 1    
   169   85  206 1    
   170   86  207 1    
   171   86  208 1    
   172   86  209 1    
   173   87   88 2    
   174   87   89 am   BACKBONE|DICT|INTERRES
   175   89   90 1    
   176   89  210 1    
   177   90   91 1    
   178   90   92 1    
   179   90  211 1    
   180   91  212 1    
   181   91  213 1    
   182   91  214 1    
   183   92   93 2    
   184   92   94 am   BACKBONE|DICT|INTERRES
   185   94   95 1    
   186   94  215 1    
   187   95   96 1    
   188   95   97 1    
   189   95  216 1    
   190   96  217 1    
   191   96  218 1    
   192   96  219 1    
   193   97   98 2    
   194   97   99 am   BACKBONE|DICT|INTERRES
   195   99  100 1    
   196   99  220 1    
   197  100  101 1    
   198  100  102 1    
   199  100  221 1    
   200  101  222 1    
   201  101  223 1    
   202  101  224 1    
   203  102  103 2    
   204  102  104 am   BACKBONE|DICT|INTERRES
   205  104  105 1    
   206  104  225 1    
   207  105  106 1    
   208  105  107 1    
   209  105  226 1    
   210  106  227 1    
   211  106  228 1    
   212  106  229 1    
   213  107  108 2    
   214  107  109 am   BACKBONE|DICT|INTERRES
   215  109  110 1    
   216  109  230 1    
   217  110  111 1    
   218  110  112 1    
   219  110  231 1    
   220  111  232 1    
   221  111  233 1    
   222  111  234 1    
   223  112  113 2    
   224  112  114 am   BACKBONE|DICT|INTERRES
   225  114  115 1    
   226  114  235 1    
   227  115  116 1    
   228  115  117 1    
   229  115  236 1    
   230  116  237 1    
   231  116  238 1    
   232  116  239 1    
   233  117  118 2    
   234  117  119 am   BACKBONE|DICT|INTERRES
   235  119  120 1    
   236  119  240 1    
   237  120  121 1    
   238  120  124 1    
   239  120  241 1    
   240  121  122 am   BACKBONE|DICT|INTERRES
   241  121  123 2    
   242  122  242 1    
   243  122  243 1    
   244  124  125 1    
   245  124  244 1    
   246  124  245 1    
   247  125  126 1    
   248  126  246 1    
   249  126  247 1    
@<TRIPOS>SUBSTRUCTURE
     1 UNK         1 GROUP             0       ****    0 ROOT    
