@<TRIPOS>MOLECULE
3R540
247   249    1
SMALL
USER_CHARGES


@<TRIPOS>ATOM
      1 CA          5.6706  -10.3341  -50.4250 C.3       0 UNK        -0.1800 
      2 C           4.6300  -11.4194  -50.6632 C.2       0 UNK         0.5000 
      3 O           3.9773  -11.4185  -51.7066 O.2       0 UNK        -0.5000 
      4 N           4.4822  -12.3412  -49.7016 N.am      1 UNK        -0.5000 
      5 CA          3.5254  -13.4549  -49.7011 C.3       1 UNK         0.1400 
      6 C6          3.7944  -14.4890  -50.8298 C.3       23 UNK        -0.0398 
      7 S7          3.2836  -16.1709  -50.3392 S.3       23 UNK        -0.2404 
      8 C8          1.8710  -16.4704  -51.4454 C.3       23 UNK        -0.0205 
      9 C9          0.8335  -17.3446  -50.7640 C.ar      23 UNK        -0.0193 
     10 C10        -0.2366  -16.7563  -50.0848 C.ar      23 UNK        -0.1150 
     11 C11        -1.1895  -17.5522  -49.4448 C.ar      23 UNK        -0.0193 
     12 C12        -1.0682  -18.9411  -49.4833 C.ar      23 UNK        -0.1150 
     13 C13         0.0027  -19.5396  -50.1504 C.ar      23 UNK        -0.0193 
     14 C14         0.9468  -18.7376  -50.7982 C.ar      23 UNK        -0.1150 
     15 C15         0.1382  -21.0524  -50.1648 C.3       23 UNK        -0.0205 
     16 S16         1.4146  -21.6233  -49.0008 S.3       23 UNK        -0.2404 
     17 C17         0.6954  -21.1675  -47.3867 C.3       23 UNK        -0.0398 
     18 CA          0.2694  -22.3968  -46.5539 C.3       11 UNK         0.1400 
     19 N           0.4267  -22.1453  -45.1209 N.am      11 UNK        -0.5000 
     20 C           0.4035  -23.0895  -44.1698 C.2       10 UNK         0.5000 
     21 O           0.0782  -24.2572  -44.3936 O.2       10 UNK        -0.5000 
     22 CA          0.8131  -22.6585  -42.7450 C.3       10 UNK         0.1400 
     23 CB          1.3947  -23.8259  -41.9228 C.3       10 UNK        -0.1800 
     24 N           1.7230  -21.5061  -42.7254 N.am      10 UNK        -0.5000 
     25 C           2.9304  -21.3941  -43.3063 C.2       9 UNK         0.5000 
     26 O           3.4947  -22.3160  -43.8959 O.2       9 UNK        -0.5000 
     27 CA          3.6110  -20.0116  -43.2464 C.3       9 UNK         0.1400 
     28 CB          4.0004  -19.5196  -44.6518 C.3       9 UNK        -0.1800 
     29 N           2.7369  -19.0142  -42.6239 N.am      9 UNK        -0.5000 
     30 C           2.9460  -18.4614  -41.4226 C.2       8 UNK         0.5000 
     31 O           3.9525  -18.6576  -40.7407 O.2       8 UNK        -0.5000 
     32 CA          1.8304  -17.5561  -40.8705 C.3       8 UNK         0.1400 
     33 CB          2.0703  -16.0928  -41.2727 C.3       8 UNK        -0.1800 
     34 N           0.4779  -17.9604  -41.2696 N.am      8 UNK        -0.5000 
     35 C          -0.1277  -19.0896  -40.8703 C.2       7 UNK         0.5000 
     36 O           0.4427  -19.9797  -40.2410 O.2       7 UNK        -0.5000 
     37 CA         -1.6076  -19.2699  -41.2396 C.3       7 UNK         0.1400 
     38 CB         -2.4977  -18.4517  -40.2915 C.3       7 UNK        -0.1800 
     39 N          -1.8686  -18.8535  -42.6129 N.am      7 UNK        -0.5000 
     40 C          -2.0984  -19.6854  -43.6371 C.2       6 UNK         0.5000 
     41 O          -2.1022  -20.9137  -43.5547 O.2       6 UNK        -0.5000 
     42 CA         -2.3184  -19.0203  -45.0079 C.3       6 UNK         0.1400 
     43 CB         -3.7323  -18.4205  -45.0600 C.3       6 UNK        -0.1800 
     44 N          -1.3529  -17.9601  -45.2945 N.am      6 UNK        -0.5000 
     45 C          -0.0203  -18.0311  -45.1539 C.2       5 UNK         0.5000 
     46 O           0.5913  -19.0638  -44.8713 O.2       5 UNK        -0.5000 
     47 CA          0.7540  -16.7032  -45.2622 C.3       5 UNK         0.1400 
     48 CB          1.4181  -16.5839  -46.6405 C.3       5 UNK        -0.1800 
     49 N          -0.0590  -15.5064  -44.9967 N.am      5 UNK        -0.5000 
     50 C          -0.7385  -15.2587  -43.8619 C.2       4 UNK         0.5000 
     51 O          -0.7626  -16.0335  -42.9039 O.2       4 UNK        -0.5000 
     52 CA         -1.5639  -13.9593  -43.7775 C.3       4 UNK         0.1400 
     53 CB         -0.7844  -12.8895  -42.9988 C.3       4 UNK        -0.1800 
     54 N          -1.9599  -13.4082  -45.0734 N.am      4 UNK        -0.5000 
     55 C          -2.7428  -14.0131  -45.9783 C.2       3 UNK         0.5000 
     56 O          -3.2686  -15.1122  -45.8015 O.2       3 UNK        -0.5000 
     57 CA         -2.9294  -13.2856  -47.3278 C.3       3 UNK         0.1400 
     58 CB         -4.2307  -12.4704  -47.3176 C.3       3 UNK        -0.1800 
     59 N          -1.8164  -12.4080  -47.7176 N.am      3 UNK        -0.5000 
     60 C          -0.5268  -12.7649  -47.8124 C.2       2 UNK         0.5000 
     61 O          -0.1066  -13.8861  -47.5175 O.2       2 UNK        -0.5000 
     62 CA          0.4540  -11.6554  -48.2434 C.3       2 UNK         0.1400 
     63 CB          0.6123  -10.6131  -47.1234 C.3       2 UNK        -0.1800 
     64 N           1.7801  -12.1795  -48.5715 N.am      2 UNK        -0.5000 
     65 C           2.0687  -12.9386  -49.6370 C.2       1 UNK         0.5000 
     66 O           1.2615  -13.1878  -50.5344 O.2       1 UNK        -0.5000 
     67 C          -1.1319  -22.9222  -46.9345 C.2       11 UNK         0.5000 
     68 O          -1.2564  -23.6500  -47.9211 O.2       11 UNK        -0.5000 
     69 N          -2.1491  -22.6235  -46.1117 N.am      12 UNK        -0.5000 
     70 CA         -3.5056  -23.1583  -46.2538 C.3       12 UNK         0.1400 
     71 CB         -4.4649  -22.3715  -45.3514 C.3       12 UNK        -0.1800 
     72 C          -3.6058  -24.6687  -45.9572 C.2       12 UNK         0.5000 
     73 O          -4.5728  -25.2958  -46.3887 O.2       12 UNK        -0.5000 
     74 N          -2.6178  -25.2250  -45.2440 N.am      13 UNK        -0.5000 
     75 CA         -2.4833  -26.6565  -44.9888 C.3       13 UNK         0.1400 
     76 CB         -2.1585  -26.8776  -43.5025 C.3       13 UNK        -0.1800 
     77 C          -1.3896  -27.2686  -45.8789 C.2       13 UNK         0.5000 
     78 O          -1.5971  -28.3487  -46.4323 O.2       13 UNK        -0.5000 
     79 N          -0.2429  -26.5813  -45.9904 N.am      14 UNK        -0.5000 
     80 CA          0.9500  -27.0703  -46.6834 C.3       14 UNK         0.1400 
     81 CB          2.1602  -26.2100  -46.2890 C.3       14 UNK        -0.1800 
     82 C           0.8027  -27.1353  -48.2146 C.2       14 UNK         0.5000 
     83 O           1.3115  -28.0794  -48.8210 O.2       14 UNK        -0.5000 
     84 N           0.1196  -26.1478  -48.8080 N.am      15 UNK        -0.5000 
     85 CA         -0.1531  -26.0808  -50.2455 C.3       15 UNK         0.1400 
     86 CB          0.3960  -24.7643  -50.8155 C.3       15 UNK        -0.1800 
     87 C          -1.6584  -26.1966  -50.5195 C.2       15 UNK         0.5000 
     88 O          -2.0500  -26.9218  -51.4341 O.2       15 UNK        -0.5000 
     89 N          -2.4678  -25.4855  -49.7188 N.am      16 UNK        -0.5000 
     90 CA         -3.9339  -25.4256  -49.7687 C.3       16 UNK         0.1400 
     91 CB         -4.5530  -26.8016  -49.4451 C.3       16 UNK        -0.1800 
     92 C          -4.4941  -24.8019  -51.0659 C.2       16 UNK         0.5000 
     93 O          -5.6423  -25.0640  -51.4284 O.2       16 UNK        -0.5000 
     94 N          -3.6871  -23.9667  -51.7288 N.am      17 UNK        -0.5000 
     95 CA         -4.0195  -23.2337  -52.9433 C.3       17 UNK         0.1400 
     96 CB         -3.9083  -24.1582  -54.1689 C.3       17 UNK        -0.1800 
     97 C          -3.0596  -22.0441  -53.0639 C.2       17 UNK         0.5000 
     98 O          -1.9342  -22.1172  -52.5647 O.2       17 UNK        -0.5000 
     99 N          -3.5205  -20.9814  -53.7282 N.am      18 UNK        -0.5000 
    100 CA        -2.7852  -19.7529  -54.0125 C.3       18 UNK         0.1400 
    101 CB        -2.6490  -18.9010  -52.7371 C.3       18 UNK        -0.1800 
    102 C         -3.5627  -18.9774  -55.0829 C.2       18 UNK         0.5000 
    103 O         -4.7533  -19.2391  -55.2773 O.2       18 UNK        -0.5000 
    104 N         -2.9080  -17.9951  -55.7150 N.am      19 UNK        -0.5000 
    105 CA        -3.5162  -17.0962  -56.7051 C.3       19 UNK         0.1400 
    106 CB        -2.4181  -16.2320  -57.3433 C.3       19 UNK        -0.1800 
    107 C         -4.6340  -16.2064  -56.1211 C.2       19 UNK         0.5000 
    108 O         -5.5771  -15.8636  -56.8343 O.2       19 UNK        -0.5000 
    109 N         -4.5201  -15.8820  -54.8262 N.am      20 UNK        -0.5000 
    110 CA        -5.5165  -15.1481  -54.0429 C.3       20 UNK         0.1400 
    111 CB        -4.7755  -14.2908  -53.0031 C.3       20 UNK        -0.1800 
    112 C         -6.5516  -16.0746  -53.3655 C.2       20 UNK         0.5000 
    113 O         -7.3975  -15.5795  -52.6206 O.2       20 UNK        -0.5000 
    114 N         -6.4591  -17.3930  -53.6087 N.am      21 UNK        -0.5000 
    115 CA        -7.2996  -18.4766  -53.0771 C.3       21 UNK         0.1400 
    116 CB        -8.7735  -18.2959  -53.4960 C.3       21 UNK        -0.1800 
    117 C         -7.1447  -18.7312  -51.5605 C.2       21 UNK         0.5000 
    118 O         -7.9304  -19.4887  -50.9898 O.2       21 UNK        -0.5000 
    119 N         -6.1263  -18.1263  -50.9381 N.am      22 UNK        -0.5000 
    120 CA        -5.7814  -18.2689  -49.5143 C.3       22 UNK         0.1400 
    121 C         -4.9331  -19.5314  -49.1701 C.2       22 UNK         0.5000 
    122 N         -4.5358  -20.3532  -50.1335 N.am      22 UNK        -0.7600 
    123 O         -4.6395  -19.7796  -48.0056 O.2       22 UNK        -0.5000 
    124 C124       -5.1610  -16.9592  -48.9588 C.3       23 UNK        -0.0398 
    125 S125       -3.6602  -16.4168  -49.8492 S.3       23 UNK        -0.2404 
    126 C126       -2.3432  -16.9162  -48.6987 C.3       23 UNK        -0.0205 
    127 H127        6.1716  -10.4549  -49.4641 H         1 UNK         0.0600 
    128 H128        5.1981   -9.3518  -50.4406 H         1 UNK         0.0600 
    129 H129        6.4278  -10.3619  -51.2087 H         1 UNK         0.0600 
    130 H130        5.0588  -12.2717  -48.8745 H         1 UNK         0.3000 
    131 H131        3.7008  -13.9596  -48.7492 H         1 UNK         0.0600 
    132 H132        4.8652  -14.5426  -51.0301 H         1 UNK         0.0800 
    133 H133        3.3385  -14.1917  -51.7755 H         1 UNK         0.0800 
    134 H134        2.2236  -16.9444  -52.3625 H         1 UNK         0.0800 
    135 H135        1.4106  -15.5285  -51.7451 H         1 UNK         0.0800 
    136 H136       -0.3238  -15.6789  -50.0450 H         1 UNK         0.1150 
    137 H137       -1.8075  -19.5563  -48.9898 H         1 UNK         0.1150 
    138 H138        1.7790  -19.1976  -51.3120 H         1 UNK         0.1150 
    139 H139       -0.8138  -21.5302  -49.9282 H         1 UNK         0.0800 
    140 H140        0.4013  -21.3819  -51.1709 H         1 UNK         0.0800 
    141 H141       -0.1234  -20.4568  -47.4874 H         1 UNK         0.0800 
    142 H142        1.4846  -20.6221  -46.8680 H         1 UNK         0.0800 
    143 H143        0.9658  -23.2038  -46.7835 H         1 UNK         0.0600 
    144 H144        0.6495  -21.1929  -44.8538 H         1 UNK         0.3000 
    145 H145       -0.1036  -22.3322  -42.2523 H         1 UNK         0.0600 
    146 H146        1.6701  -23.5016  -40.9193 H         1 UNK         0.0600 
    147 H147        0.6659  -24.6300  -41.8140 H         1 UNK         0.0600 
    148 H148        2.2811  -24.2509  -42.3946 H         1 UNK         0.0600 
    149 H149        1.3844  -20.7046  -42.2115 H         1 UNK         0.3000 
    150 H150        4.5286  -20.1380  -42.6687 H         1 UNK         0.0600 
    151 H151        4.7134  -20.1987  -45.1208 H         1 UNK         0.0600 
    152 H152        4.4708  -18.5373  -44.6086 H         1 UNK         0.0600 
    153 H153        3.1374  -19.4477  -45.3129 H         1 UNK         0.0600 
    154 H154        1.8813  -18.8058  -43.1237 H         1 UNK         0.3000 
    155 H155        1.8785  -17.6131  -39.7809 H         1 UNK         0.0600 
    156 H156        3.0447  -15.7475  -40.9249 H         1 UNK         0.0600 
    157 H157        1.3183  -15.4349  -40.8365 H         1 UNK         0.0600 
    158 H158        2.0439  -15.9596  -42.3536 H         1 UNK         0.0600 
    159 H159       -0.0498  -17.2739  -41.8047 H         1 UNK         0.3000 
    160 H160       -1.8579  -20.3249  -41.1082 H         1 UNK         0.0600 
    161 H161       -2.3057  -17.3814  -40.3785 H         1 UNK         0.0600 
    162 H162       -2.3259  -18.7343  -39.2520 H         1 UNK         0.0600 
    163 H163       -3.5538  -18.6196  -40.5034 H         1 UNK         0.0600 
    164 H164       -1.8138  -17.8594  -42.8013 H         1 UNK         0.3000 
    165 H165       -2.2255  -19.7803  -45.7851 H         1 UNK         0.0600 
    166 H166       -3.9627  -18.0338  -46.0496 H         1 UNK         0.0600 
    167 H167       -4.4920  -19.1640  -44.8197 H         1 UNK         0.0600 
    168 H168       -3.8483  -17.5984  -44.3525 H         1 UNK         0.0600 
    169 H169       -1.7476  -17.0529  -45.5035 H         1 UNK         0.3000 
    170 H170        1.5453  -16.7349  -44.5125 H         1 UNK         0.0600 
    171 H171        2.0464  -17.4498  -46.8540 H         1 UNK         0.0600 
    172 H172        0.6758  -16.5159  -47.4345 H         1 UNK         0.0600 
    173 H173        2.0515  -15.6988  -46.7010 H         1 UNK         0.0600 
    174 H174       -0.1157  -14.8346  -45.7570 H         1 UNK         0.3000 
    175 H175       -2.4758  -14.1916  -43.2239 H         1 UNK         0.0600 
    176 H176       -0.4920  -13.2572  -42.0141 H         1 UNK         0.0600 
    177 H177        0.1260  -12.5947  -43.5225 H         1 UNK         0.0600 
    178 H178       -1.3881  -11.9952  -42.8434 H         1 UNK         0.0600 
    179 H179       -1.5676  -12.5115  -45.3180 H         1 UNK         0.3000 
    180 H180       -3.0237  -14.0461  -48.1021 H         1 UNK         0.0600 
    181 H181       -4.1909  -11.6578  -46.5912 H         1 UNK         0.0600 
    182 H182       -5.0839  -13.1000  -47.0605 H         1 UNK         0.0600 
    183 H183       -4.4340  -12.0378  -48.2974 H         1 UNK         0.0600 
    184 H184       -2.0703  -11.4609  -47.9589 H         1 UNK         0.3000 
    185 H185        0.0480  -11.1649  -49.1305 H         1 UNK         0.0600 
    186 H186       -0.3404  -10.1411  -46.8808 H         1 UNK         0.0600 
    187 H187        0.9985  -11.0624  -46.2073 H         1 UNK         0.0600 
    188 H188        1.2962   -9.8173  -47.4199 H         1 UNK         0.0600 
    189 H189        2.5018  -12.0224  -47.8842 H         1 UNK         0.3000 
    190 H190       -1.9666  -22.0709  -45.2808 H         1 UNK         0.3000 
    191 H191       -3.8201  -23.0052  -47.2881 H         1 UNK         0.0600 
    192 H192       -4.1913  -22.4546  -44.2991 H         1 UNK         0.0600 
    193 H193       -5.4877  -22.7359  -45.4548 H         1 UNK         0.0600 
    194 H194       -4.4724  -21.3173  -45.6215 H         1 UNK         0.0600 
    195 H195       -1.8489  -24.6423  -44.9340 H         1 UNK         0.3000 
    196 H196       -3.4190  -27.1758  -45.2062 H         1 UNK         0.0600 
    197 H197       -2.0539  -27.9403  -43.2802 H         1 UNK         0.0600 
    198 H198       -2.9535  -26.4891  -42.8659 H         1 UNK         0.0600 
    199 H199       -1.2286  -26.3880  -43.2108 H         1 UNK         0.0600 
    200 H200       -0.1339  -25.7209  -45.4588 H         1 UNK         0.3000 
    201 H201        1.1399  -28.0865  -46.3312 H         1 UNK         0.0600 
    202 H202        2.2943  -26.1864  -45.2072 H         1 UNK         0.0600 
    203 H203        2.0572  -25.1828  -46.6353 H         1 UNK         0.0600 
    204 H204        3.0783  -26.6088  -46.7221 H         1 UNK         0.0600 
    205 H205       -0.2818  -25.4124  -48.2385 H         1 UNK         0.3000 
    206 H206        0.3386  -26.9007  -50.7729 H         1 UNK         0.0600 
    207 H207        1.4670  -24.6710  -50.6354 H         1 UNK         0.0600 
    208 H208        0.2384  -24.7085  -51.8933 H         1 UNK         0.0600 
    209 H209       -0.0942  -23.8997  -50.3707 H         1 UNK         0.0600 
    210 H210       -2.0353  -24.8709  -49.0326 H         1 UNK         0.3000 
    211 H211       -4.2295  -24.7408  -48.9753 H         1 UNK         0.0600 
    212 H212       -4.3828  -27.5230  -50.2444 H         1 UNK         0.0600 
    213 H213       -5.6309  -26.7208  -49.3015 H         1 UNK         0.0600 
    214 H214       -4.1363  -27.2132  -48.5255 H         1 UNK         0.0600 
    215 H215       -2.7595  -23.7757  -51.3716 H         1 UNK         0.3000 
    216 H216       -5.0393  -22.8515  -52.8621 H         1 UNK         0.0600 
    217 H217       -4.1285  -23.6174  -55.0900 H         1 UNK         0.0600 
    218 H218       -4.6117  -24.9885  -54.1056 H         1 UNK         0.0600 
    219 H219       -2.9055  -24.5770  -54.2634 H         1 UNK         0.0600 
    220 H220       -4.4369  -21.0051  -54.1601 H         1 UNK         0.3000 
    221 H221       -1.7976  -20.0085  -54.4018 H         1 UNK         0.0600 
    222 H222       -3.6155  -18.5486  -52.3780 H         1 UNK         0.0600 
    223 H223       -2.1865  -19.4690  -51.9333 H         1 UNK         0.0600 
    224 H224       -2.0229  -18.0248  -52.9086 H         1 UNK         0.0600 
    225 H225       -1.9340  -17.8347  -55.5006 H         1 UNK         0.3000 
    226 H226       -3.9637  -17.7127  -57.4876 H         1 UNK         0.0600 
    227 H227       -1.6642  -16.8491  -57.8323 H         1 UNK         0.0600 
    228 H228       -2.8349  -15.5686  -58.1024 H         1 UNK         0.0600 
    229 H229       -1.9148  -15.6085  -56.6032 H         1 UNK         0.0600 
    230 H230       -3.7021  -16.1992  -54.3272 H         1 UNK         0.3000 
    231 H231       -6.0725  -14.4747  -54.6983 H         1 UNK         0.0600 
    232 H232       -4.1042  -13.5811  -53.4868 H         1 UNK         0.0600 
    233 H233       -4.1803  -14.9040  -52.3273 H         1 UNK         0.0600 
    234 H234       -5.4719  -13.7115  -52.3954 H         1 UNK         0.0600 
    235 H235       -5.7465  -17.7031  -54.2590 H         1 UNK         0.3000 
    236 H236       -6.9403  -19.3860  -53.5602 H         1 UNK         0.0600 
    237 H237       -9.3599  -19.1838  -53.2572 H         1 UNK         0.0600 
    238 H238       -9.2413  -17.4528  -52.9874 H         1 UNK         0.0600 
    239 H239       -8.8607  -18.1318  -54.5701 H         1 UNK         0.0600 
    240 H240       -5.5289  -17.5133  -51.4716 H         1 UNK         0.3000 
    241 H241       -6.7157  -18.4140  -48.9690 H         1 UNK         0.0600 
    242 H242       -3.9937  -21.1635  -49.8891 H         1 UNK         0.3800 
    243 H243       -4.7720  -20.1645  -51.0915 H         1 UNK         0.3800 
    244 H244       -5.8937  -16.1563  -49.0494 H         1 UNK         0.0800 
    245 H245       -4.9629  -17.0379  -47.8897 H         1 UNK         0.0800 
    246 H246       -1.9799  -16.0533  -48.1426 H         1 UNK         0.0800 
    247 H247       -2.7266  -17.6171  -47.9583 H         1 UNK         0.0800 
@<TRIPOS>BOND
     1    1    2 1    
     2    1  127 1    
     3    1  128 1    
     4    1  129 1    
     5    2    3 2    
     6    2    4 am   BACKBONE|DICT|INTERRES
     7    4    5 1    
     8    4  130 1    
     9    5    6 1    
    10    5   65 1    
    11    5  131 1    
    12    6    7 1    
    13    6  132 1    
    14    6  133 1    
    15    7    8 1    
    16    8    9 1    
    17    8  134 1    
    18    8  135 1    
    19    9   10 ar   
    20    9   14 ar   
    21   10   11 ar   
    22   10  136 1    
    23   11   12 ar   
    24   11  126 1    
    25   12   13 ar   
    26   12  137 1    
    27   13   14 ar   
    28   13   15 1    
    29   14  138 1    
    30   15   16 1    
    31   15  139 1    
    32   15  140 1    
    33   16   17 1    
    34   17   18 1    
    35   17  141 1    
    36   17  142 1    
    37   18   19 1    
    38   18   67 1    
    39   18  143 1    
    40   19   20 am   BACKBONE|DICT|INTERRES
    41   19  144 1    
    42   20   21 2    
    43   20   22 1    
    44   22   23 1    
    45   22   24 1    
    46   22  145 1    
    47   23  146 1    
    48   23  147 1    
    49   23  148 1    
    50   24   25 am   BACKBONE|DICT|INTERRES
    51   24  149 1    
    52   25   26 2    
    53   25   27 1    
    54   27   28 1    
    55   27   29 1    
    56   27  150 1    
    57   28  151 1    
    58   28  152 1    
    59   28  153 1    
    60   29   30 am   BACKBONE|DICT|INTERRES
    61   29  154 1    
    62   30   31 2    
    63   30   32 1    
    64   32   33 1    
    65   32   34 1    
    66   32  155 1    
    67   33  156 1    
    68   33  157 1    
    69   33  158 1    
    70   34   35 am   BACKBONE|DICT|INTERRES
    71   34  159 1    
    72   35   36 2    
    73   35   37 1    
    74   37   38 1    
    75   37   39 1    
    76   37  160 1    
    77   38  161 1    
    78   38  162 1    
    79   38  163 1    
    80   39   40 am   BACKBONE|DICT|INTERRES
    81   39  164 1    
    82   40   41 2    
    83   40   42 1    
    84   42   43 1    
    85   42   44 1    
    86   42  165 1    
    87   43  166 1    
    88   43  167 1    
    89   43  168 1    
    90   44   45 am   BACKBONE|DICT|INTERRES
    91   44  169 1    
    92   45   46 2    
    93   45   47 1    
    94   47   48 1    
    95   47   49 1    
    96   47  170 1    
    97   48  171 1    
    98   48  172 1    
    99   48  173 1    
   100   49   50 am   BACKBONE|DICT|INTERRES
   101   49  174 1    
   102   50   51 2    
   103   50   52 1    
   104   52   53 1    
   105   52   54 1    
   106   52  175 1    
   107   53  176 1    
   108   53  177 1    
   109   53  178 1    
   110   54   55 am   BACKBONE|DICT|INTERRES
   111   54  179 1    
   112   55   56 2    
   113   55   57 1    
   114   57   58 1    
   115   57   59 1    
   116   57  180 1    
   117   58  181 1    
   118   58  182 1    
   119   58  183 1    
   120   59   60 am   BACKBONE|DICT|INTERRES
   121   59  184 1    
   122   60   61 2    
   123   60   62 1    
   124   62   63 1    
   125   62   64 1    
   126   62  185 1    
   127   63  186 1    
   128   63  187 1    
   129   63  188 1    
   130   64   65 am   BACKBONE|DICT|INTERRES
   131   64  189 1    
   132   65   66 2    
   133   67   68 2    
   134   67   69 am   BACKBONE|DICT|INTERRES
   135   69   70 1    
   136   69  190 1    
   137   70   71 1    
   138   70   72 1    
   139   70  191 1    
   140   71  192 1    
   141   71  193 1    
   142   71  194 1    
   143   72   73 2    
   144   72   74 am   BACKBONE|DICT|INTERRES
   145   74   75 1    
   146   74  195 1    
   147   75   76 1    
   148   75   77 1    
   149   75  196 1    
   150   76  197 1    
   151   76  198 1    
   152   76  199 1    
   153   77   78 2    
   154   77   79 am   BACKBONE|DICT|INTERRES
   155   79   80 1    
   156   79  200 1    
   157   80   81 1    
   158   80   82 1    
   159   80  201 1    
   160   81  202 1    
   161   81  203 1    
   162   81  204 1    
   163   82   83 2    
   164   82   84 am   BACKBONE|DICT|INTERRES
   165   84   85 1    
   166   84  205 1    
   167   85   86 1    
   168   85   87 1    
   169   85  206 1    
   170   86  207 1    
   171   86  208 1    
   172   86  209 1    
   173   87   88 2    
   174   87   89 am   BACKBONE|DICT|INTERRES
   175   89   90 1    
   176   89  210 1    
   177   90   91 1    
   178   90   92 1    
   179   90  211 1    
   180   91  212 1    
   181   91  213 1    
   182   91  214 1    
   183   92   93 2    
   184   92   94 am   BACKBONE|DICT|INTERRES
   185   94   95 1    
   186   94  215 1    
   187   95   96 1    
   188   95   97 1    
   189   95  216 1    
   190   96  217 1    
   191   96  218 1    
   192   96  219 1    
   193   97   98 2    
   194   97   99 am   BACKBONE|DICT|INTERRES
   195   99  100 1    
   196   99  220 1    
   197  100  101 1    
   198  100  102 1    
   199  100  221 1    
   200  101  222 1    
   201  101  223 1    
   202  101  224 1    
   203  102  103 2    
   204  102  104 am   BACKBONE|DICT|INTERRES
   205  104  105 1    
   206  104  225 1    
   207  105  106 1    
   208  105  107 1    
   209  105  226 1    
   210  106  227 1    
   211  106  228 1    
   212  106  229 1    
   213  107  108 2    
   214  107  109 am   BACKBONE|DICT|INTERRES
   215  109  110 1    
   216  109  230 1    
   217  110  111 1    
   218  110  112 1    
   219  110  231 1    
   220  111  232 1    
   221  111  233 1    
   222  111  234 1    
   223  112  113 2    
   224  112  114 am   BACKBONE|DICT|INTERRES
   225  114  115 1    
   226  114  235 1    
   227  115  116 1    
   228  115  117 1    
   229  115  236 1    
   230  116  237 1    
   231  116  238 1    
   232  116  239 1    
   233  117  118 2    
   234  117  119 am   BACKBONE|DICT|INTERRES
   235  119  120 1    
   236  119  240 1    
   237  120  121 1    
   238  120  124 1    
   239  120  241 1    
   240  121  122 am   BACKBONE|DICT|INTERRES
   241  121  123 2    
   242  122  242 1    
   243  122  243 1    
   244  124  125 1    
   245  124  244 1    
   246  124  245 1    
   247  125  126 1    
   248  126  246 1    
   249  126  247 1    
@<TRIPOS>SUBSTRUCTURE
     1 UNK         1 GROUP             0       ****    0 ROOT    
