@<TRIPOS>MOLECULE
3R540
247   249    1
SMALL
USER_CHARGES


@<TRIPOS>ATOM
      1 CA          1.4226  -14.9023  -49.4505 C.3       0 UNK        -0.1800 
      2 C           0.7858  -14.4559  -48.1435 C.2       0 UNK         0.5000 
      3 O           1.4964  -13.9875  -47.2531 O.2       0 UNK        -0.5000 
      4 N          -0.5433  -14.5957  -48.0328 N.am      1 UNK        -0.5000 
      5 CA         -1.3746  -14.1781  -46.8966 C.3       1 UNK         0.1400 
      6 C6         -2.8764  -14.4509  -47.1531 C.3       23 UNK        -0.0398 
      7 S7         -3.2732  -16.2304  -47.1631 S.3       23 UNK        -0.2404 
      8 C8         -3.8581  -16.4782  -48.8733 C.3       23 UNK        -0.0205 
      9 C9         -2.7435  -16.6426  -49.9011 C.ar      23 UNK        -0.0193 
     10 C10        -2.8908  -16.0809  -51.1716 C.ar      23 UNK        -0.1150 
     11 C11        -1.9379  -16.3116  -52.1674 C.ar      23 UNK        -0.0193 
     12 C12        -0.8145  -17.0897  -51.8765 C.ar      23 UNK        -0.1150 
     13 C13        -0.6442  -17.6525  -50.6090 C.ar      23 UNK        -0.0193 
     14 C14        -1.6124  -17.4195  -49.6265 C.ar      23 UNK        -0.1150 
     15 C15         0.5926  -18.4944  -50.3152 C.3       23 UNK        -0.0205 
     16 S16         0.2064  -20.2568  -50.0438 S.3       23 UNK        -0.2404 
     17 C17         0.2007  -20.2925  -48.2185 C.3       23 UNK        -0.0398 
     18 CA         -0.4631  -21.5070  -47.5272 C.3       11 UNK         0.1400 
     19 N          -0.4007  -21.3267  -46.0715 N.am      11 UNK        -0.5000 
     20 C          -0.8833  -22.1618  -45.1405 C.2       10 UNK         0.5000 
     21 O          -1.3662  -23.2614  -45.4063 O.2       10 UNK        -0.5000 
     22 CA         -0.8949  -21.6715  -43.6772 C.3       10 UNK         0.1400 
     23 CB          0.2744  -22.2961  -42.9021 C.3       10 UNK        -0.1800 
     24 N          -0.8510  -20.2136  -43.5183 N.am      10 UNK        -0.5000 
     25 C          -1.7093  -19.3301  -44.0526 C.2       9 UNK         0.5000 
     26 O          -2.6956  -19.6530  -44.7150 O.2       9 UNK        -0.5000 
     27 CA         -1.3701  -17.8354  -43.8807 C.3       9 UNK         0.1400 
     28 CB         -2.1046  -17.2507  -42.6674 C.3       9 UNK        -0.1800 
     29 N           0.0667  -17.5651  -43.7592 N.am      9 UNK        -0.5000 
     30 C           0.9799  -17.8510  -44.6999 C.2       8 UNK         0.5000 
     31 O           0.7079  -18.3897  -45.7708 O.2       8 UNK        -0.5000 
     32 CA          2.4436  -17.5186  -44.3803 C.3       8 UNK         0.1400 
     33 CB          2.7320  -16.0349  -44.6297 C.3       8 UNK        -0.1800 
     34 N           2.7762  -17.8632  -43.0003 N.am      8 UNK        -0.5000 
     35 C           3.2050  -19.0728  -42.6147 C.2       7 UNK         0.5000 
     36 O           3.4448  -19.9950  -43.3943 O.2       7 UNK        -0.5000 
     37 CA          3.3796  -19.3029  -41.1019 C.3       7 UNK         0.1400 
     38 CB          4.8270  -19.0152  -40.6759 C.3       7 UNK        -0.1800 
     39 N           2.4647  -18.5001  -40.2883 N.am      7 UNK        -0.5000 
     40 C           1.1367  -18.6813  -40.2445 C.2       6 UNK         0.5000 
     41 O           0.5440  -19.5472  -40.8877 O.2       6 UNK        -0.5000 
     42 CA          0.3261  -17.7051  -39.3705 C.3       6 UNK         0.1400 
     43 CB          0.2089  -18.2426  -37.9366 C.3       6 UNK        -0.1800 
     44 N           0.8630  -16.3424  -39.3298 N.am      6 UNK        -0.5000 
     45 C           1.0940  -15.5588  -40.3918 C.2       5 UNK         0.5000 
     46 O           0.9126  -15.9211  -41.5573 O.2       5 UNK        -0.5000 
     47 CA          1.6455  -14.1421  -40.1259 C.3       5 UNK         0.1400 
     48 CB          1.9563  -13.8424  -38.6418 C.3       5 UNK        -0.1800 
     49 N           2.8140  -13.8628  -40.9635 N.am      5 UNK        -0.5000 
     50 C           3.9642  -14.5545  -40.9974 C.2       4 UNK         0.5000 
     51 O           4.1961  -15.5232  -40.2719 O.2       4 UNK        -0.5000 
     52 CA          5.0144  -14.1048  -42.0318 C.3       4 UNK         0.1400 
     53 CB          5.9133  -15.2688  -42.4900 C.3       4 UNK        -0.1800 
     54 N           4.3647  -13.5062  -43.2002 N.am      4 UNK        -0.5000 
     55 C           4.5148  -12.2439  -43.6172 C.2       3 UNK         0.5000 
     56 O           5.2813  -11.4335  -43.0957 O.2       3 UNK        -0.5000 
     57 CA          3.6427  -11.8017  -44.8105 C.3       3 UNK         0.1400 
     58 CB          4.4007  -12.0095  -46.1304 C.3       3 UNK        -0.1800 
     59 N           2.3398  -12.4704  -44.9074 N.am      3 UNK        -0.5000 
     60 C           1.3733  -12.4551  -43.9796 C.2       2 UNK         0.5000 
     61 O           1.4872  -11.9273  -42.8727 O.2       2 UNK        -0.5000 
     62 CA          0.0562  -13.1212  -44.3983 C.3       2 UNK         0.1400 
     63 CB         -0.9486  -13.2977  -43.2470 C.3       2 UNK        -0.1800 
     64 N          -0.5474  -12.2955  -45.4428 N.am      2 UNK        -0.5000 
     65 C          -1.1593  -12.6765  -46.5725 C.2       1 UNK         0.5000 
     66 O          -1.5564  -11.8419  -47.3861 O.2       1 UNK        -0.5000 
     67 C          -1.9044  -21.7658  -48.0308 C.2       11 UNK         0.5000 
     68 O          -2.0899  -22.5934  -48.9227 O.2       11 UNK        -0.5000 
     69 N          -2.8964  -21.1117  -47.4042 N.am      12 UNK        -0.5000 
     70 CA         -4.3201  -21.2656  -47.7095 C.3       12 UNK         0.1400 
     71 CB         -5.0891  -20.0824  -47.1048 C.3       12 UNK        -0.1800 
     72 C          -4.9290  -22.5985  -47.2279 C.2       12 UNK         0.5000 
     73 O          -6.0277  -22.9447  -47.6691 O.2       12 UNK        -0.5000 
     74 N          -4.2277  -23.3060  -46.3318 N.am      13 UNK        -0.5000 
     75 CA         -4.5950  -24.6318  -45.8390 C.3       13 UNK         0.1400 
     76 CB         -4.3824  -24.6840  -44.3177 C.3       13 UNK        -0.1800 
     77 C          -3.7749  -25.7283  -46.5397 C.2       13 UNK         0.5000 
     78 O          -4.3214  -26.7930  -46.8293 O.2       13 UNK        -0.5000 
     79 N          -2.4882  -25.4518  -46.8072 N.am      14 UNK        -0.5000 
     80 CA         -1.5454  -26.3419  -47.4922 C.3       14 UNK         0.1400 
     81 CB         -0.1500  -25.6997  -47.4924 C.3       14 UNK        -0.1800 
     82 C          -1.9821  -26.6925  -48.9264 C.2       14 UNK         0.5000 
     83 O          -1.8604  -27.8474  -49.3371 O.2       14 UNK        -0.5000 
     84 N          -2.5299  -25.7000  -49.6329 N.am      15 UNK        -0.5000 
     85 CA         -3.3228  -25.8679  -50.8410 C.3       15 UNK         0.1400 
     86 CB         -2.5627  -25.2934  -52.0451 C.3       15 UNK        -0.1800 
     87 C          -4.6191  -25.0977  -50.5846 C.2       15 UNK         0.5000 
     88 O          -4.5421  -23.9450  -50.1605 O.2       15 UNK        -0.5000 
     89 N          -5.7732  -25.7356  -50.8144 N.am      16 UNK        -0.5000 
     90 CA         -7.1058  -25.2086  -50.5043 C.3       16 UNK         0.1400 
     91 CB         -8.1647  -26.2366  -50.9348 C.3       16 UNK        -0.1800 
     92 C          -7.3688  -23.8347  -51.1499 C.2       16 UNK         0.5000 
     93 O          -7.5020  -23.7542  -52.3716 O.2       16 UNK        -0.5000 
     94 N          -7.3779  -22.7851  -50.3162 N.am      17 UNK        -0.5000 
     95 CA         -7.4988  -21.3694  -50.6831 C.3       17 UNK         0.1400 
     96 CB         -8.8838  -21.0723  -51.2957 C.3       17 UNK        -0.1800 
     97 C          -6.3277  -20.8593  -51.5542 C.2       17 UNK         0.5000 
     98 O          -6.5154  -19.9469  -52.3598 O.2       17 UNK        -0.5000 
     99 N          -5.1406  -21.4540  -51.3591 N.am      18 UNK        -0.5000 
    100 CA        -3.8659  -21.1575  -52.0166 C.3       18 UNK         0.1400 
    101 CB        -3.3945  -19.7270  -51.6991 C.3       18 UNK        -0.1800 
    102 C         -3.8765  -21.4772  -53.5242 C.2       18 UNK         0.5000 
    103 O         -3.2450  -20.7733  -54.3155 O.2       18 UNK        -0.5000 
    104 N         -4.5730  -22.5613  -53.8982 N.am      19 UNK        -0.5000 
    105 CA        -4.7406  -23.0473  -55.2737 C.3       19 UNK         0.1400 
    106 CB        -5.6561  -24.2807  -55.2569 C.3       19 UNK        -0.1800 
    107 C         -3.4280  -23.3706  -56.0184 C.2       19 UNK         0.5000 
    108 O         -3.3977  -23.3023  -57.2471 O.2       19 UNK        -0.5000 
    109 N         -2.3695  -23.7042  -55.2681 N.am      20 UNK        -0.5000 
    110 CA        -1.0230  -23.9511  -55.7872 C.3       20 UNK         0.1400 
    111 CB        -0.2400  -24.7762  -54.7540 C.3       20 UNK        -0.1800 
    112 C         -0.2555  -22.6588  -56.1363 C.2       20 UNK         0.5000 
    113 O          0.7401  -22.7330  -56.8582 O.2       20 UNK        -0.5000 
    114 N         -0.7116  -21.5136  -55.6133 N.am      21 UNK        -0.5000 
    115 CA        -0.1458  -20.1907  -55.8439 C.3       21 UNK         0.1400 
    116 CB         0.1114  -19.5167  -54.4809 C.3       21 UNK        -0.1800 
    117 C         -1.1040  -19.4098  -56.7603 C.2       21 UNK         0.5000 
    118 O         -1.1431  -19.6836  -57.9610 O.2       21 UNK        -0.5000 
    119 N         -1.8528  -18.4572  -56.1937 N.am      22 UNK        -0.5000 
    120 CA        -2.8631  -17.6465  -56.8911 C.3       22 UNK         0.1400 
    121 C         -4.1892  -18.3936  -57.2187 C.2       22 UNK         0.5000 
    122 N         -4.4956  -19.5208  -56.5898 N.am      22 UNK        -0.7600 
    123 O         -4.9496  -17.9451  -58.0727 O.2       22 UNK        -0.5000 
    124 C124       -3.1288  -16.3057  -56.1562 C.3       23 UNK        -0.0398 
    125 S125       -3.5586  -16.5218  -54.3918 S.3       23 UNK        -0.2404 
    126 C126       -2.1338  -15.7451  -53.5645 C.3       23 UNK        -0.0205 
    127 H127        2.0758  -14.1190  -49.8347 H         1 UNK         0.0600 
    128 H128        0.6736  -15.1176  -50.2120 H         1 UNK         0.0600 
    129 H129        2.0222  -15.7975  -49.2892 H         1 UNK         0.0600 
    130 H130       -1.0535  -15.0034  -48.8035 H         1 UNK         0.3000 
    131 H131       -1.0981  -14.8056  -46.0534 H         1 UNK         0.0600 
    132 H132       -3.1999  -13.9850  -48.0857 H         1 UNK         0.0800 
    133 H133       -3.4859  -14.0024  -46.3661 H         1 UNK         0.0800 
    134 H134       -4.5231  -15.6577  -49.1470 H         1 UNK         0.0800 
    135 H135       -4.4697  -17.3794  -48.9049 H         1 UNK         0.0800 
    136 H136       -3.7699  -15.4965  -51.4050 H         1 UNK         0.1150 
    137 H137       -0.0722  -17.2639  -52.6413 H         1 UNK         0.1150 
    138 H138       -1.5050  -17.8568  -48.6479 H         1 UNK         0.1150 
    139 H139        1.2983  -18.4289  -51.1447 H         1 UNK         0.0800 
    140 H140        1.1137  -18.0843  -49.4492 H         1 UNK         0.0800 
    141 H141       -0.2842  -19.3861  -47.8663 H         1 UNK         0.0800 
    142 H142        1.2385  -20.2155  -47.8905 H         1 UNK         0.0800 
    143 H143        0.1262  -22.3935  -47.7664 H         1 UNK         0.0600 
    144 H144       -0.0341  -20.4348  -45.7593 H         1 UNK         0.3000 
    145 H145       -1.8282  -22.0199  -43.2311 H         1 UNK         0.0600 
    146 H146        0.2037  -22.0767  -41.8369 H         1 UNK         0.0600 
    147 H147        1.2360  -21.9242  -43.2585 H         1 UNK         0.0600 
    148 H148        0.2810  -23.3819  -43.0070 H         1 UNK         0.0600 
    149 H149       -0.1083  -19.8535  -42.9306 H         1 UNK         0.3000 
    150 H150       -1.7221  -17.3159  -44.7737 H         1 UNK         0.0600 
    151 H151       -1.8378  -17.7756  -41.7513 H         1 UNK         0.0600 
    152 H152       -3.1850  -17.3357  -42.7901 H         1 UNK         0.0600 
    153 H153       -1.8736  -16.1943  -42.5318 H         1 UNK         0.0600 
    154 H154        0.3689  -17.0903  -42.9124 H         1 UNK         0.3000 
    155 H155        3.0688  -18.0944  -45.0665 H         1 UNK         0.0600 
    156 H156        2.3752  -15.7351  -45.6137 H         1 UNK         0.0600 
    157 H157        3.8029  -15.8413  -44.6119 H         1 UNK         0.0600 
    158 H158        2.2473  -15.4009  -43.8884 H         1 UNK         0.0600 
    159 H159        2.5405  -17.1839  -42.2882 H         1 UNK         0.3000 
    160 H160        3.1701  -20.3563  -40.9033 H         1 UNK         0.0600 
    161 H161        5.1038  -17.9773  -40.8614 H         1 UNK         0.0600 
    162 H162        5.5275  -19.6433  -41.2278 H         1 UNK         0.0600 
    163 H163        4.9752  -19.2184  -39.6152 H         1 UNK         0.0600 
    164 H164        2.8705  -17.7354  -39.7658 H         1 UNK         0.3000 
    165 H165       -0.6788  -17.6451  -39.7889 H         1 UNK         0.0600 
    166 H166       -0.4466  -17.6157  -37.3318 H         1 UNK         0.0600 
    167 H167       -0.2108  -19.2496  -37.9299 H         1 UNK         0.0600 
    168 H168        1.1806  -18.2884  -37.4433 H         1 UNK         0.0600 
    169 H169        1.0647  -15.9702  -38.4133 H         1 UNK         0.3000 
    170 H170        0.8665  -13.4489  -40.4451 H         1 UNK         0.0600 
    171 H171        2.7073  -14.5185  -38.2315 H         1 UNK         0.0600 
    172 H172        2.3318  -12.8259  -38.5235 H         1 UNK         0.0600 
    173 H173        1.0601  -13.9215  -38.0252 H         1 UNK         0.0600 
    174 H174        2.6921  -13.0999  -41.6201 H         1 UNK         0.3000 
    175 H175        5.6463  -13.3702  -41.5293 H         1 UNK         0.0600 
    176 H176        5.3317  -16.1050  -42.8780 H         1 UNK         0.0600 
    177 H177        6.6068  -14.9502  -43.2682 H         1 UNK         0.0600 
    178 H178        6.5114  -15.6482  -41.6606 H         1 UNK         0.0600 
    179 H179        3.7036  -14.0894  -43.6917 H         1 UNK         0.3000 
    180 H180        3.4510  -10.7335  -44.6917 H         1 UNK         0.0600 
    181 H181        3.8407  -11.6060  -46.9743 H         1 UNK         0.0600 
    182 H182        4.5825  -13.0673  -46.3256 H         1 UNK         0.0600 
    183 H183        5.3682  -11.5060  -46.1121 H         1 UNK         0.0600 
    184 H184        2.1369  -12.9309  -45.7929 H         1 UNK         0.3000 
    185 H185        0.3455  -14.1057  -44.7610 H         1 UNK         0.0600 
    186 H186       -1.2518  -12.3387  -42.8254 H         1 UNK         0.0600 
    187 H187       -1.8475  -13.8135  -43.5844 H         1 UNK         0.0600 
    188 H188       -0.5205  -13.8906  -42.4408 H         1 UNK         0.0600 
    189 H189       -0.4101  -11.3042  -45.3047 H         1 UNK         0.3000 
    190 H190       -2.6727  -20.4983  -46.6273 H         1 UNK         0.3000 
    191 H191       -4.4337  -21.2264  -48.7923 H         1 UNK         0.0600 
    192 H192       -4.6610  -19.1314  -47.4167 H         1 UNK         0.0600 
    193 H193       -5.0748  -20.1102  -46.0146 H         1 UNK         0.0600 
    194 H194       -6.1331  -20.0914  -47.4201 H         1 UNK         0.0600 
    195 H195       -3.3239  -22.9555  -46.0409 H         1 UNK         0.3000 
    196 H196       -5.6510  -24.8284  -46.0361 H         1 UNK         0.0600 
    197 H197       -4.9855  -23.9305  -43.8110 H         1 UNK         0.0600 
    198 H198       -3.3400  -24.5163  -44.0454 H         1 UNK         0.0600 
    199 H199       -4.6729  -25.6561  -43.9177 H         1 UNK         0.0600 
    200 H200       -2.1007  -24.5792  -46.4587 H         1 UNK         0.3000 
    201 H201       -1.4956  -27.2714  -46.9217 H         1 UNK         0.0600 
    202 H202        0.5844  -26.3623  -47.9518 H         1 UNK         0.0600 
    203 H203        0.1895  -25.4897  -46.4779 H         1 UNK         0.0600 
    204 H204       -0.1415  -24.7631  -48.0501 H         1 UNK         0.0600 
    205 H205       -2.6005  -24.7768  -49.2145 H         1 UNK         0.3000 
    206 H206       -3.5524  -26.9203  -51.0210 H         1 UNK         0.0600 
    207 H207       -1.6211  -25.8212  -52.1953 H         1 UNK         0.0600 
    208 H208       -2.3340  -24.2352  -51.9116 H         1 UNK         0.0600 
    209 H209       -3.1482  -25.3997  -52.9586 H         1 UNK         0.0600 
    210 H210       -5.7458  -26.6746  -51.1836 H         1 UNK         0.3000 
    211 H211       -7.1682  -25.0993  -49.4194 H         1 UNK         0.0600 
    212 H212       -8.1147  -26.4429  -52.0048 H         1 UNK         0.0600 
    213 H213       -9.1704  -25.8748  -50.7170 H         1 UNK         0.0600 
    214 H214       -8.0380  -27.1805  -50.4043 H         1 UNK         0.0600 
    215 H215       -7.1476  -22.9550  -49.3404 H         1 UNK         0.3000 
    216 H216       -7.4320  -20.8146  -49.7462 H         1 UNK         0.0600 
    217 H217       -9.0350  -19.9992  -51.4180 H         1 UNK         0.0600 
    218 H218       -9.6856  -21.4402  -50.6555 H         1 UNK         0.0600 
    219 H219       -9.0003  -21.5310  -52.2779 H         1 UNK         0.0600 
    220 H220       -5.1039  -22.2491  -50.7237 H         1 UNK         0.3000 
    221 H221       -3.1385  -21.8378  -51.5715 H         1 UNK         0.0600 
    222 H222       -4.0206  -18.9710  -52.1737 H         1 UNK         0.0600 
    223 H223       -3.3959  -19.5427  -50.6251 H         1 UNK         0.0600 
    224 H224       -2.3751  -19.5706  -52.0498 H         1 UNK         0.0600 
    225 H225       -5.1044  -23.0468  -53.1890 H         1 UNK         0.3000 
    226 H226       -5.2433  -22.2603  -55.8381 H         1 UNK         0.0600 
    227 H227       -5.2554  -25.0721  -54.6222 H         1 UNK         0.0600 
    228 H228       -6.6505  -24.0267  -54.8907 H         1 UNK         0.0600 
    229 H229       -5.7809  -24.6933  -56.2590 H         1 UNK         0.0600 
    230 H230       -2.4828  -23.7329  -54.2669 H         1 UNK         0.3000 
    231 H231       -1.1029  -24.5415  -56.7025 H         1 UNK         0.0600 
    232 H232        0.7666  -24.9977  -55.1111 H         1 UNK         0.0600 
    233 H233       -0.1419  -24.2463  -53.8057 H         1 UNK         0.0600 
    234 H234       -0.7294  -25.7307  -54.5602 H         1 UNK         0.0600 
    235 H235       -1.5821  -21.5241  -55.0926 H         1 UNK         0.3000 
    236 H236        0.8105  -20.2607  -56.3658 H         1 UNK         0.0600 
    237 H237       -0.7930  -19.4495  -53.8758 H         1 UNK         0.0600 
    238 H238        0.8464  -20.0775  -53.9033 H         1 UNK         0.0600 
    239 H239        0.5078  -18.5094  -54.6124 H         1 UNK         0.0600 
    240 H240       -1.8104  -18.3316  -55.1927 H         1 UNK         0.3000 
    241 H241       -2.4407  -17.3840  -57.8631 H         1 UNK         0.0600 
    242 H242       -5.3587  -19.9853  -56.8169 H         1 UNK         0.3800 
    243 H243       -3.9082  -19.8766  -55.8407 H         1 UNK         0.3800 
    244 H244       -3.9303  -15.7472  -56.6429 H         1 UNK         0.0800 
    245 H245       -2.2477  -15.6690  -56.2410 H         1 UNK         0.0800 
    246 H246       -2.2903  -14.6672  -53.5070 H         1 UNK         0.0800 
    247 H247       -1.2317  -15.8980  -54.1588 H         1 UNK         0.0800 
@<TRIPOS>BOND
     1    1    2 1    
     2    1  127 1    
     3    1  128 1    
     4    1  129 1    
     5    2    3 2    
     6    2    4 am   BACKBONE|DICT|INTERRES
     7    4    5 1    
     8    4  130 1    
     9    5    6 1    
    10    5   65 1    
    11    5  131 1    
    12    6    7 1    
    13    6  132 1    
    14    6  133 1    
    15    7    8 1    
    16    8    9 1    
    17    8  134 1    
    18    8  135 1    
    19    9   10 ar   
    20    9   14 ar   
    21   10   11 ar   
    22   10  136 1    
    23   11   12 ar   
    24   11  126 1    
    25   12   13 ar   
    26   12  137 1    
    27   13   14 ar   
    28   13   15 1    
    29   14  138 1    
    30   15   16 1    
    31   15  139 1    
    32   15  140 1    
    33   16   17 1    
    34   17   18 1    
    35   17  141 1    
    36   17  142 1    
    37   18   19 1    
    38   18   67 1    
    39   18  143 1    
    40   19   20 am   BACKBONE|DICT|INTERRES
    41   19  144 1    
    42   20   21 2    
    43   20   22 1    
    44   22   23 1    
    45   22   24 1    
    46   22  145 1    
    47   23  146 1    
    48   23  147 1    
    49   23  148 1    
    50   24   25 am   BACKBONE|DICT|INTERRES
    51   24  149 1    
    52   25   26 2    
    53   25   27 1    
    54   27   28 1    
    55   27   29 1    
    56   27  150 1    
    57   28  151 1    
    58   28  152 1    
    59   28  153 1    
    60   29   30 am   BACKBONE|DICT|INTERRES
    61   29  154 1    
    62   30   31 2    
    63   30   32 1    
    64   32   33 1    
    65   32   34 1    
    66   32  155 1    
    67   33  156 1    
    68   33  157 1    
    69   33  158 1    
    70   34   35 am   BACKBONE|DICT|INTERRES
    71   34  159 1    
    72   35   36 2    
    73   35   37 1    
    74   37   38 1    
    75   37   39 1    
    76   37  160 1    
    77   38  161 1    
    78   38  162 1    
    79   38  163 1    
    80   39   40 am   BACKBONE|DICT|INTERRES
    81   39  164 1    
    82   40   41 2    
    83   40   42 1    
    84   42   43 1    
    85   42   44 1    
    86   42  165 1    
    87   43  166 1    
    88   43  167 1    
    89   43  168 1    
    90   44   45 am   BACKBONE|DICT|INTERRES
    91   44  169 1    
    92   45   46 2    
    93   45   47 1    
    94   47   48 1    
    95   47   49 1    
    96   47  170 1    
    97   48  171 1    
    98   48  172 1    
    99   48  173 1    
   100   49   50 am   BACKBONE|DICT|INTERRES
   101   49  174 1    
   102   50   51 2    
   103   50   52 1    
   104   52   53 1    
   105   52   54 1    
   106   52  175 1    
   107   53  176 1    
   108   53  177 1    
   109   53  178 1    
   110   54   55 am   BACKBONE|DICT|INTERRES
   111   54  179 1    
   112   55   56 2    
   113   55   57 1    
   114   57   58 1    
   115   57   59 1    
   116   57  180 1    
   117   58  181 1    
   118   58  182 1    
   119   58  183 1    
   120   59   60 am   BACKBONE|DICT|INTERRES
   121   59  184 1    
   122   60   61 2    
   123   60   62 1    
   124   62   63 1    
   125   62   64 1    
   126   62  185 1    
   127   63  186 1    
   128   63  187 1    
   129   63  188 1    
   130   64   65 am   BACKBONE|DICT|INTERRES
   131   64  189 1    
   132   65   66 2    
   133   67   68 2    
   134   67   69 am   BACKBONE|DICT|INTERRES
   135   69   70 1    
   136   69  190 1    
   137   70   71 1    
   138   70   72 1    
   139   70  191 1    
   140   71  192 1    
   141   71  193 1    
   142   71  194 1    
   143   72   73 2    
   144   72   74 am   BACKBONE|DICT|INTERRES
   145   74   75 1    
   146   74  195 1    
   147   75   76 1    
   148   75   77 1    
   149   75  196 1    
   150   76  197 1    
   151   76  198 1    
   152   76  199 1    
   153   77   78 2    
   154   77   79 am   BACKBONE|DICT|INTERRES
   155   79   80 1    
   156   79  200 1    
   157   80   81 1    
   158   80   82 1    
   159   80  201 1    
   160   81  202 1    
   161   81  203 1    
   162   81  204 1    
   163   82   83 2    
   164   82   84 am   BACKBONE|DICT|INTERRES
   165   84   85 1    
   166   84  205 1    
   167   85   86 1    
   168   85   87 1    
   169   85  206 1    
   170   86  207 1    
   171   86  208 1    
   172   86  209 1    
   173   87   88 2    
   174   87   89 am   BACKBONE|DICT|INTERRES
   175   89   90 1    
   176   89  210 1    
   177   90   91 1    
   178   90   92 1    
   179   90  211 1    
   180   91  212 1    
   181   91  213 1    
   182   91  214 1    
   183   92   93 2    
   184   92   94 am   BACKBONE|DICT|INTERRES
   185   94   95 1    
   186   94  215 1    
   187   95   96 1    
   188   95   97 1    
   189   95  216 1    
   190   96  217 1    
   191   96  218 1    
   192   96  219 1    
   193   97   98 2    
   194   97   99 am   BACKBONE|DICT|INTERRES
   195   99  100 1    
   196   99  220 1    
   197  100  101 1    
   198  100  102 1    
   199  100  221 1    
   200  101  222 1    
   201  101  223 1    
   202  101  224 1    
   203  102  103 2    
   204  102  104 am   BACKBONE|DICT|INTERRES
   205  104  105 1    
   206  104  225 1    
   207  105  106 1    
   208  105  107 1    
   209  105  226 1    
   210  106  227 1    
   211  106  228 1    
   212  106  229 1    
   213  107  108 2    
   214  107  109 am   BACKBONE|DICT|INTERRES
   215  109  110 1    
   216  109  230 1    
   217  110  111 1    
   218  110  112 1    
   219  110  231 1    
   220  111  232 1    
   221  111  233 1    
   222  111  234 1    
   223  112  113 2    
   224  112  114 am   BACKBONE|DICT|INTERRES
   225  114  115 1    
   226  114  235 1    
   227  115  116 1    
   228  115  117 1    
   229  115  236 1    
   230  116  237 1    
   231  116  238 1    
   232  116  239 1    
   233  117  118 2    
   234  117  119 am   BACKBONE|DICT|INTERRES
   235  119  120 1    
   236  119  240 1    
   237  120  121 1    
   238  120  124 1    
   239  120  241 1    
   240  121  122 am   BACKBONE|DICT|INTERRES
   241  121  123 2    
   242  122  242 1    
   243  122  243 1    
   244  124  125 1    
   245  124  244 1    
   246  124  245 1    
   247  125  126 1    
   248  126  246 1    
   249  126  247 1    
@<TRIPOS>SUBSTRUCTURE
     1 UNK         1 GROUP             0       ****    0 ROOT    
