@<TRIPOS>MOLECULE
3R540
247   249    1
SMALL
USER_CHARGES


@<TRIPOS>ATOM
      1 CA          1.1432  -11.2624  -52.9751 C.3       0 UNK        -0.1800 
      2 C           2.3180  -11.8889  -52.2371 C.2       0 UNK         0.5000 
      3 O           3.3084  -11.2072  -51.9703 O.2       0 UNK        -0.5000 
      4 N           2.2165  -13.1839  -51.9175 N.am      1 UNK        -0.5000 
      5 CA          3.2049  -13.9363  -51.1422 C.3       1 UNK         0.1400 
      6 C6          2.9615  -15.4609  -51.2695 C.3       23 UNK        -0.0398 
      7 S7          4.4334  -16.4583  -50.8504 S.3       23 UNK        -0.2404 
      8 C8          4.1401  -17.9760  -51.8116 C.3       23 UNK        -0.0205 
      9 C9          3.1043  -18.8751  -51.1526 C.ar      23 UNK        -0.0193 
     10 C10         1.7432  -18.6862  -51.4066 C.ar      23 UNK        -0.1150 
     11 C11         0.7863  -19.5058  -50.8012 C.ar      23 UNK        -0.0193 
     12 C12         1.2050  -20.5541  -49.9790 C.ar      23 UNK        -0.1150 
     13 C13         2.5636  -20.7682  -49.7303 C.ar      23 UNK        -0.0193 
     14 C14         3.5078  -19.9138  -50.3077 C.ar      23 UNK        -0.1150 
     15 C15         3.0172  -21.9567  -48.8940 C.3       23 UNK        -0.0205 
     16 S16         3.2133  -21.5701  -47.1236 S.3       23 UNK        -0.2404 
     17 C17         1.5002  -21.3805  -46.5223 C.3       23 UNK        -0.0398 
     18 CA          0.7371  -22.7261  -46.3502 C.3       11 UNK         0.1400 
     19 N          -0.0018  -22.8076  -45.0863 N.am      11 UNK        -0.5000 
     20 C          -0.5382  -23.9346  -44.5901 C.2       10 UNK         0.5000 
     21 O          -0.4083  -25.0385  -45.1168 O.2       10 UNK        -0.5000 
     22 CA         -1.4030  -23.8102  -43.3199 C.3       10 UNK         0.1400 
     23 CB         -0.5355  -23.9691  -42.0628 C.3       10 UNK        -0.1800 
     24 N          -2.1318  -22.5447  -43.2437 N.am      10 UNK        -0.5000 
     25 C          -3.0694  -22.1425  -44.1141 C.2       9 UNK         0.5000 
     26 O          -3.4971  -22.8491  -45.0261 O.2       9 UNK        -0.5000 
     27 CA         -3.5581  -20.6846  -43.9828 C.3       9 UNK         0.1400 
     28 CB         -4.8481  -20.6204  -43.1530 C.3       9 UNK        -0.1800 
     29 N          -2.5582  -19.7854  -43.3935 N.am      9 UNK        -0.5000 
     30 C          -1.3420  -19.5503  -43.9032 C.2       8 UNK         0.5000 
     31 O          -0.9509  -20.0255  -44.9713 O.2       8 UNK        -0.5000 
     32 CA         -0.4094  -18.6731  -43.0527 C.3       8 UNK         0.1400 
     33 CB          1.0610  -18.7693  -43.4956 C.3       8 UNK        -0.1800 
     34 N          -0.8213  -17.2782  -43.1047 N.am      8 UNK        -0.5000 
     35 C          -1.7662  -16.7077  -42.3492 C.2       7 UNK         0.5000 
     36 O          -2.4697  -17.3325  -41.5521 O.2       7 UNK        -0.5000 
     37 CA         -1.9086  -15.1781  -42.5073 C.3       7 UNK         0.1400 
     38 CB         -2.7812  -14.5281  -41.4142 C.3       7 UNK        -0.1800 
     39 N          -0.6006  -14.5171  -42.6033 N.am      7 UNK        -0.5000 
     40 C           0.3882  -14.5217  -41.6943 C.2       6 UNK         0.5000 
     41 O           0.2834  -14.9994  -40.5640 O.2       6 UNK        -0.5000 
     42 CA          1.7425  -13.9227  -42.1265 C.3       6 UNK         0.1400 
     43 CB          2.7461  -15.0495  -42.4195 C.3       6 UNK        -0.1800 
     44 N           1.6524  -13.0665  -43.3090 N.am      6 UNK        -0.5000 
     45 C           1.1354  -11.8312  -43.3294 C.2       5 UNK         0.5000 
     46 O           0.7277  -11.2402  -42.3291 O.2       5 UNK        -0.5000 
     47 CA          1.0206  -11.1651  -44.7128 C.3       5 UNK         0.1400 
     48 CB          2.3436  -10.4934  -45.1120 C.3       5 UNK        -0.1800 
     49 N           0.6210  -12.1154  -45.7537 N.am      5 UNK        -0.5000 
     50 C          -0.5869  -12.6917  -45.8326 C.2       4 UNK         0.5000 
     51 O          -1.5074  -12.4659  -45.0479 O.2       4 UNK        -0.5000 
     52 CA         -0.7900  -13.7189  -46.9576 C.3       4 UNK         0.1400 
     53 CB         -1.1689  -13.0111  -48.2651 C.3       4 UNK        -0.1800 
     54 N           0.3938  -14.5573  -47.1617 N.am      4 UNK        -0.5000 
     55 C           0.7545  -15.5413  -46.3222 C.2       3 UNK         0.5000 
     56 O           0.1041  -15.8482  -45.3245 O.2       3 UNK        -0.5000 
     57 CA          2.0779  -16.2818  -46.6036 C.3       3 UNK         0.1400 
     58 CB          1.8323  -17.4961  -47.5138 C.3       3 UNK        -0.1800 
     59 N           3.1088  -15.4321  -47.1983 N.am      3 UNK        -0.5000 
     60 C           3.5906  -14.3024  -46.6586 C.2       2 UNK         0.5000 
     61 O           3.2863  -13.9011  -45.5360 O.2       2 UNK        -0.5000 
     62 CA          4.5121  -13.4386  -47.5442 C.3       2 UNK         0.1400 
     63 CB          5.9838  -13.6757  -47.1765 C.3       2 UNK        -0.1800 
     64 N           4.3347  -13.6614  -48.9837 N.am      2 UNK        -0.5000 
     65 C           3.1887  -13.5025  -49.6610 C.2       1 UNK         0.5000 
     66 O           2.1382  -13.1184  -49.1390 O.2       1 UNK        -0.5000 
     67 C          -0.2175  -22.9792  -47.5300 C.2       11 UNK         0.5000 
     68 O           0.0850  -23.7997  -48.3933 O.2       11 UNK        -0.5000 
     69 N          -1.3721  -22.2967  -47.5231 N.am      12 UNK        -0.5000 
     70 CA         -2.4295  -22.4439  -48.5249 C.3       12 UNK         0.1400 
     71 CB         -3.5371  -21.4172  -48.2491 C.3       12 UNK        -0.1800 
     72 C          -2.9922  -23.8769  -48.5816 C.2       12 UNK         0.5000 
     73 O          -3.1738  -24.4183  -49.6725 O.2       12 UNK        -0.5000 
     74 N          -3.2013  -24.4851  -47.4058 N.am      13 UNK        -0.5000 
     75 CA         -3.5978  -25.8836  -47.2522 C.3       13 UNK         0.1400 
     76 CB         -3.9187  -26.1705  -45.7784 C.3       13 UNK        -0.1800 
     77 C          -2.5408  -26.8668  -47.7907 C.2       13 UNK         0.5000 
     78 O          -2.8969  -27.7778  -48.5380 O.2       13 UNK        -0.5000 
     79 N          -1.2622  -26.6476  -47.4464 N.am      14 UNK        -0.5000 
     80 CA         -0.1233  -27.4412  -47.9234 C.3       14 UNK         0.1400 
     81 CB          1.1469  -27.0363  -47.1604 C.3       14 UNK        -0.1800 
     82 C           0.1006  -27.3310  -49.4440 C.2       14 UNK         0.5000 
     83 O           0.4567  -28.3226  -50.0813 O.2       14 UNK        -0.5000 
     84 N          -0.1522  -26.1398  -50.0010 N.am      15 UNK        -0.5000 
     85 CA         -0.1364  -25.8497  -51.4357 C.3       15 UNK         0.1400 
     86 CB         -0.0654  -24.3250  -51.6285 C.3       15 UNK        -0.1800 
     87 C          -1.3432  -26.4357  -52.2006 C.2       15 UNK         0.5000 
     88 O          -1.3420  -26.3936  -53.4316 O.2       15 UNK        -0.5000 
     89 N          -2.3453  -26.9542  -51.4720 N.am      16 UNK        -0.5000 
     90 CA         -3.6223  -27.4893  -51.9549 C.3       16 UNK         0.1400 
     91 CB         -3.4080  -28.7601  -52.8035 C.3       16 UNK        -0.1800 
     92 C          -4.4786  -26.4173  -52.6605 C.2       16 UNK         0.5000 
     93 O          -5.1402  -26.7031  -53.6604 O.2       16 UNK        -0.5000 
     94 N          -4.4450  -25.1961  -52.1174 N.am      17 UNK        -0.5000 
     95 CA         -5.1335  -24.0151  -52.6218 C.3       17 UNK         0.1400 
     96 CB         -4.1628  -23.1950  -53.4924 C.3       17 UNK        -0.1800 
     97 C          -5.6823  -23.2258  -51.4248 C.2       17 UNK         0.5000 
     98 O          -5.4275  -22.0295  -51.3021 O.2       17 UNK        -0.5000 
     99 N          -6.4154  -23.9206  -50.5425 N.am      18 UNK        -0.5000 
    100 CA        -6.9081  -23.4351  -49.2458 C.3       18 UNK         0.1400 
    101 CB        -7.6059  -24.5970  -48.5221 C.3       18 UNK        -0.1800 
    102 C         -7.8255  -22.1926  -49.2942 C.2       18 UNK         0.5000 
    103 O         -8.0382  -21.5618  -48.2587 O.2       18 UNK        -0.5000 
    104 N         -8.3439  -21.8553  -50.4826 N.am      19 UNK        -0.5000 
    105 CA        -9.0872  -20.6253  -50.7578 C.3       19 UNK         0.1400 
    106 CB        -9.8122  -20.7793  -52.1040 C.3       19 UNK        -0.1800 
    107 C         -8.2033  -19.3584  -50.7633 C.2       19 UNK         0.5000 
    108 O         -8.7381  -18.2592  -50.6122 O.2       19 UNK        -0.5000 
    109 N         -6.8838  -19.5183  -50.9468 N.am      20 UNK        -0.5000 
    110 CA        -5.8907  -18.4451  -50.8909 C.3       20 UNK         0.1400 
    111 CB        -4.5554  -19.0007  -51.4123 C.3       20 UNK        -0.1800 
    112 C         -5.7494  -17.9046  -49.4457 C.2       20 UNK         0.5000 
    113 O         -5.7179  -18.7185  -48.5227 O.2       20 UNK        -0.5000 
    114 N         -5.6535  -16.5897  -49.1814 N.am      21 UNK        -0.5000 
    115 CA        -5.6102  -15.4152  -50.0636 C.3       21 UNK         0.1400 
    116 CB        -6.9798  -15.1221  -50.7127 C.3       21 UNK        -0.1800 
    117 C         -4.4253  -15.4486  -51.0458 C.2       21 UNK         0.5000 
    118 O         -4.6067  -15.3087  -52.2549 O.2       21 UNK        -0.5000 
    119 N         -3.2323  -15.6791  -50.4856 N.am      22 UNK        -0.5000 
    120 CA        -1.9506  -15.8414  -51.1946 C.3       22 UNK         0.1400 
    121 C         -1.3503  -14.5445  -51.8221 C.2       22 UNK         0.5000 
    122 N         -2.0110  -13.3959  -51.7585 N.am      22 UNK        -0.7600 
    123 O         -0.2540  -14.5798  -52.3748 O.2       22 UNK        -0.5000 
    124 C124       -0.9081  -16.5598  -50.2978 C.3       23 UNK        -0.0398 
    125 S125       -1.4366  -18.2195  -49.7532 S.3       23 UNK        -0.2404 
    126 C126       -0.6988  -19.2764  -51.0415 C.3       23 UNK        -0.0205 
    127 H127        0.4337  -12.0160  -53.3168 H         1 UNK         0.0600 
    128 H128        1.4961  -10.7126  -53.8476 H         1 UNK         0.0600 
    129 H129        0.6176  -10.5670  -52.3208 H         1 UNK         0.0600 
    130 H130        1.3523  -13.6788  -52.1302 H         1 UNK         0.3000 
    131 H131        4.1871  -13.7037  -51.5597 H         1 UNK         0.0600 
    132 H132        2.1262  -15.7798  -50.6463 H         1 UNK         0.0800 
    133 H133        2.6797  -15.6973  -52.2966 H         1 UNK         0.0800 
    134 H134        3.8346  -17.7247  -52.8283 H         1 UNK         0.0800 
    135 H135        5.0851  -18.5127  -51.9080 H         1 UNK         0.0800 
    136 H136        1.4311  -17.8968  -52.0746 H         1 UNK         0.1150 
    137 H137        0.4668  -21.2089  -49.5442 H         1 UNK         0.1150 
    138 H138        4.5601  -20.0730  -50.1183 H         1 UNK         0.1150 
    139 H139        2.3376  -22.7969  -49.0253 H         1 UNK         0.0800 
    140 H140        3.9797  -22.3079  -49.2690 H         1 UNK         0.0800 
    141 H141        1.5941  -20.8876  -45.5553 H         1 UNK         0.0800 
    142 H142        0.9646  -20.6614  -47.1444 H         1 UNK         0.0800 
    143 H143        1.4640  -23.5413  -46.3384 H         1 UNK         0.0600 
    144 H144       -0.2273  -21.9227  -44.6493 H         1 UNK         0.3000 
    145 H145       -2.1360  -24.6191  -43.3352 H         1 UNK         0.0600 
    146 H146       -1.1448  -23.9598  -41.1589 H         1 UNK         0.0600 
    147 H147        0.0046  -24.9168  -42.0792 H         1 UNK         0.0600 
    148 H148        0.2037  -23.1714  -41.9791 H         1 UNK         0.0600 
    149 H149       -1.8535  -21.9045  -42.5152 H         1 UNK         0.3000 
    150 H150       -3.7778  -20.3223  -44.9892 H         1 UNK         0.0600 
    151 H151       -5.6206  -21.2601  -43.5823 H         1 UNK         0.0600 
    152 H152       -5.2472  -19.6064  -43.1225 H         1 UNK         0.0600 
    153 H153       -4.6828  -20.9479  -42.1258 H         1 UNK         0.0600 
    154 H154       -2.8143  -19.3103  -42.5361 H         1 UNK         0.3000 
    155 H155       -0.4658  -19.0249  -42.0203 H         1 UNK         0.0600 
    156 H156        1.7008  -18.1415  -42.8754 H         1 UNK         0.0600 
    157 H157        1.1927  -18.4595  -44.5324 H         1 UNK         0.0600 
    158 H158        1.4280  -19.7920  -43.4054 H         1 UNK         0.0600 
    159 H159       -0.3659  -16.7048  -43.8129 H         1 UNK         0.3000 
    160 H160       -2.4032  -15.0146  -43.4658 H         1 UNK         0.0600 
    161 H161       -2.3797  -14.7007  -40.4154 H         1 UNK         0.0600 
    162 H162       -3.7936  -14.9331  -41.4328 H         1 UNK         0.0600 
    163 H163       -2.8597  -13.4512  -41.5633 H         1 UNK         0.0600 
    164 H164       -0.3937  -14.1077  -43.5036 H         1 UNK         0.3000 
    165 H165        2.1237  -13.3281  -41.2938 H         1 UNK         0.0600 
    166 H166        2.4173  -15.6699  -43.2542 H         1 UNK         0.0600 
    167 H167        3.7285  -14.6480  -42.6689 H         1 UNK         0.0600 
    168 H168        2.8707  -15.7013  -41.5539 H         1 UNK         0.0600 
    169 H169        2.0408  -13.4424  -44.1704 H         1 UNK         0.3000 
    170 H170        0.2529  -10.3910  -44.6479 H         1 UNK         0.0600 
    171 H171        2.6380   -9.7466  -44.3736 H         1 UNK         0.0600 
    172 H172        3.1580  -11.2140  -45.1897 H         1 UNK         0.0600 
    173 H173        2.2539   -9.9837  -46.0714 H         1 UNK         0.0600 
    174 H174        1.3263  -12.3795  -46.4260 H         1 UNK         0.3000 
    175 H175       -1.6253  -14.3630  -46.6734 H         1 UNK         0.0600 
    176 H176       -0.3680  -12.3677  -48.6300 H         1 UNK         0.0600 
    177 H177       -1.4015  -13.7328  -49.0429 H         1 UNK         0.0600 
    178 H178       -2.0537  -12.3877  -48.1304 H         1 UNK         0.0600 
    179 H179        1.0086  -14.2976  -47.9260 H         1 UNK         0.3000 
    180 H180        2.4612  -16.6414  -45.6469 H         1 UNK         0.0600 
    181 H181        1.5220  -17.1963  -48.5151 H         1 UNK         0.0600 
    182 H182        1.0485  -18.1385  -47.1098 H         1 UNK         0.0600 
    183 H183        2.7301  -18.1066  -47.6135 H         1 UNK         0.0600 
    184 H184        3.4315  -15.6918  -48.1185 H         1 UNK         0.3000 
    185 H185        4.2700  -12.3938  -47.3402 H         1 UNK         0.0600 
    186 H186        6.6422  -13.0053  -47.7292 H         1 UNK         0.0600 
    187 H187        6.1553  -13.4941  -46.1145 H         1 UNK         0.0600 
    188 H188        6.2911  -14.7006  -47.3884 H         1 UNK         0.0600 
    189 H189        5.1425  -14.0117  -49.4793 H         1 UNK         0.3000 
    190 H190       -1.5470  -21.6486  -46.7669 H         1 UNK         0.3000 
    191 H191       -1.9955  -22.2197  -49.5013 H         1 UNK         0.0600 
    192 H192       -4.3071  -21.4561  -49.0178 H         1 UNK         0.0600 
    193 H193       -3.1429  -20.4008  -48.2431 H         1 UNK         0.0600 
    194 H194       -4.0283  -21.5904  -47.2923 H         1 UNK         0.0600 
    195 H195       -3.0867  -23.9455  -46.5522 H         1 UNK         0.3000 
    196 H196       -4.5117  -26.0312  -47.8311 H         1 UNK         0.0600 
    197 H197       -4.2599  -27.1980  -45.6462 H         1 UNK         0.0600 
    198 H198       -4.7091  -25.5148  -45.4124 H         1 UNK         0.0600 
    199 H199       -3.0458  -26.0298  -45.1412 H         1 UNK         0.0600 
    200 H200       -1.0452  -25.8958  -46.7994 H         1 UNK         0.3000 
    201 H201       -0.3326  -28.4889  -47.6983 H         1 UNK         0.0600 
    202 H202        1.0342  -27.2071  -46.0897 H         1 UNK         0.0600 
    203 H203        1.3871  -25.9830  -47.3081 H         1 UNK         0.0600 
    204 H204        2.0065  -27.6195  -47.4930 H         1 UNK         0.0600 
    205 H205       -0.3566  -25.3549  -49.3872 H         1 UNK         0.3000 
    206 H206        0.7658  -26.2904  -51.8644 H         1 UNK         0.0600 
    207 H207       -0.9454  -23.8278  -51.2196 H         1 UNK         0.0600 
    208 H208        0.8134  -23.9042  -51.1392 H         1 UNK         0.0600 
    209 H209       -0.0035  -24.0639  -52.6855 H         1 UNK         0.0600 
    210 H210       -2.2480  -26.9328  -50.4644 H         1 UNK         0.3000 
    211 H211       -4.1815  -27.7820  -51.0654 H         1 UNK         0.0600 
    212 H212       -2.9129  -28.5400  -53.7495 H         1 UNK         0.0600 
    213 H213       -4.3601  -29.2374  -53.0376 H         1 UNK         0.0600 
    214 H214       -2.8019  -29.4918  -52.2693 H         1 UNK         0.0600 
    215 H215       -3.8987  -25.0449  -51.2699 H         1 UNK         0.3000 
    216 H216       -5.9916  -24.3052  -53.2313 H         1 UNK         0.0600 
    217 H217       -4.6507  -22.3066  -53.8952 H         1 UNK         0.0600 
    218 H218       -3.8020  -23.7807  -54.3381 H         1 UNK         0.0600 
    219 H219       -3.2944  -22.8654  -52.9200 H         1 UNK         0.0600 
    220 H220       -6.5743  -24.8987  -50.7356 H         1 UNK         0.3000 
    221 H221       -6.0344  -23.1531  -48.6562 H         1 UNK         0.0600 
    222 H222       -8.4759  -24.9498  -49.0772 H         1 UNK         0.0600 
    223 H223       -6.9295  -25.4405  -48.3836 H         1 UNK         0.0600 
    224 H224       -7.9486  -24.2940  -47.5317 H         1 UNK         0.0600 
    225 H225       -8.1170  -22.4343  -51.2771 H         1 UNK         0.3000 
    226 H226       -9.8397  -20.4966  -49.9770 H         1 UNK         0.0600 
    227 H227      -10.4933  -21.6304  -52.0909 H         1 UNK         0.0600 
    228 H228      -10.4062  -19.8931  -52.3316 H         1 UNK         0.0600 
    229 H229       -9.1089  -20.9227  -52.9252 H         1 UNK         0.0600 
    230 H230       -6.5081  -20.4585  -51.0323 H         1 UNK         0.3000 
    231 H231       -6.2138  -17.6695  -51.5781 H         1 UNK         0.0600 
    232 H232       -3.8242  -18.2092  -51.5561 H         1 UNK         0.0600 
    233 H233       -4.6796  -19.4947  -52.3761 H         1 UNK         0.0600 
    234 H234       -4.1203  -19.7235  -50.7220 H         1 UNK         0.0600 
    235 H235       -5.5696  -16.3530  -48.2037 H         1 UNK         0.3000 
    236 H236       -5.4057  -14.5720  -49.4019 H         1 UNK         0.0600 
    237 H237       -7.7683  -15.0877  -49.9609 H         1 UNK         0.0600 
    238 H238       -6.9660  -14.1494  -51.2058 H         1 UNK         0.0600 
    239 H239       -7.2763  -15.8492  -51.4649 H         1 UNK         0.0600 
    240 H240       -3.1935  -15.8134  -49.4861 H         1 UNK         0.3000 
    241 H241       -2.1424  -16.4923  -52.0492 H         1 UNK         0.0600 
    242 H242       -2.9252  -13.3540  -51.3402 H         1 UNK         0.3800 
    243 H243       -1.6143  -12.5702  -52.1751 H         1 UNK         0.3800 
    244 H244        0.0411  -16.6544  -50.8169 H         1 UNK         0.0800 
    245 H245       -0.6992  -15.9671  -49.4077 H         1 UNK         0.0800 
    246 H246       -0.8669  -18.8355  -52.0251 H         1 UNK         0.0800 
    247 H247       -1.2215  -20.2341  -51.0473 H         1 UNK         0.0800 
@<TRIPOS>BOND
     1    1    2 1    
     2    1  127 1    
     3    1  128 1    
     4    1  129 1    
     5    2    3 2    
     6    2    4 am   BACKBONE|DICT|INTERRES
     7    4    5 1    
     8    4  130 1    
     9    5    6 1    
    10    5   65 1    
    11    5  131 1    
    12    6    7 1    
    13    6  132 1    
    14    6  133 1    
    15    7    8 1    
    16    8    9 1    
    17    8  134 1    
    18    8  135 1    
    19    9   10 ar   
    20    9   14 ar   
    21   10   11 ar   
    22   10  136 1    
    23   11   12 ar   
    24   11  126 1    
    25   12   13 ar   
    26   12  137 1    
    27   13   14 ar   
    28   13   15 1    
    29   14  138 1    
    30   15   16 1    
    31   15  139 1    
    32   15  140 1    
    33   16   17 1    
    34   17   18 1    
    35   17  141 1    
    36   17  142 1    
    37   18   19 1    
    38   18   67 1    
    39   18  143 1    
    40   19   20 am   BACKBONE|DICT|INTERRES
    41   19  144 1    
    42   20   21 2    
    43   20   22 1    
    44   22   23 1    
    45   22   24 1    
    46   22  145 1    
    47   23  146 1    
    48   23  147 1    
    49   23  148 1    
    50   24   25 am   BACKBONE|DICT|INTERRES
    51   24  149 1    
    52   25   26 2    
    53   25   27 1    
    54   27   28 1    
    55   27   29 1    
    56   27  150 1    
    57   28  151 1    
    58   28  152 1    
    59   28  153 1    
    60   29   30 am   BACKBONE|DICT|INTERRES
    61   29  154 1    
    62   30   31 2    
    63   30   32 1    
    64   32   33 1    
    65   32   34 1    
    66   32  155 1    
    67   33  156 1    
    68   33  157 1    
    69   33  158 1    
    70   34   35 am   BACKBONE|DICT|INTERRES
    71   34  159 1    
    72   35   36 2    
    73   35   37 1    
    74   37   38 1    
    75   37   39 1    
    76   37  160 1    
    77   38  161 1    
    78   38  162 1    
    79   38  163 1    
    80   39   40 am   BACKBONE|DICT|INTERRES
    81   39  164 1    
    82   40   41 2    
    83   40   42 1    
    84   42   43 1    
    85   42   44 1    
    86   42  165 1    
    87   43  166 1    
    88   43  167 1    
    89   43  168 1    
    90   44   45 am   BACKBONE|DICT|INTERRES
    91   44  169 1    
    92   45   46 2    
    93   45   47 1    
    94   47   48 1    
    95   47   49 1    
    96   47  170 1    
    97   48  171 1    
    98   48  172 1    
    99   48  173 1    
   100   49   50 am   BACKBONE|DICT|INTERRES
   101   49  174 1    
   102   50   51 2    
   103   50   52 1    
   104   52   53 1    
   105   52   54 1    
   106   52  175 1    
   107   53  176 1    
   108   53  177 1    
   109   53  178 1    
   110   54   55 am   BACKBONE|DICT|INTERRES
   111   54  179 1    
   112   55   56 2    
   113   55   57 1    
   114   57   58 1    
   115   57   59 1    
   116   57  180 1    
   117   58  181 1    
   118   58  182 1    
   119   58  183 1    
   120   59   60 am   BACKBONE|DICT|INTERRES
   121   59  184 1    
   122   60   61 2    
   123   60   62 1    
   124   62   63 1    
   125   62   64 1    
   126   62  185 1    
   127   63  186 1    
   128   63  187 1    
   129   63  188 1    
   130   64   65 am   BACKBONE|DICT|INTERRES
   131   64  189 1    
   132   65   66 2    
   133   67   68 2    
   134   67   69 am   BACKBONE|DICT|INTERRES
   135   69   70 1    
   136   69  190 1    
   137   70   71 1    
   138   70   72 1    
   139   70  191 1    
   140   71  192 1    
   141   71  193 1    
   142   71  194 1    
   143   72   73 2    
   144   72   74 am   BACKBONE|DICT|INTERRES
   145   74   75 1    
   146   74  195 1    
   147   75   76 1    
   148   75   77 1    
   149   75  196 1    
   150   76  197 1    
   151   76  198 1    
   152   76  199 1    
   153   77   78 2    
   154   77   79 am   BACKBONE|DICT|INTERRES
   155   79   80 1    
   156   79  200 1    
   157   80   81 1    
   158   80   82 1    
   159   80  201 1    
   160   81  202 1    
   161   81  203 1    
   162   81  204 1    
   163   82   83 2    
   164   82   84 am   BACKBONE|DICT|INTERRES
   165   84   85 1    
   166   84  205 1    
   167   85   86 1    
   168   85   87 1    
   169   85  206 1    
   170   86  207 1    
   171   86  208 1    
   172   86  209 1    
   173   87   88 2    
   174   87   89 am   BACKBONE|DICT|INTERRES
   175   89   90 1    
   176   89  210 1    
   177   90   91 1    
   178   90   92 1    
   179   90  211 1    
   180   91  212 1    
   181   91  213 1    
   182   91  214 1    
   183   92   93 2    
   184   92   94 am   BACKBONE|DICT|INTERRES
   185   94   95 1    
   186   94  215 1    
   187   95   96 1    
   188   95   97 1    
   189   95  216 1    
   190   96  217 1    
   191   96  218 1    
   192   96  219 1    
   193   97   98 2    
   194   97   99 am   BACKBONE|DICT|INTERRES
   195   99  100 1    
   196   99  220 1    
   197  100  101 1    
   198  100  102 1    
   199  100  221 1    
   200  101  222 1    
   201  101  223 1    
   202  101  224 1    
   203  102  103 2    
   204  102  104 am   BACKBONE|DICT|INTERRES
   205  104  105 1    
   206  104  225 1    
   207  105  106 1    
   208  105  107 1    
   209  105  226 1    
   210  106  227 1    
   211  106  228 1    
   212  106  229 1    
   213  107  108 2    
   214  107  109 am   BACKBONE|DICT|INTERRES
   215  109  110 1    
   216  109  230 1    
   217  110  111 1    
   218  110  112 1    
   219  110  231 1    
   220  111  232 1    
   221  111  233 1    
   222  111  234 1    
   223  112  113 2    
   224  112  114 am   BACKBONE|DICT|INTERRES
   225  114  115 1    
   226  114  235 1    
   227  115  116 1    
   228  115  117 1    
   229  115  236 1    
   230  116  237 1    
   231  116  238 1    
   232  116  239 1    
   233  117  118 2    
   234  117  119 am   BACKBONE|DICT|INTERRES
   235  119  120 1    
   236  119  240 1    
   237  120  121 1    
   238  120  124 1    
   239  120  241 1    
   240  121  122 am   BACKBONE|DICT|INTERRES
   241  121  123 2    
   242  122  242 1    
   243  122  243 1    
   244  124  125 1    
   245  124  244 1    
   246  124  245 1    
   247  125  126 1    
   248  126  246 1    
   249  126  247 1    
@<TRIPOS>SUBSTRUCTURE
     1 UNK         1 GROUP             0       ****    0 ROOT    
