@<TRIPOS>MOLECULE
3R540
247   249    1
SMALL
USER_CHARGES


@<TRIPOS>ATOM
      1 CA          6.5893  -11.8184  -51.7868 C.3       0 UNK        -0.1800 
      2 C           5.5442  -12.4754  -50.8961 C.2       0 UNK         0.5000 
      3 O           4.7718  -11.7727  -50.2443 O.2       0 UNK        -0.5000 
      4 N           5.5262  -13.8160  -50.8689 N.am      1 UNK        -0.5000 
      5 CA          4.6080  -14.6650  -50.0930 C.3       1 UNK         0.1400 
      6 C6          3.1140  -14.5464  -50.5172 C.3       23 UNK        -0.0398 
      7 S7          2.8108  -14.6826  -52.3138 S.3       23 UNK        -0.2404 
      8 C8          3.1979  -16.4272  -52.6583 C.3       23 UNK        -0.0205 
      9 C9          2.2410  -17.3946  -51.9774 C.ar      23 UNK        -0.0193 
     10 C10         0.9628  -17.6087  -52.5011 C.ar      23 UNK        -0.1150 
     11 C11         0.1013  -18.5469  -51.9232 C.ar      23 UNK        -0.0193 
     12 C12         0.5365  -19.2787  -50.8119 C.ar      23 UNK        -0.1150 
     13 C13         1.8043  -19.0573  -50.2660 C.ar      23 UNK        -0.0193 
     14 C14         2.6511  -18.1138  -50.8524 C.ar      23 UNK        -0.1150 
     15 C15         2.2853  -19.8628  -49.0707 C.3       23 UNK        -0.0205 
     16 S16         2.0441  -18.9800  -47.4974 S.3       23 UNK        -0.2404 
     17 C17         0.2547  -19.1399  -47.1962 C.3       23 UNK        -0.0398 
     18 CA         -0.1432  -20.5642  -46.7174 C.3       11 UNK         0.1400 
     19 N          -0.9185  -20.5548  -45.4745 N.am      11 UNK        -0.5000 
     20 C          -1.2669  -21.6528  -44.7866 C.2       10 UNK         0.5000 
     21 O          -0.8915  -22.7904  -45.0704 O.2       10 UNK        -0.5000 
     22 CA         -2.2611  -21.4520  -43.6309 C.3       10 UNK         0.1400 
     23 CB         -1.5346  -21.0330  -42.3447 C.3       10 UNK        -0.1800 
     24 N          -3.2926  -20.4709  -43.9758 N.am      10 UNK        -0.5000 
     25 C          -4.2489  -20.6875  -44.8923 C.2       9 UNK         0.5000 
     26 O          -4.4041  -21.7627  -45.4704 O.2       9 UNK        -0.5000 
     27 CA         -5.1540  -19.4960  -45.2587 C.3       9 UNK         0.1400 
     28 CB         -6.3716  -19.4347  -44.3255 C.3       9 UNK        -0.1800 
     29 N          -4.4532  -18.2118  -45.2249 N.am      9 UNK        -0.5000 
     30 C          -3.4541  -17.8668  -46.0506 C.2       8 UNK         0.5000 
     31 O          -3.0074  -18.5995  -46.9308 O.2       8 UNK        -0.5000 
     32 CA         -2.7824  -16.5088  -45.7861 C.3       8 UNK         0.1400 
     33 CB         -3.5452  -15.3654  -46.4685 C.3       8 UNK        -0.1800 
     34 N          -2.6468  -16.2277  -44.3550 N.am      8 UNK        -0.5000 
     35 C          -1.8580  -16.9292  -43.5328 C.2       7 UNK         0.5000 
     36 O          -1.1599  -17.8775  -43.9022 O.2       7 UNK        -0.5000 
     37 CA         -1.8740  -16.5358  -42.0522 C.3       7 UNK         0.1400 
     38 CB         -2.7921  -17.4812  -41.2535 C.3       7 UNK        -0.1800 
     39 N          -0.5000  -16.5821  -41.5682 N.am      7 UNK        -0.5000 
     40 C          -0.0550  -16.1478  -40.3840 C.2       6 UNK         0.5000 
     41 O          -0.7802  -15.7492  -39.4720 O.2       6 UNK        -0.5000 
     42 CA          1.4751  -16.0856  -40.2282 C.3       6 UNK         0.1400 
     43 CB          2.1080  -17.4860  -40.2805 C.3       6 UNK        -0.1800 
     44 N           2.0569  -15.2371  -41.2695 N.am      6 UNK        -0.5000 
     45 C           1.9252  -13.9005  -41.3112 C.2       5 UNK         0.5000 
     46 O           1.4417  -13.2349  -40.3946 O.2       5 UNK        -0.5000 
     47 CA          2.3878  -13.1781  -42.5936 C.3       5 UNK         0.1400 
     48 CB          3.8008  -12.6062  -42.4085 C.3       5 UNK        -0.1800 
     49 N           2.3659  -14.0380  -43.7775 N.am      5 UNK        -0.5000 
     50 C           1.2575  -14.5593  -44.3267 C.2       4 UNK         0.5000 
     51 O           0.1201  -14.2618  -43.9626 O.2       4 UNK        -0.5000 
     52 CA          1.4374  -15.6127  -45.4390 C.3       4 UNK         0.1400 
     53 CB          0.8790  -15.1016  -46.7769 C.3       4 UNK        -0.1800 
     54 N           2.8273  -16.0467  -45.6124 N.am      4 UNK        -0.5000 
     55 C           3.4967  -16.8210  -44.7428 C.2       3 UNK         0.5000 
     56 O           2.9956  -17.2457  -43.7006 O.2       3 UNK        -0.5000 
     57 CA          4.9811  -17.1267  -45.0410 C.3       3 UNK         0.1400 
     58 CB          5.1582  -18.5411  -45.6124 C.3       3 UNK        -0.1800 
     59 N           5.6183  -16.1650  -45.9431 N.am      3 UNK        -0.5000 
     60 C           5.8647  -14.8839  -45.6392 C.2       2 UNK         0.5000 
     61 O           5.6112  -14.3871  -44.5420 O.2       2 UNK        -0.5000 
     62 CA          6.4521  -13.9968  -46.7561 C.3       2 UNK         0.1400 
     63 CB          7.9855  -13.9718  -46.6689 C.3       2 UNK        -0.1800 
     64 N           6.0565  -14.3609  -48.1237 N.am      2 UNK        -0.5000 
     65 C           4.7952  -14.4669  -48.5705 C.2       1 UNK         0.5000 
     66 O           3.8134  -14.3994  -47.8327 O.2       1 UNK        -0.5000 
     67 C          -0.8801  -21.3423  -47.8250 C.2       11 UNK         0.5000 
     68 O          -0.2811  -22.2110  -48.4543 O.2       11 UNK        -0.5000 
     69 N          -2.1751  -21.0528  -48.0104 N.am      12 UNK        -0.5000 
     70 CA         -3.0465  -21.7169  -48.9785 C.3       12 UNK         0.1400 
     71 CB         -4.4250  -21.0418  -48.9921 C.3       12 UNK        -0.1800 
     72 C          -3.1852  -23.2260  -48.7291 C.2       12 UNK         0.5000 
     73 O          -3.1739  -23.9945  -49.6903 O.2       12 UNK        -0.5000 
     74 N          -3.2840  -23.6284  -47.4559 N.am      13 UNK        -0.5000 
     75 CA         -3.2913  -25.0277  -47.0343 C.3       13 UNK         0.1400 
     76 CB         -3.6595  -25.1174  -45.5459 C.3       13 UNK        -0.1800 
     77 C          -1.9510  -25.7315  -47.3177 C.2       13 UNK         0.5000 
     78 O          -1.9544  -26.8385  -47.8562 O.2       13 UNK        -0.5000 
     79 N          -0.8341  -25.0678  -46.9848 N.am      14 UNK        -0.5000 
     80 CA          0.5280  -25.5595  -47.2101 C.3       14 UNK         0.1400 
     81 CB          1.5280  -24.6476  -46.4826 C.3       14 UNK        -0.1800 
     82 C           0.8898  -25.6825  -48.7026 C.2       14 UNK         0.5000 
     83 O           1.5096  -26.6693  -49.1007 O.2       14 UNK        -0.5000 
     84 N           0.4769  -24.6908  -49.5021 N.am      15 UNK        -0.5000 
     85 CA          0.6645  -24.6403  -50.9533 C.3       15 UNK         0.1400 
     86 CB          0.4655  -23.1890  -51.4238 C.3       15 UNK        -0.1800 
     87 C          -0.2790  -25.5805  -51.7298 C.2       15 UNK         0.5000 
     88 O          -0.0522  -25.8036  -52.9195 O.2       15 UNK        -0.5000 
     89 N          -1.3304  -26.0787  -51.0606 N.am      16 UNK        -0.5000 
     90 CA         -2.4516  -26.8562  -51.6026 C.3       16 UNK         0.1400 
     91 CB         -1.9774  -28.2115  -52.1664 C.3       16 UNK        -0.1800 
     92 C          -3.3144  -26.0498  -52.5997 C.2       16 UNK         0.5000 
     93 O          -3.9612  -26.6283  -53.4744 O.2       16 UNK        -0.5000 
     94 N          -3.3193  -24.7218  -52.4298 N.am      17 UNK        -0.5000 
     95 CA         -4.1526  -23.7695  -53.1596 C.3       17 UNK         0.1400 
     96 CB         -3.4481  -22.4041  -53.1578 C.3       17 UNK        -0.1800 
     97 C          -5.5606  -23.6716  -52.5393 C.2       17 UNK         0.5000 
     98 O          -6.5175  -23.3823  -53.2585 O.2       17 UNK        -0.5000 
     99 N          -5.6527  -23.9448  -51.2265 N.am      18 UNK        -0.5000 
    100 CA        -6.8549  -24.1114  -50.4055 C.3       18 UNK         0.1400 
    101 CB        -7.4465  -25.5166  -50.6475 C.3       18 UNK        -0.1800 
    102 C         -7.8806  -22.9718  -50.5756 C.2       18 UNK         0.5000 
    103 O         -7.6765  -21.8865  -50.0299 O.2       18 UNK        -0.5000 
    104 N         -8.9458  -23.2306  -51.3478 N.am      19 UNK        -0.5000 
    105 CA       -10.0534  -22.3193  -51.6490 C.3       19 UNK         0.1400 
    106 CB       -11.0961  -23.0750  -52.4875 C.3       19 UNK        -0.1800 
    107 C         -9.6476  -21.0058  -52.3492 C.2       19 UNK         0.5000 
    108 O        -10.4288  -20.0537  -52.3299 O.2       19 UNK        -0.5000 
    109 N         -8.4385  -20.9572  -52.9286 N.am      20 UNK        -0.5000 
    110 CA        -7.8235  -19.7436  -53.4709 C.3       20 UNK         0.1400 
    111 CB        -6.5324  -20.1249  -54.2063 C.3       20 UNK        -0.1800 
    112 C         -7.5164  -18.6777  -52.3978 C.2       20 UNK         0.5000 
    113 O         -7.4226  -17.4985  -52.7388 O.2       20 UNK        -0.5000 
    114 N         -7.3488  -19.1062  -51.1359 N.am      21 UNK        -0.5000 
    115 CA        -7.1444  -18.3251  -49.9069 C.3       21 UNK         0.1400 
    116 CB        -8.3577  -17.4174  -49.6300 C.3       21 UNK        -0.1800 
    117 C         -5.8263  -17.5272  -49.8098 C.2       21 UNK         0.5000 
    118 O         -5.3985  -17.2418  -48.6933 O.2       21 UNK        -0.5000 
    119 N         -5.2062  -17.1913  -50.9473 N.am      22 UNK        -0.5000 
    120 CA        -3.9046  -16.5093  -51.0850 C.3       22 UNK         0.1400 
    121 C         -3.8721  -15.0373  -50.5679 C.2       22 UNK         0.5000 
    122 N         -5.0085  -14.3857  -50.3537 N.am      22 UNK        -0.7600 
    123 O         -2.8037  -14.4589  -50.3902 O.2       22 UNK        -0.5000 
    124 C124       -2.7127  -17.3556  -50.5525 C.3       23 UNK        -0.0398 
    125 S125       -2.6173  -19.0026  -51.3362 S.3       23 UNK        -0.2404 
    126 C126       -1.2709  -18.7902  -52.5466 C.3       23 UNK        -0.0205 
    127 H127        7.2483  -11.1880  -51.1897 H         1 UNK         0.0600 
    128 H128        6.1034  -11.1929  -52.5356 H         1 UNK         0.0600 
    129 H129        7.2022  -12.5555  -52.3061 H         1 UNK         0.0600 
    130 H130        6.1921  -14.3176  -51.4398 H         1 UNK         0.3000 
    131 H131        4.9189  -15.6919  -50.2861 H         1 UNK         0.0600 
    132 H132        2.5119  -15.3012  -50.0084 H         1 UNK         0.0800 
    133 H133        2.7091  -13.5846  -50.1980 H         1 UNK         0.0800 
    134 H134        3.1510  -16.5839  -53.7369 H         1 UNK         0.0800 
    135 H135        4.2296  -16.6372  -52.3743 H         1 UNK         0.0800 
    136 H136        0.6484  -17.0541  -53.3743 H         1 UNK         0.1150 
    137 H137       -0.1103  -20.0260  -50.3755 H         1 UNK         0.1150 
    138 H138        3.6387  -17.9565  -50.4424 H         1 UNK         0.1150 
    139 H139        1.8019  -20.8378  -49.0398 H         1 UNK         0.0800 
    140 H140        3.3502  -20.0704  -49.1845 H         1 UNK         0.0800 
    141 H141        0.0095  -18.4032  -46.4308 H         1 UNK         0.0800 
    142 H142       -0.2954  -18.8133  -48.0811 H         1 UNK         0.0800 
    143 H143        0.7641  -21.1288  -46.4913 H         1 UNK         0.0600 
    144 H144       -1.2489  -19.6546  -45.1487 H         1 UNK         0.3000 
    145 H145       -2.7514  -22.4096  -43.4425 H         1 UNK         0.0600 
    146 H146       -2.2325  -20.9276  -41.5143 H         1 UNK         0.0600 
    147 H147       -0.7989  -21.7842  -42.0548 H         1 UNK         0.0600 
    148 H148       -1.0029  -20.0892  -42.4645 H         1 UNK         0.0600 
    149 H149       -3.2055  -19.5521  -43.5695 H         1 UNK         0.3000 
    150 H150       -5.5126  -19.6526  -46.2783 H         1 UNK         0.0600 
    151 H151       -6.9266  -20.3736  -44.3468 H         1 UNK         0.0600 
    152 H152       -7.0601  -18.6452  -44.6273 H         1 UNK         0.0600 
    153 H153       -6.0788  -19.2494  -43.2912 H         1 UNK         0.0600 
    154 H154       -4.7498  -17.5486  -44.5249 H         1 UNK         0.3000 
    155 H155       -1.7815  -16.5524  -46.2186 H         1 UNK         0.0600 
    156 H156       -3.0424  -14.4099  -46.3185 H         1 UNK         0.0600 
    157 H157       -4.5645  -15.2756  -46.0916 H         1 UNK         0.0600 
    158 H158       -3.6072  -15.5313  -47.5444 H         1 UNK         0.0600 
    159 H159       -3.1811  -15.4521  -43.9907 H         1 UNK         0.3000 
    160 H160       -2.2378  -15.5104  -41.9615 H         1 UNK         0.0600 
    161 H161       -2.3895  -18.4923  -41.2132 H         1 UNK         0.0600 
    162 H162       -3.7851  -17.5378  -41.7012 H         1 UNK         0.0600 
    163 H163       -2.9256  -17.1376  -40.2281 H         1 UNK         0.0600 
    164 H164        0.1663  -16.9049  -42.2578 H         1 UNK         0.3000 
    165 H165        1.7014  -15.6489  -39.2530 H         1 UNK         0.0600 
    166 H166        1.9430  -17.9757  -41.2408 H         1 UNK         0.0600 
    167 H167        3.1842  -17.4360  -40.1141 H         1 UNK         0.0600 
    168 H168        1.6889  -18.1309  -39.5072 H         1 UNK         0.0600 
    169 H169        2.4630  -15.7112  -42.0661 H         1 UNK         0.3000 
    170 H170        1.7023  -12.3467  -42.7703 H         1 UNK         0.0600 
    171 H171        3.8330  -11.9088  -41.5705 H         1 UNK         0.0600 
    172 H172        4.5290  -13.3930  -42.2082 H         1 UNK         0.0600 
    173 H173        4.1282  -12.0639  -43.2959 H         1 UNK         0.0600 
    174 H174        3.2652  -14.3186  -44.1465 H         1 UNK         0.3000 
    175 H175        0.8526  -16.4865  -45.1477 H         1 UNK         0.0600 
    176 H176        1.3683  -14.1802  -47.0918 H         1 UNK         0.0600 
    177 H177        1.0034  -15.8405  -47.5690 H         1 UNK         0.0600 
    178 H178       -0.1859  -14.8828  -46.6980 H         1 UNK         0.0600 
    179 H179        3.3108  -15.6721  -46.4232 H         1 UNK         0.3000 
    180 H180        5.5058  -17.0872  -44.0840 H         1 UNK         0.0600 
    181 H181        4.7930  -18.6102  -46.6366 H         1 UNK         0.0600 
    182 H182        4.6186  -19.2794  -45.0175 H         1 UNK         0.0600 
    183 H183        6.2086  -18.8324  -45.6155 H         1 UNK         0.0600 
    184 H184        5.8461  -16.4900  -46.8709 H         1 UNK         0.3000 
    185 H185        6.0871  -12.9831  -46.5791 H         1 UNK         0.0600 
    186 H186        8.4099  -13.2554  -47.3726 H         1 UNK         0.0600 
    187 H187        8.3164  -13.6791  -45.6714 H         1 UNK         0.0600 
    188 H188        8.4159  -14.9507  -46.8837 H         1 UNK         0.0600 
    189 H189        6.8037  -14.4259  -48.7995 H         1 UNK         0.3000 
    190 H190       -2.5770  -20.2726  -47.4938 H         1 UNK         0.3000 
    191 H191       -2.5878  -21.5887  -49.9596 H         1 UNK         0.0600 
    192 H192       -5.0090  -21.3754  -49.8497 H         1 UNK         0.0600 
    193 H193       -4.3339  -19.9591  -49.0641 H         1 UNK         0.0600 
    194 H194       -5.0000  -21.2670  -48.0941 H         1 UNK         0.0600 
    195 H195       -3.3612  -22.9275  -46.7258 H         1 UNK         0.3000 
    196 H196       -4.0658  -25.5447  -47.6049 H         1 UNK         0.0600 
    197 H197       -3.6970  -26.1559  -45.2149 H         1 UNK         0.0600 
    198 H198       -4.6396  -24.6793  -45.3565 H         1 UNK         0.0600 
    199 H199       -2.9358  -24.5980  -44.9176 H         1 UNK         0.0600 
    200 H200       -0.9184  -24.1681  -46.5209 H         1 UNK         0.3000 
    201 H201        0.5983  -26.5564  -46.7702 H         1 UNK         0.0600 
    202 H202        1.3287  -24.6208  -45.4111 H         1 UNK         0.0600 
    203 H203        1.4851  -23.6237  -46.8551 H         1 UNK         0.0600 
    204 H204        2.5504  -25.0035  -46.6150 H         1 UNK         0.0600 
    205 H205        0.0359  -23.8760  -49.0773 H         1 UNK         0.3000 
    206 H206        1.6895  -24.9388  -51.1820 H         1 UNK         0.0600 
    207 H207       -0.5433  -22.8322  -51.2116 H         1 UNK         0.0600 
    208 H208        1.1677  -22.5150  -50.9329 H         1 UNK         0.0600 
    209 H209        0.6265  -23.0965  -52.4985 H         1 UNK         0.0600 
    210 H210       -1.4213  -25.8186  -50.0873 H         1 UNK         0.3000 
    211 H211       -3.1012  -27.0667  -50.7517 H         1 UNK         0.0600 
    212 H212       -1.3909  -28.0915  -53.0774 H         1 UNK         0.0600 
    213 H213       -2.8266  -28.8513  -52.4090 H         1 UNK         0.0600 
    214 H214       -1.3660  -28.7474  -51.4404 H         1 UNK         0.0600 
    215 H215       -2.8201  -24.3597  -51.6253 H         1 UNK         0.3000 
    216 H216       -4.2542  -24.1049  -54.1937 H         1 UNK         0.0600 
    217 H217       -3.9190  -21.7238  -53.8658 H         1 UNK         0.0600 
    218 H218       -2.4030  -22.4957  -53.4549 H         1 UNK         0.0600 
    219 H219       -3.4753  -21.9337  -52.1749 H         1 UNK         0.0600 
    220 H220       -4.7798  -24.1162  -50.7373 H         1 UNK         0.3000 
    221 H221       -6.5258  -24.0682  -49.3660 H         1 UNK         0.0600 
    222 H222       -7.7063  -25.6801  -51.6941 H         1 UNK         0.0600 
    223 H223       -6.7314  -26.2897  -50.3656 H         1 UNK         0.0600 
    224 H224       -8.3439  -25.6776  -50.0485 H         1 UNK         0.0600 
    225 H225       -8.9919  -24.1384  -51.7869 H         1 UNK         0.3000 
    226 H226      -10.5137  -22.0430  -50.6984 H         1 UNK         0.0600 
    227 H227      -11.4664  -23.9542  -51.9598 H         1 UNK         0.0600 
    228 H228      -11.9581  -22.4428  -52.7052 H         1 UNK         0.0600 
    229 H229      -10.6811  -23.4040  -53.4411 H         1 UNK         0.0600 
    230 H230       -7.8689  -21.7969  -52.9307 H         1 UNK         0.3000 
    231 H231       -8.5171  -19.3047  -54.1908 H         1 UNK         0.0600 
    232 H232       -6.0911  -19.2583  -54.7002 H         1 UNK         0.0600 
    233 H233       -6.7150  -20.8804  -54.9708 H         1 UNK         0.0600 
    234 H234       -5.7923  -20.5181  -53.5105 H         1 UNK         0.0600 
    235 H235       -7.4257  -20.1058  -50.9744 H         1 UNK         0.3000 
    236 H236       -7.1025  -19.0648  -49.1057 H         1 UNK         0.0600 
    237 H237       -9.2834  -17.9928  -49.6127 H         1 UNK         0.0600 
    238 H238       -8.2630  -16.9250  -48.6613 H         1 UNK         0.0600 
    239 H239       -8.4619  -16.6362  -50.3833 H         1 UNK         0.0600 
    240 H240       -5.6952  -17.3941  -51.8115 H         1 UNK         0.3000 
    241 H241       -3.7571  -16.4090  -52.1606 H         1 UNK         0.0600 
    242 H242       -5.8940  -14.8423  -50.5017 H         1 UNK         0.3800 
    243 H243       -4.9809  -13.4312  -50.0319 H         1 UNK         0.3800 
    244 H244       -1.7662  -16.8371  -50.7118 H         1 UNK         0.0800 
    245 H245       -2.7977  -17.4959  -49.4742 H         1 UNK         0.0800 
    246 H246       -1.5388  -17.9747  -53.2201 H         1 UNK         0.0800 
    247 H247       -1.2138  -19.6907  -53.1593 H         1 UNK         0.0800 
@<TRIPOS>BOND
     1    1    2 1    
     2    1  127 1    
     3    1  128 1    
     4    1  129 1    
     5    2    3 2    
     6    2    4 am   BACKBONE|DICT|INTERRES
     7    4    5 1    
     8    4  130 1    
     9    5    6 1    
    10    5   65 1    
    11    5  131 1    
    12    6    7 1    
    13    6  132 1    
    14    6  133 1    
    15    7    8 1    
    16    8    9 1    
    17    8  134 1    
    18    8  135 1    
    19    9   10 ar   
    20    9   14 ar   
    21   10   11 ar   
    22   10  136 1    
    23   11   12 ar   
    24   11  126 1    
    25   12   13 ar   
    26   12  137 1    
    27   13   14 ar   
    28   13   15 1    
    29   14  138 1    
    30   15   16 1    
    31   15  139 1    
    32   15  140 1    
    33   16   17 1    
    34   17   18 1    
    35   17  141 1    
    36   17  142 1    
    37   18   19 1    
    38   18   67 1    
    39   18  143 1    
    40   19   20 am   BACKBONE|DICT|INTERRES
    41   19  144 1    
    42   20   21 2    
    43   20   22 1    
    44   22   23 1    
    45   22   24 1    
    46   22  145 1    
    47   23  146 1    
    48   23  147 1    
    49   23  148 1    
    50   24   25 am   BACKBONE|DICT|INTERRES
    51   24  149 1    
    52   25   26 2    
    53   25   27 1    
    54   27   28 1    
    55   27   29 1    
    56   27  150 1    
    57   28  151 1    
    58   28  152 1    
    59   28  153 1    
    60   29   30 am   BACKBONE|DICT|INTERRES
    61   29  154 1    
    62   30   31 2    
    63   30   32 1    
    64   32   33 1    
    65   32   34 1    
    66   32  155 1    
    67   33  156 1    
    68   33  157 1    
    69   33  158 1    
    70   34   35 am   BACKBONE|DICT|INTERRES
    71   34  159 1    
    72   35   36 2    
    73   35   37 1    
    74   37   38 1    
    75   37   39 1    
    76   37  160 1    
    77   38  161 1    
    78   38  162 1    
    79   38  163 1    
    80   39   40 am   BACKBONE|DICT|INTERRES
    81   39  164 1    
    82   40   41 2    
    83   40   42 1    
    84   42   43 1    
    85   42   44 1    
    86   42  165 1    
    87   43  166 1    
    88   43  167 1    
    89   43  168 1    
    90   44   45 am   BACKBONE|DICT|INTERRES
    91   44  169 1    
    92   45   46 2    
    93   45   47 1    
    94   47   48 1    
    95   47   49 1    
    96   47  170 1    
    97   48  171 1    
    98   48  172 1    
    99   48  173 1    
   100   49   50 am   BACKBONE|DICT|INTERRES
   101   49  174 1    
   102   50   51 2    
   103   50   52 1    
   104   52   53 1    
   105   52   54 1    
   106   52  175 1    
   107   53  176 1    
   108   53  177 1    
   109   53  178 1    
   110   54   55 am   BACKBONE|DICT|INTERRES
   111   54  179 1    
   112   55   56 2    
   113   55   57 1    
   114   57   58 1    
   115   57   59 1    
   116   57  180 1    
   117   58  181 1    
   118   58  182 1    
   119   58  183 1    
   120   59   60 am   BACKBONE|DICT|INTERRES
   121   59  184 1    
   122   60   61 2    
   123   60   62 1    
   124   62   63 1    
   125   62   64 1    
   126   62  185 1    
   127   63  186 1    
   128   63  187 1    
   129   63  188 1    
   130   64   65 am   BACKBONE|DICT|INTERRES
   131   64  189 1    
   132   65   66 2    
   133   67   68 2    
   134   67   69 am   BACKBONE|DICT|INTERRES
   135   69   70 1    
   136   69  190 1    
   137   70   71 1    
   138   70   72 1    
   139   70  191 1    
   140   71  192 1    
   141   71  193 1    
   142   71  194 1    
   143   72   73 2    
   144   72   74 am   BACKBONE|DICT|INTERRES
   145   74   75 1    
   146   74  195 1    
   147   75   76 1    
   148   75   77 1    
   149   75  196 1    
   150   76  197 1    
   151   76  198 1    
   152   76  199 1    
   153   77   78 2    
   154   77   79 am   BACKBONE|DICT|INTERRES
   155   79   80 1    
   156   79  200 1    
   157   80   81 1    
   158   80   82 1    
   159   80  201 1    
   160   81  202 1    
   161   81  203 1    
   162   81  204 1    
   163   82   83 2    
   164   82   84 am   BACKBONE|DICT|INTERRES
   165   84   85 1    
   166   84  205 1    
   167   85   86 1    
   168   85   87 1    
   169   85  206 1    
   170   86  207 1    
   171   86  208 1    
   172   86  209 1    
   173   87   88 2    
   174   87   89 am   BACKBONE|DICT|INTERRES
   175   89   90 1    
   176   89  210 1    
   177   90   91 1    
   178   90   92 1    
   179   90  211 1    
   180   91  212 1    
   181   91  213 1    
   182   91  214 1    
   183   92   93 2    
   184   92   94 am   BACKBONE|DICT|INTERRES
   185   94   95 1    
   186   94  215 1    
   187   95   96 1    
   188   95   97 1    
   189   95  216 1    
   190   96  217 1    
   191   96  218 1    
   192   96  219 1    
   193   97   98 2    
   194   97   99 am   BACKBONE|DICT|INTERRES
   195   99  100 1    
   196   99  220 1    
   197  100  101 1    
   198  100  102 1    
   199  100  221 1    
   200  101  222 1    
   201  101  223 1    
   202  101  224 1    
   203  102  103 2    
   204  102  104 am   BACKBONE|DICT|INTERRES
   205  104  105 1    
   206  104  225 1    
   207  105  106 1    
   208  105  107 1    
   209  105  226 1    
   210  106  227 1    
   211  106  228 1    
   212  106  229 1    
   213  107  108 2    
   214  107  109 am   BACKBONE|DICT|INTERRES
   215  109  110 1    
   216  109  230 1    
   217  110  111 1    
   218  110  112 1    
   219  110  231 1    
   220  111  232 1    
   221  111  233 1    
   222  111  234 1    
   223  112  113 2    
   224  112  114 am   BACKBONE|DICT|INTERRES
   225  114  115 1    
   226  114  235 1    
   227  115  116 1    
   228  115  117 1    
   229  115  236 1    
   230  116  237 1    
   231  116  238 1    
   232  116  239 1    
   233  117  118 2    
   234  117  119 am   BACKBONE|DICT|INTERRES
   235  119  120 1    
   236  119  240 1    
   237  120  121 1    
   238  120  124 1    
   239  120  241 1    
   240  121  122 am   BACKBONE|DICT|INTERRES
   241  121  123 2    
   242  122  242 1    
   243  122  243 1    
   244  124  125 1    
   245  124  244 1    
   246  124  245 1    
   247  125  126 1    
   248  126  246 1    
   249  126  247 1    
@<TRIPOS>SUBSTRUCTURE
     1 UNK         1 GROUP             0       ****    0 ROOT    
