@<TRIPOS>MOLECULE
3R540
247   249    1
SMALL
USER_CHARGES


@<TRIPOS>ATOM
      1 CA          1.8694  -10.4398  -49.9310 C.3       0 UNK        -0.1800 
      2 C           2.0623  -11.9392  -49.7527 C.2       0 UNK         0.5000 
      3 O           2.9587  -12.5167  -50.3674 O.2       0 UNK        -0.5000 
      4 N           1.2206  -12.5656  -48.9206 N.am      1 UNK        -0.5000 
      5 CA          1.2516  -13.9951  -48.5917 C.3       1 UNK         0.1400 
      6 C6          0.0293  -14.4038  -47.7355 C.3       23 UNK        -0.0398 
      7 S7         -1.5075  -14.5609  -48.6998 S.3       23 UNK        -0.2404 
      8 C8         -1.8084  -16.3565  -48.5897 C.3       23 UNK        -0.0205 
      9 C9         -0.8740  -17.1423  -49.4973 C.ar      23 UNK        -0.0193 
     10 C10        -1.2506  -17.4074  -50.8145 C.ar      23 UNK        -0.1150 
     11 C11        -0.4088  -18.1265  -51.6674 C.ar      23 UNK        -0.0193 
     12 C12         0.8328  -18.5640  -51.1956 C.ar      23 UNK        -0.1150 
     13 C13         1.2321  -18.2876  -49.8839 C.ar      23 UNK        -0.0193 
     14 C14         0.3659  -17.5921  -49.0354 C.ar      23 UNK        -0.1150 
     15 C15         2.6224  -18.6849  -49.4065 C.3       23 UNK        -0.0205 
     16 S16         2.6974  -20.3932  -48.7889 S.3       23 UNK        -0.2404 
     17 C17         1.9585  -20.2149  -47.1290 C.3       23 UNK        -0.0398 
     18 CA          1.1448  -21.4526  -46.6919 C.3       11 UNK         0.1400 
     19 N           0.8237  -21.4060  -45.2646 N.am      11 UNK        -0.5000 
     20 C           0.3242  -22.4318  -44.5628 C.2       10 UNK         0.5000 
     21 O           0.1087  -23.5448  -45.0393 O.2       10 UNK        -0.5000 
     22 CA         -0.0382  -22.1601  -43.0929 C.3       10 UNK         0.1400 
     23 CB          1.2146  -22.2026  -42.2058 C.3       10 UNK        -0.1800 
     24 N          -0.7372  -20.8877  -42.9098 N.am      10 UNK        -0.5000 
     25 C          -1.9294  -20.5961  -43.4509 C.2       9 UNK         0.5000 
     26 O          -2.5807  -21.3829  -44.1371 O.2       9 UNK        -0.5000 
     27 CA         -2.4674  -19.1731  -43.2276 C.3       9 UNK         0.1400 
     28 CB         -3.0793  -19.0349  -41.8258 C.3       9 UNK        -0.1800 
     29 N          -1.4457  -18.1458  -43.4224 N.am      9 UNK        -0.5000 
     30 C          -0.8011  -17.9167  -44.5754 C.2       8 UNK         0.5000 
     31 O          -1.0078  -18.5350  -45.6199 O.2       8 UNK        -0.5000 
     32 CA          0.3007  -16.8457  -44.5378 C.3       8 UNK         0.1400 
     33 CB         -0.3084  -15.4373  -44.4656 C.3       8 UNK        -0.1800 
     34 N           1.2228  -17.0377  -43.4205 N.am      8 UNK        -0.5000 
     35 C           1.9851  -18.1244  -43.2330 C.2       7 UNK         0.5000 
     36 O           2.0337  -19.0735  -44.0151 O.2       7 UNK        -0.5000 
     37 CA          2.7881  -18.1797  -41.9229 C.3       7 UNK         0.1400 
     38 CB          4.0946  -17.3803  -42.0396 C.3       7 UNK        -0.1800 
     39 N           2.0113  -17.6890  -40.7847 N.am      7 UNK        -0.5000 
     40 C           0.9362  -18.3090  -40.2770 C.2       6 UNK         0.5000 
     41 O           0.5012  -19.3820  -40.6939 O.2       6 UNK        -0.5000 
     42 CA          0.1972  -17.5781  -39.1425 C.3       6 UNK         0.1400 
     43 CB          0.9090  -17.7954  -37.7989 C.3       6 UNK        -0.1800 
     44 N           0.0687  -16.1432  -39.4006 N.am      6 UNK        -0.5000 
     45 C          -0.6681  -15.6186  -40.3899 C.2       5 UNK         0.5000 
     46 O          -1.3474  -16.2905  -41.1654 O.2       5 UNK        -0.5000 
     47 CA         -0.6018  -14.0908  -40.5674 C.3       5 UNK         0.1400 
     48 CB         -1.6466  -13.4001  -39.6786 C.3       5 UNK        -0.1800 
     49 N           0.7227  -13.5299  -40.2865 N.am      5 UNK        -0.5000 
     50 C           1.8323  -13.8027  -40.9850 C.2       4 UNK         0.5000 
     51 O           1.8764  -14.5974  -41.9278 O.2       4 UNK        -0.5000 
     52 CA          3.1151  -13.1058  -40.5189 C.3       4 UNK         0.1400 
     53 CB          3.8468  -13.9650  -39.4745 C.3       4 UNK        -0.1800 
     54 N           3.9908  -12.8909  -41.6663 N.am      4 UNK        -0.5000 
     55 C           4.7255  -11.7927  -41.8827 C.2       3 UNK         0.5000 
     56 O           4.7590  -10.8359  -41.1071 O.2       3 UNK        -0.5000 
     57 CA          5.5838  -11.7426  -43.1651 C.3       3 UNK         0.1400 
     58 CB          7.0748  -11.8762  -42.8154 C.3       3 UNK        -0.1800 
     59 N           5.2451  -12.7688  -44.1546 N.am      3 UNK        -0.5000 
     60 C           4.1656  -12.7454  -44.9448 C.2       2 UNK         0.5000 
     61 O           3.3213  -11.8450  -44.9313 O.2       2 UNK        -0.5000 
     62 CA          3.9985  -13.9447  -45.8897 C.3       2 UNK         0.1400 
     63 CB          3.7654  -15.2397  -45.0843 C.3       2 UNK        -0.1800 
     64 N           2.8703  -13.6869  -46.7784 N.am      2 UNK        -0.5000 
     65 C           2.5515  -14.3978  -47.8654 C.2       1 UNK         0.5000 
     66 O           3.2188  -15.3425  -48.2867 O.2       1 UNK        -0.5000 
     67 C          -0.1154  -21.6706  -47.5564 C.2       11 UNK         0.5000 
     68 O          -0.1032  -22.5407  -48.4271 O.2       11 UNK        -0.5000 
     69 N          -1.1959  -20.9303  -47.2678 N.am      12 UNK        -0.5000 
     70 CA         -2.4912  -21.0757  -47.9355 C.3       12 UNK         0.1400 
     71 CB         -3.4441  -19.9715  -47.4583 C.3       12 UNK        -0.1800 
     72 C          -3.1178  -22.4690  -47.7336 C.2       12 UNK         0.5000 
     73 O          -3.6532  -23.0362  -48.6879 O.2       12 UNK        -0.5000 
     74 N          -3.0029  -23.0079  -46.5107 N.am      13 UNK        -0.5000 
     75 CA         -3.4292  -24.3587  -46.1484 C.3       13 UNK         0.1400 
     76 CB         -3.3996  -24.5233  -44.6217 C.3       13 UNK        -0.1800 
     77 C          -2.5883  -25.4503  -46.8331 C.2       13 UNK         0.5000 
     78 O          -3.1600  -26.4140  -47.3415 O.2       13 UNK        -0.5000 
     79 N          -1.2597  -25.2710  -46.8767 N.am      14 UNK        -0.5000 
     80 CA         -0.3193  -26.1616  -47.5655 C.3       14 UNK         0.1400 
     81 CB          1.1233  -25.7572  -47.2266 C.3       14 UNK        -0.1800 
     82 C          -0.5330  -26.1905  -49.0906 C.2       14 UNK         0.5000 
     83 O          -0.4287  -27.2545  -49.7016 O.2       14 UNK        -0.5000 
     84 N          -0.8787  -25.0316  -49.6661 N.am      15 UNK        -0.5000 
     85 CA         -1.2982  -24.8725  -51.0588 C.3       15 UNK         0.1400 
     86 CB         -1.1924  -23.3862  -51.4398 C.3       15 UNK        -0.1800 
     87 C          -2.7251  -25.3918  -51.3332 C.2       15 UNK         0.5000 
     88 O          -3.1271  -25.4365  -52.4948 O.2       15 UNK        -0.5000 
     89 N          -3.4820  -25.7323  -50.2775 N.am      16 UNK        -0.5000 
     90 CA         -4.8801  -26.1811  -50.2811 C.3       16 UNK         0.1400 
     91 CB         -4.9883  -27.5892  -50.9012 C.3       16 UNK        -0.1800 
     92 C          -5.8414  -25.1640  -50.9339 C.2       16 UNK         0.5000 
     93 O          -6.8417  -25.5587  -51.5354 O.2       16 UNK        -0.5000 
     94 N          -5.4895  -23.8725  -50.8319 N.am      17 UNK        -0.5000 
     95 CA         -6.1178  -22.7141  -51.4756 C.3       17 UNK         0.1400 
     96 CB         -7.5288  -22.4774  -50.8996 C.3       17 UNK        -0.1800 
     97 C          -6.1176  -22.7565  -53.0239 C.2       17 UNK         0.5000 
     98 O          -6.8623  -21.9996  -53.6512 O.2       17 UNK        -0.5000 
     99 N          -5.3013  -23.6298  -53.6325 N.am      18 UNK        -0.5000 
    100 CA        -5.2718  -23.8552  -55.0763 C.3       18 UNK         0.1400 
    101 CB        -4.5002  -25.1491  -55.3733 C.3       18 UNK        -0.1800 
    102 C         -4.6461  -22.6712  -55.8468 C.2       18 UNK         0.5000 
    103 O         -3.8482  -21.9306  -55.2734 O.2       18 UNK        -0.5000 
    104 N         -4.9685  -22.4657  -57.1314 N.am      19 UNK        -0.5000 
    105 CA        -6.0838  -23.0321  -57.8978 C.3       19 UNK         0.1400 
    106 CB        -5.6022  -23.3025  -59.3343 C.3       19 UNK        -0.1800 
    107 C         -7.2384  -22.0135  -57.8379 C.2       19 UNK         0.5000 
    108 O         -7.5433  -21.3665  -58.8399 O.2       19 UNK        -0.5000 
    109 N         -7.7588  -21.8011  -56.6171 N.am      20 UNK        -0.5000 
    110 CA        -8.5658  -20.6548  -56.1724 C.3       20 UNK         0.1400 
    111 CB        -9.8653  -20.5052  -56.9910 C.3       20 UNK        -0.1800 
    112 C         -7.7510  -19.3412  -56.0945 C.2       20 UNK         0.5000 
    113 O         -8.3352  -18.2716  -55.9161 O.2       20 UNK        -0.5000 
    114 N         -6.4197  -19.4438  -56.2180 N.am      21 UNK        -0.5000 
    115 CA        -5.4730  -18.3345  -56.1787 C.3       21 UNK         0.1400 
    116 CB        -4.2723  -18.6528  -57.0851 C.3       21 UNK        -0.1800 
    117 C         -5.0194  -18.0536  -54.7401 C.2       21 UNK         0.5000 
    118 O         -5.1227  -16.9120  -54.2898 O.2       21 UNK        -0.5000 
    119 N         -4.5388  -19.0930  -54.0410 N.am      22 UNK        -0.5000 
    120 CA        -4.0781  -18.9875  -52.6459 C.3       22 UNK         0.1400 
    121 C         -5.2158  -18.9529  -51.5851 C.2       22 UNK         0.5000 
    122 N         -6.4711  -19.1901  -51.9431 N.am      22 UNK        -0.7600 
    123 O         -4.9539  -18.6944  -50.4150 O.2       22 UNK        -0.5000 
    124 C124       -3.0078  -20.0519  -52.2851 C.3       23 UNK        -0.0398 
    125 S125       -1.5309  -20.0470  -53.3614 S.3       23 UNK        -0.2404 
    126 C126       -0.8212  -18.3862  -53.1097 C.3       23 UNK        -0.0205 
    127 H127        1.0375  -10.0634  -49.3352 H         1 UNK         0.0600 
    128 H128        1.6695  -10.2089  -50.9774 H         1 UNK         0.0600 
    129 H129        2.7714   -9.9072  -49.6295 H         1 UNK         0.0600 
    130 H130        0.4925  -12.0304  -48.4697 H         1 UNK         0.3000 
    131 H131        1.2236  -14.5561  -49.5288 H         1 UNK         0.0600 
    132 H132        0.2107  -15.3503  -47.2303 H         1 UNK         0.0800 
    133 H133       -0.1401  -13.6778  -46.9387 H         1 UNK         0.0800 
    134 H134       -1.7121  -16.6935  -47.5567 H         1 UNK         0.0800 
    135 H135       -2.8438  -16.5553  -48.8714 H         1 UNK         0.0800 
    136 H136       -2.1993  -17.0374  -51.1721 H         1 UNK         0.1150 
    137 H137        1.4974  -19.1025  -51.8565 H         1 UNK         0.1150 
    138 H138        0.6701  -17.3798  -48.0223 H         1 UNK         0.1150 
    139 H139        3.3291  -18.5818  -50.2312 H         1 UNK         0.0800 
    140 H140        2.9705  -18.0030  -48.6294 H         1 UNK         0.0800 
    141 H141        1.3416  -19.3195  -47.0714 H         1 UNK         0.0800 
    142 H142        2.7823  -20.0523  -46.4329 H         1 UNK         0.0800 
    143 H143        1.7833  -22.3273  -46.8342 H         1 UNK         0.0600 
    144 H144        1.0087  -20.5281  -44.7870 H         1 UNK         0.3000 
    145 H145       -0.7101  -22.9563  -42.7661 H         1 UNK         0.0600 
    146 H146        0.9538  -22.1070  -41.1518 H         1 UNK         0.0600 
    147 H147        1.7459  -23.1477  -42.3245 H         1 UNK         0.0600 
    148 H148        1.9106  -21.4005  -42.4523 H         1 UNK         0.0600 
    149 H149       -0.2802  -20.1990  -42.3196 H         1 UNK         0.3000 
    150 H150       -3.2563  -18.9984  -43.9619 H         1 UNK         0.0600 
    151 H151       -3.8496  -19.7887  -41.6587 H         1 UNK         0.0600 
    152 H152       -3.5457  -18.0583  -41.6950 H         1 UNK         0.0600 
    153 H153       -2.3274  -19.1524  -41.0446 H         1 UNK         0.0600 
    154 H154       -1.2319  -17.5643  -42.6167 H         1 UNK         0.3000 
    155 H155        0.8759  -16.9276  -45.4620 H         1 UNK         0.0600 
    156 H156        0.4536  -14.6687  -44.5955 H         1 UNK         0.0600 
    157 H157       -0.7985  -15.2589  -43.5110 H         1 UNK         0.0600 
    158 H158       -1.0647  -15.2934  -45.2375 H         1 UNK         0.0600 
    159 H159        1.2864  -16.2798  -42.7477 H         1 UNK         0.3000 
    160 H160        3.0453  -19.2241  -41.7345 H         1 UNK         0.0600 
    161 H161        3.9088  -16.3166  -42.1857 H         1 UNK         0.0600 
    162 H162        4.6904  -17.7286  -42.8843 H         1 UNK         0.0600 
    163 H163        4.7052  -17.4921  -41.1436 H         1 UNK         0.0600 
    164 H164        2.2695  -16.7877  -40.4133 H         1 UNK         0.3000 
    165 H165       -0.8065  -18.0027  -39.0705 H         1 UNK         0.0600 
    166 H166        1.9116  -17.3657  -37.7971 H         1 UNK         0.0600 
    167 H167        0.3491  -17.3447  -36.9793 H         1 UNK         0.0600 
    168 H168        1.0071  -18.8591  -37.5777 H         1 UNK         0.0600 
    169 H169        0.5933  -15.5194  -38.8059 H         1 UNK         0.3000 
    170 H170       -0.8432  -13.8667  -41.6078 H         1 UNK         0.0600 
    171 H171       -2.6472  -13.7844  -39.8821 H         1 UNK         0.0600 
    172 H172       -1.4435  -13.5583  -38.6187 H         1 UNK         0.0600 
    173 H173       -1.6704  -12.3254  -39.8598 H         1 UNK         0.0600 
    174 H174        0.7766  -12.8756  -39.5190 H         1 UNK         0.3000 
    175 H175        2.8389  -12.1492  -40.0702 H         1 UNK         0.0600 
    176 H176        4.7488  -13.4663  -39.1192 H         1 UNK         0.0600 
    177 H177        3.2156  -14.1510  -38.6048 H         1 UNK         0.0600 
    178 H178        4.1404  -14.9328  -39.8830 H         1 UNK         0.0600 
    179 H179        3.9516  -13.6095  -42.3755 H         1 UNK         0.3000 
    180 H180        5.4286  -10.7616  -43.6193 H         1 UNK         0.0600 
    181 H181        7.2961  -12.8424  -42.3600 H         1 UNK         0.0600 
    182 H182        7.3834  -11.1032  -42.1103 H         1 UNK         0.0600 
    183 H183        7.6998  -11.7707  -43.7024 H         1 UNK         0.0600 
    184 H184        5.8879  -13.5444  -44.2268 H         1 UNK         0.3000 
    185 H185        4.9051  -14.0394  -46.4908 H         1 UNK         0.0600 
    186 H186        3.5848  -16.0998  -45.7287 H         1 UNK         0.0600 
    187 H187        4.6316  -15.4845  -44.4697 H         1 UNK         0.0600 
    188 H188        2.9097  -15.1365  -44.4187 H         1 UNK         0.0600 
    189 H189        2.3209  -12.8778  -46.5144 H         1 UNK         0.3000 
    190 H190       -1.1304  -20.2113  -46.5519 H         1 UNK         0.3000 
    191 H191       -2.3264  -20.9405  -49.0061 H         1 UNK         0.0600 
    192 H192       -3.0475  -18.9838  -47.6927 H         1 UNK         0.0600 
    193 H193       -4.4153  -20.0551  -47.9477 H         1 UNK         0.0600 
    194 H194       -3.6104  -20.0190  -46.3819 H         1 UNK         0.0600 
    195 H195       -2.6000  -22.4463  -45.7657 H         1 UNK         0.3000 
    196 H196       -4.4625  -24.4810  -46.4797 H         1 UNK         0.0600 
    197 H197       -3.7275  -25.5215  -44.3293 H         1 UNK         0.0600 
    198 H198       -4.0634  -23.8077  -44.1363 H         1 UNK         0.0600 
    199 H199       -2.3975  -24.3748  -44.2188 H         1 UNK         0.0600 
    200 H200       -0.8534  -24.4794  -46.3843 H         1 UNK         0.3000 
    201 H201       -0.4843  -27.1735  -47.1899 H         1 UNK         0.0600 
    202 H202        1.3076  -25.8180  -46.1540 H         1 UNK         0.0600 
    203 H203        1.3414  -24.7381  -47.5465 H         1 UNK         0.0600 
    204 H204        1.8400  -26.4166  -47.7174 H         1 UNK         0.0600 
    205 H205       -0.8567  -24.1850  -49.1029 H         1 UNK         0.3000 
    206 H206       -0.6157  -25.4392  -51.6951 H         1 UNK         0.0600 
    207 H207       -0.1764  -23.0143  -51.3061 H         1 UNK         0.0600 
    208 H208       -1.4608  -23.2257  -52.4850 H         1 UNK         0.0600 
    209 H209       -1.8547  -22.7676  -50.8335 H         1 UNK         0.0600 
    210 H210       -3.0670  -25.6521  -49.3578 H         1 UNK         0.3000 
    211 H211       -5.1820  -26.2537  -49.2357 H         1 UNK         0.0600 
    212 H212       -4.7594  -27.5802  -51.9673 H         1 UNK         0.0600 
    213 H213       -5.9947  -27.9929  -50.7854 H         1 UNK         0.0600 
    214 H214       -4.3035  -28.2852  -50.4166 H         1 UNK         0.0600 
    215 H215       -4.6791  -23.6596  -50.2555 H         1 UNK         0.3000 
    216 H216       -5.5026  -21.8593  -51.1973 H         1 UNK         0.0600 
    217 H217       -7.5029  -22.4091  -49.8121 H         1 UNK         0.0600 
    218 H218       -8.2170  -23.2784  -51.1703 H         1 UNK         0.0600 
    219 H219       -7.9567  -21.5460  -51.2703 H         1 UNK         0.0600 
    220 H220       -4.6740  -24.2011  -53.0767 H         1 UNK         0.3000 
    221 H221       -6.3097  -23.9987  -55.3728 H         1 UNK         0.0600 
    222 H222       -3.4433  -25.0516  -55.1223 H         1 UNK         0.0600 
    223 H223       -4.9029  -25.9902  -54.8082 H         1 UNK         0.0600 
    224 H224       -4.5602  -25.4085  -56.4308 H         1 UNK         0.0600 
    225 H225       -4.4681  -21.7365  -57.6178 H         1 UNK         0.3000 
    226 H226       -6.4347  -23.9822  -57.4970 H         1 UNK         0.0600 
    227 H227       -4.7947  -24.0349  -59.3447 H         1 UNK         0.0600 
    228 H228       -6.4104  -23.7019  -59.9483 H         1 UNK         0.0600 
    229 H229       -5.2359  -22.3969  -59.8197 H         1 UNK         0.0600 
    230 H230       -7.4410  -22.3754  -55.8479 H         1 UNK         0.3000 
    231 H231       -8.8588  -20.8813  -55.1464 H         1 UNK         0.0600 
    232 H232      -10.5402  -19.7907  -56.5184 H         1 UNK         0.0600 
    233 H233      -10.3981  -21.4532  -57.0644 H         1 UNK         0.0600 
    234 H234       -9.6744  -20.1451  -58.0019 H         1 UNK         0.0600 
    235 H235       -6.0307  -20.3663  -56.3308 H         1 UNK         0.3000 
    236 H236       -5.9548  -17.4341  -56.5664 H         1 UNK         0.0600 
    237 H237       -3.5637  -17.8236  -57.0946 H         1 UNK         0.0600 
    238 H238       -3.7309  -19.5394  -56.7536 H         1 UNK         0.0600 
    239 H239       -4.5903  -18.8195  -58.1144 H         1 UNK         0.0600 
    240 H240       -4.4395  -20.0011  -54.4791 H         1 UNK         0.3000 
    241 H241       -3.6020  -18.0139  -52.5492 H         1 UNK         0.0600 
    242 H242       -7.1989  -19.1389  -51.2488 H         1 UNK         0.3800 
    243 H243       -6.6983  -19.4248  -52.8961 H         1 UNK         0.3800 
    244 H244       -2.6685  -19.9270  -51.2557 H         1 UNK         0.0800 
    245 H245       -3.4435  -21.0504  -52.3379 H         1 UNK         0.0800 
    246 H246       -1.5250  -17.6274  -53.4532 H         1 UNK         0.0800 
    247 H247        0.0529  -18.2865  -53.7547 H         1 UNK         0.0800 
@<TRIPOS>BOND
     1    1    2 1    
     2    1  127 1    
     3    1  128 1    
     4    1  129 1    
     5    2    3 2    
     6    2    4 am   BACKBONE|DICT|INTERRES
     7    4    5 1    
     8    4  130 1    
     9    5    6 1    
    10    5   65 1    
    11    5  131 1    
    12    6    7 1    
    13    6  132 1    
    14    6  133 1    
    15    7    8 1    
    16    8    9 1    
    17    8  134 1    
    18    8  135 1    
    19    9   10 ar   
    20    9   14 ar   
    21   10   11 ar   
    22   10  136 1    
    23   11   12 ar   
    24   11  126 1    
    25   12   13 ar   
    26   12  137 1    
    27   13   14 ar   
    28   13   15 1    
    29   14  138 1    
    30   15   16 1    
    31   15  139 1    
    32   15  140 1    
    33   16   17 1    
    34   17   18 1    
    35   17  141 1    
    36   17  142 1    
    37   18   19 1    
    38   18   67 1    
    39   18  143 1    
    40   19   20 am   BACKBONE|DICT|INTERRES
    41   19  144 1    
    42   20   21 2    
    43   20   22 1    
    44   22   23 1    
    45   22   24 1    
    46   22  145 1    
    47   23  146 1    
    48   23  147 1    
    49   23  148 1    
    50   24   25 am   BACKBONE|DICT|INTERRES
    51   24  149 1    
    52   25   26 2    
    53   25   27 1    
    54   27   28 1    
    55   27   29 1    
    56   27  150 1    
    57   28  151 1    
    58   28  152 1    
    59   28  153 1    
    60   29   30 am   BACKBONE|DICT|INTERRES
    61   29  154 1    
    62   30   31 2    
    63   30   32 1    
    64   32   33 1    
    65   32   34 1    
    66   32  155 1    
    67   33  156 1    
    68   33  157 1    
    69   33  158 1    
    70   34   35 am   BACKBONE|DICT|INTERRES
    71   34  159 1    
    72   35   36 2    
    73   35   37 1    
    74   37   38 1    
    75   37   39 1    
    76   37  160 1    
    77   38  161 1    
    78   38  162 1    
    79   38  163 1    
    80   39   40 am   BACKBONE|DICT|INTERRES
    81   39  164 1    
    82   40   41 2    
    83   40   42 1    
    84   42   43 1    
    85   42   44 1    
    86   42  165 1    
    87   43  166 1    
    88   43  167 1    
    89   43  168 1    
    90   44   45 am   BACKBONE|DICT|INTERRES
    91   44  169 1    
    92   45   46 2    
    93   45   47 1    
    94   47   48 1    
    95   47   49 1    
    96   47  170 1    
    97   48  171 1    
    98   48  172 1    
    99   48  173 1    
   100   49   50 am   BACKBONE|DICT|INTERRES
   101   49  174 1    
   102   50   51 2    
   103   50   52 1    
   104   52   53 1    
   105   52   54 1    
   106   52  175 1    
   107   53  176 1    
   108   53  177 1    
   109   53  178 1    
   110   54   55 am   BACKBONE|DICT|INTERRES
   111   54  179 1    
   112   55   56 2    
   113   55   57 1    
   114   57   58 1    
   115   57   59 1    
   116   57  180 1    
   117   58  181 1    
   118   58  182 1    
   119   58  183 1    
   120   59   60 am   BACKBONE|DICT|INTERRES
   121   59  184 1    
   122   60   61 2    
   123   60   62 1    
   124   62   63 1    
   125   62   64 1    
   126   62  185 1    
   127   63  186 1    
   128   63  187 1    
   129   63  188 1    
   130   64   65 am   BACKBONE|DICT|INTERRES
   131   64  189 1    
   132   65   66 2    
   133   67   68 2    
   134   67   69 am   BACKBONE|DICT|INTERRES
   135   69   70 1    
   136   69  190 1    
   137   70   71 1    
   138   70   72 1    
   139   70  191 1    
   140   71  192 1    
   141   71  193 1    
   142   71  194 1    
   143   72   73 2    
   144   72   74 am   BACKBONE|DICT|INTERRES
   145   74   75 1    
   146   74  195 1    
   147   75   76 1    
   148   75   77 1    
   149   75  196 1    
   150   76  197 1    
   151   76  198 1    
   152   76  199 1    
   153   77   78 2    
   154   77   79 am   BACKBONE|DICT|INTERRES
   155   79   80 1    
   156   79  200 1    
   157   80   81 1    
   158   80   82 1    
   159   80  201 1    
   160   81  202 1    
   161   81  203 1    
   162   81  204 1    
   163   82   83 2    
   164   82   84 am   BACKBONE|DICT|INTERRES
   165   84   85 1    
   166   84  205 1    
   167   85   86 1    
   168   85   87 1    
   169   85  206 1    
   170   86  207 1    
   171   86  208 1    
   172   86  209 1    
   173   87   88 2    
   174   87   89 am   BACKBONE|DICT|INTERRES
   175   89   90 1    
   176   89  210 1    
   177   90   91 1    
   178   90   92 1    
   179   90  211 1    
   180   91  212 1    
   181   91  213 1    
   182   91  214 1    
   183   92   93 2    
   184   92   94 am   BACKBONE|DICT|INTERRES
   185   94   95 1    
   186   94  215 1    
   187   95   96 1    
   188   95   97 1    
   189   95  216 1    
   190   96  217 1    
   191   96  218 1    
   192   96  219 1    
   193   97   98 2    
   194   97   99 am   BACKBONE|DICT|INTERRES
   195   99  100 1    
   196   99  220 1    
   197  100  101 1    
   198  100  102 1    
   199  100  221 1    
   200  101  222 1    
   201  101  223 1    
   202  101  224 1    
   203  102  103 2    
   204  102  104 am   BACKBONE|DICT|INTERRES
   205  104  105 1    
   206  104  225 1    
   207  105  106 1    
   208  105  107 1    
   209  105  226 1    
   210  106  227 1    
   211  106  228 1    
   212  106  229 1    
   213  107  108 2    
   214  107  109 am   BACKBONE|DICT|INTERRES
   215  109  110 1    
   216  109  230 1    
   217  110  111 1    
   218  110  112 1    
   219  110  231 1    
   220  111  232 1    
   221  111  233 1    
   222  111  234 1    
   223  112  113 2    
   224  112  114 am   BACKBONE|DICT|INTERRES
   225  114  115 1    
   226  114  235 1    
   227  115  116 1    
   228  115  117 1    
   229  115  236 1    
   230  116  237 1    
   231  116  238 1    
   232  116  239 1    
   233  117  118 2    
   234  117  119 am   BACKBONE|DICT|INTERRES
   235  119  120 1    
   236  119  240 1    
   237  120  121 1    
   238  120  124 1    
   239  120  241 1    
   240  121  122 am   BACKBONE|DICT|INTERRES
   241  121  123 2    
   242  122  242 1    
   243  122  243 1    
   244  124  125 1    
   245  124  244 1    
   246  124  245 1    
   247  125  126 1    
   248  126  246 1    
   249  126  247 1    
@<TRIPOS>SUBSTRUCTURE
     1 UNK         1 GROUP             0       ****    0 ROOT    
