@<TRIPOS>MOLECULE
3R540
247   249    1
SMALL
USER_CHARGES


@<TRIPOS>ATOM
      1 CA          4.1820   -9.7548  -47.5756 C.3       0 UNK        -0.1800 
      2 C           3.4456  -11.0654  -47.3392 C.2       0 UNK         0.5000 
      3 O           3.4338  -11.5693  -46.2157 O.2       0 UNK        -0.5000 
      4 N           2.8213  -11.6171  -48.3877 N.am      1 UNK        -0.5000 
      5 CA          2.0496  -12.8651  -48.3650 C.3       1 UNK         0.1400 
      6 C6          2.0352  -13.5367  -49.7623 C.3       23 UNK        -0.0398 
      7 S7          1.6429  -15.3221  -49.6967 S.3       23 UNK        -0.2404 
      8 C8          3.2477  -16.0804  -50.1047 C.3       23 UNK        -0.0205 
      9 C9          3.0606  -17.4401  -50.7590 C.ar      23 UNK        -0.0193 
     10 C10         2.6856  -17.5107  -52.1024 C.ar      23 UNK        -0.1150 
     11 C11         2.5216  -18.7458  -52.7316 C.ar      23 UNK        -0.0193 
     12 C12         2.7410  -19.9202  -52.0057 C.ar      23 UNK        -0.1150 
     13 C13         3.1245  -19.8707  -50.6613 C.ar      23 UNK        -0.0193 
     14 C14         3.2833  -18.6211  -50.0441 C.ar      23 UNK        -0.1150 
     15 C15         3.4264  -21.1813  -49.9340 C.3       23 UNK        -0.0205 
     16 S16         3.1102  -21.1572  -48.1385 S.3       23 UNK        -0.2404 
     17 C17         1.2919  -21.2790  -48.0595 C.3       23 UNK        -0.0398 
     18 CA          0.8201  -22.5919  -47.3849 C.3       11 UNK         0.1400 
     19 N           1.3561  -22.7352  -46.0340 N.am      11 UNK        -0.5000 
     20 C           1.5872  -23.8910  -45.4038 C.2       10 UNK         0.5000 
     21 O           1.4157  -24.9943  -45.9261 O.2       10 UNK        -0.5000 
     22 CA          2.0774  -23.7882  -43.9427 C.3       10 UNK         0.1400 
     23 CB          2.7647  -25.0738  -43.4371 C.3       10 UNK        -0.1800 
     24 N           2.9122  -22.6075  -43.6950 N.am      10 UNK        -0.5000 
     25 C           4.1166  -22.3212  -44.2136 C.2       9 UNK         0.5000 
     26 O           4.7420  -23.0826  -44.9527 O.2       9 UNK        -0.5000 
     27 CA          4.7374  -20.9523  -43.8537 C.3       9 UNK         0.1400 
     28 CB          4.8403  -20.0546  -45.0965 C.3       9 UNK        -0.1800 
     29 N           3.9994  -20.2256  -42.8187 N.am      9 UNK        -0.5000 
     30 C           4.0509  -20.4860  -41.5061 C.2       8 UNK         0.5000 
     31 O           4.7894  -21.3346  -41.0053 O.2       8 UNK        -0.5000 
     32 CA          3.0829  -19.6914  -40.6072 C.3       8 UNK         0.1400 
     33 CB          3.7073  -18.3539  -40.1826 C.3       8 UNK        -0.1800 
     34 N           1.7832  -19.4472  -41.2401 N.am      8 UNK        -0.5000 
     35 C           0.9104  -20.4073  -41.5797 C.2       7 UNK         0.5000 
     36 O           1.0937  -21.6047  -41.3613 O.2       7 UNK        -0.5000 
     37 CA         -0.3561  -19.9678  -42.3351 C.3       7 UNK         0.1400 
     38 CB         -1.4097  -19.4256  -41.3582 C.3       7 UNK        -0.1800 
     39 N          -0.0799  -18.9778  -43.3774 N.am      7 UNK        -0.5000 
     40 C           0.6789  -19.2094  -44.4590 C.2       6 UNK         0.5000 
     41 O           1.2139  -20.2899  -44.6956 O.2       6 UNK        -0.5000 
     42 CA          0.9389  -18.0248  -45.4060 C.3       6 UNK         0.1400 
     43 CB         -0.2579  -17.7760  -46.3377 C.3       6 UNK        -0.1800 
     44 N           1.2605  -16.7991  -44.6797 N.am      6 UNK        -0.5000 
     45 C           2.3137  -16.6432  -43.8658 C.2       5 UNK         0.5000 
     46 O           3.1797  -17.4996  -43.6897 O.2       5 UNK        -0.5000 
     47 CA          2.3709  -15.3305  -43.0679 C.3       5 UNK         0.1400 
     48 CB          2.9075  -14.1797  -43.9332 C.3       5 UNK        -0.1800 
     49 N           1.0603  -14.9744  -42.5214 N.am      5 UNK        -0.5000 
     50 C           0.4442  -15.6457  -41.5376 C.2       4 UNK         0.5000 
     51 O           0.9344  -16.6180  -40.9639 O.2       4 UNK        -0.5000 
     52 CA         -0.9693  -15.1701  -41.1517 C.3       4 UNK         0.1400 
     53 CB         -0.8937  -14.0013  -40.1582 C.3       4 UNK        -0.1800 
     54 N          -1.7682  -14.7696  -42.3110 N.am      4 UNK        -0.5000 
     55 C          -2.2087  -15.6151  -43.2534 C.2       3 UNK         0.5000 
     56 O          -2.0174  -16.8290  -43.2244 O.2       3 UNK        -0.5000 
     57 CA         -2.9270  -14.9904  -44.4653 C.3       3 UNK         0.1400 
     58 CB         -4.4233  -14.8052  -44.1759 C.3       3 UNK        -0.1800 
     59 N          -2.3410  -13.7144  -44.8925 N.am      3 UNK        -0.5000 
     60 C          -1.0724  -13.5770  -45.2996 C.2       2 UNK         0.5000 
     61 O          -0.2685  -14.5114  -45.3286 O.2       2 UNK        -0.5000 
     62 CA         -0.6053  -12.1594  -45.6764 C.3       2 UNK         0.1400 
     63 CB         -0.2872  -11.3491  -44.4099 C.3       2 UNK        -0.1800 
     64 N           0.5988  -12.2171  -46.5025 N.am      2 UNK        -0.5000 
     65 C           0.6387  -12.6310  -47.7740 C.2       1 UNK         0.5000 
     66 O          -0.3711  -12.8019  -48.4602 O.2       1 UNK        -0.5000 
     67 C          -0.7162  -22.6300  -47.3052 C.2       11 UNK         0.5000 
     68 O          -1.2993  -21.9499  -46.4562 O.2       11 UNK        -0.5000 
     69 N          -1.3515  -23.3871  -48.2116 N.am      12 UNK        -0.5000 
     70 CA         -2.8106  -23.5377  -48.2954 C.3       12 UNK         0.1400 
     71 CB         -3.1581  -24.5864  -49.3604 C.3       12 UNK        -0.1800 
     72 C          -3.5554  -22.2220  -48.5902 C.2       12 UNK         0.5000 
     73 O          -4.7101  -22.0791  -48.1863 O.2       12 UNK        -0.5000 
     74 N          -2.8629  -21.2739  -49.2389 N.am      13 UNK        -0.5000 
     75 CA         -3.3066  -19.9249  -49.6021 C.3       13 UNK         0.1400 
     76 CB         -2.1053  -19.1642  -50.1839 C.3       13 UNK        -0.1800 
     77 C          -3.9308  -19.1045  -48.4546 C.2       13 UNK         0.5000 
     78 O          -4.7352  -18.2133  -48.7236 O.2       13 UNK        -0.5000 
     79 N          -3.5834  -19.4372  -47.2030 N.am      14 UNK        -0.5000 
     80 CA         -4.1621  -18.8729  -45.9839 C.3       14 UNK         0.1400 
     81 CB         -3.4230  -19.4624  -44.7755 C.3       14 UNK        -0.1800 
     82 C          -5.6776  -19.1174  -45.8324 C.2       14 UNK         0.5000 
     83 O          -6.3499  -18.3051  -45.1960 O.2       14 UNK        -0.5000 
     84 N          -6.1808  -20.2223  -46.4012 N.am      15 UNK        -0.5000 
     85 CA         -7.5855  -20.6278  -46.3303 C.3       15 UNK         0.1400 
     86 CB         -7.7029  -21.8766  -45.4419 C.3       15 UNK        -0.1800 
     87 C          -8.1810  -20.8992  -47.7208 C.2       15 UNK         0.5000 
     88 O          -9.3408  -20.5589  -47.9560 O.2       15 UNK        -0.5000 
     89 N          -7.3935  -21.5077  -48.6172 N.am      16 UNK        -0.5000 
     90 CA         -7.8179  -21.9099  -49.9591 C.3       16 UNK         0.1400 
     91 CB         -6.9494  -23.0943  -50.4093 C.3       16 UNK        -0.1800 
     92 C          -7.7597  -20.7635  -50.9876 C.2       16 UNK         0.5000 
     93 O          -8.3462  -20.8954  -52.0628 O.2       16 UNK        -0.5000 
     94 N          -7.0717  -19.6628  -50.6464 N.am      17 UNK        -0.5000 
     95 CA         -6.8650  -18.4640  -51.4627 C.3       17 UNK         0.1400 
     96 CB         -8.1863  -17.6759  -51.6123 C.3       17 UNK        -0.1800 
     97 C          -6.1717  -18.7970  -52.8004 C.2       17 UNK         0.5000 
     98 O          -4.9756  -19.0861  -52.7972 O.2       17 UNK        -0.5000 
     99 N          -6.9242  -18.7447  -53.9067 N.am      18 UNK        -0.5000 
    100 CA        -6.4504  -19.0526  -55.2557 C.3       18 UNK         0.1400 
    101 CB        -7.3393  -18.3120  -56.2675 C.3       18 UNK        -0.1800 
    102 C         -6.4229  -20.5619  -55.5694 C.2       18 UNK         0.5000 
    103 O         -5.7720  -20.9541  -56.5400 O.2       18 UNK        -0.5000 
    104 N         -7.1268  -21.3837  -54.7792 N.am      19 UNK        -0.5000 
    105 CA        -7.1205  -22.8414  -54.9047 C.3       19 UNK         0.1400 
    106 CB        -8.4602  -23.3946  -54.3914 C.3       19 UNK        -0.1800 
    107 C         -5.9368  -23.4573  -54.1362 C.2       19 UNK         0.5000 
    108 O         -5.3580  -22.8033  -53.2669 O.2       19 UNK        -0.5000 
    109 N         -5.6241  -24.7214  -54.4577 N.am      20 UNK        -0.5000 
    110 CA        -4.5385  -25.5290  -53.8876 C.3       20 UNK         0.1400 
    111 CB        -4.8325  -25.8636  -52.4073 C.3       20 UNK        -0.1800 
    112 C         -3.1541  -24.8882  -54.1359 C.2       20 UNK         0.5000 
    113 O         -2.9119  -24.3968  -55.2419 O.2       20 UNK        -0.5000 
    114 N         -2.2644  -24.9062  -53.1329 N.am      21 UNK        -0.5000 
    115 CA        -0.9632  -24.2367  -53.1688 C.3       21 UNK         0.1400 
    116 CB        -0.1495  -24.6103  -51.9190 C.3       21 UNK        -0.1800 
    117 C         -1.1428  -22.7116  -53.2821 C.2       21 UNK         0.5000 
    118 O         -1.7252  -22.1039  -52.3826 O.2       21 UNK        -0.5000 
    119 N         -0.6549  -22.1478  -54.3933 N.am      22 UNK        -0.5000 
    120 CA        -0.8803  -20.7628  -54.8426 C.3       22 UNK         0.1400 
    121 C         -2.2745  -20.5136  -55.4981 C.2       22 UNK         0.5000 
    122 N         -3.0610  -21.5379  -55.8025 N.am      22 UNK        -0.7600 
    123 O         -2.6379  -19.3748  -55.7783 O.2       22 UNK        -0.5000 
    124 C124       -0.5029  -19.6925  -53.7756 C.3       23 UNK        -0.0398 
    125 S125        0.4130  -18.2838  -54.4842 S.3       23 UNK        -0.2404 
    126 C126        2.1354  -18.8028  -54.2026 C.3       23 UNK        -0.0205 
    127 H127        4.1095   -9.4300  -48.6138 H         1 UNK         0.0600 
    128 H128        5.2372   -9.8680  -47.3274 H         1 UNK         0.0600 
    129 H129        3.7641   -8.9712  -46.9437 H         1 UNK         0.0600 
    130 H130        2.8382  -11.1330  -49.2744 H         1 UNK         0.3000 
    131 H131        2.5608  -13.5523  -47.6863 H         1 UNK         0.0600 
    132 H132        1.3289  -13.0436  -50.4323 H         1 UNK         0.0800 
    133 H133        3.0094  -13.4126  -50.2357 H         1 UNK         0.0800 
    134 H134        3.8485  -16.1623  -49.1977 H         1 UNK         0.0800 
    135 H135        3.8081  -15.4435  -50.7902 H         1 UNK         0.0800 
    136 H136        2.5179  -16.6000  -52.6606 H         1 UNK         0.1150 
    137 H137        2.6298  -20.8776  -52.4955 H         1 UNK         0.1150 
    138 H138        3.5959  -18.5611  -49.0116 H         1 UNK         0.1150 
    139 H139        2.8634  -22.0044  -50.3773 H         1 UNK         0.0800 
    140 H140        4.4805  -21.4142  -50.0888 H         1 UNK         0.0800 
    141 H141        0.8786  -21.1921  -49.0659 H         1 UNK         0.0800 
    142 H142        0.9301  -20.4113  -47.5079 H         1 UNK         0.0800 
    143 H143        1.1656  -23.4298  -47.9944 H         1 UNK         0.0600 
    144 H144        1.4491  -21.8667  -45.5089 H         1 UNK         0.3000 
    145 H145        1.1789  -23.6442  -43.3414 H         1 UNK         0.0600 
    146 H146        3.0913  -24.9648  -42.4029 H         1 UNK         0.0600 
    147 H147        2.0799  -25.9218  -43.4721 H         1 UNK         0.0600 
    148 H148        3.6352  -25.3339  -44.0395 H         1 UNK         0.0600 
    149 H149        2.4823  -21.9004  -43.1124 H         1 UNK         0.3000 
    150 H150        5.7493  -21.1431  -43.4909 H         1 UNK         0.0600 
    151 H151        5.3977  -20.5461  -45.8947 H         1 UNK         0.0600 
    152 H152        5.3545  -19.1212  -44.8673 H         1 UNK         0.0600 
    153 H153        3.8549  -19.8035  -45.4896 H         1 UNK         0.0600 
    154 H154        3.4082  -19.4652  -43.1392 H         1 UNK         0.3000 
    155 H155        2.9077  -20.2841  -39.7071 H         1 UNK         0.0600 
    156 H156        4.6674  -18.5095  -39.6892 H         1 UNK         0.0600 
    157 H157        3.0631  -17.8237  -39.4810 H         1 UNK         0.0600 
    158 H158        3.8792  -17.6999  -41.0378 H         1 UNK         0.0600 
    159 H159        1.5372  -18.4772  -41.4130 H         1 UNK         0.3000 
    160 H160       -0.7730  -20.8510  -42.8240 H         1 UNK         0.0600 
    161 H161       -1.0744  -18.5109  -40.8698 H         1 UNK         0.0600 
    162 H162       -1.6296  -20.1540  -40.5768 H         1 UNK         0.0600 
    163 H163       -2.3469  -19.2073  -41.8689 H         1 UNK         0.0600 
    164 H164       -0.5367  -18.0759  -43.2775 H         1 UNK         0.3000 
    165 H165        1.8013  -18.2815  -46.0249 H         1 UNK         0.0600 
    166 H166       -0.0113  -17.0397  -47.1032 H         1 UNK         0.0600 
    167 H167       -0.5618  -18.6898  -46.8487 H         1 UNK         0.0600 
    168 H168       -1.1235  -17.4055  -45.7900 H         1 UNK         0.0600 
    169 H169        0.6207  -16.0165  -44.8013 H         1 UNK         0.3000 
    170 H170        3.0596  -15.4753  -42.2328 H         1 UNK         0.0600 
    171 H171        3.9100  -14.4044  -44.2991 H         1 UNK         0.0600 
    172 H172        2.2795  -13.9962  -44.8046 H         1 UNK         0.0600 
    173 H173        2.9705  -13.2518  -43.3648 H         1 UNK         0.0600 
    174 H174        0.5631  -14.2294  -42.9846 H         1 UNK         0.3000 
    175 H175       -1.4774  -16.0024  -40.6600 H         1 UNK         0.0600 
    176 H176       -0.3169  -14.2777  -39.2745 H         1 UNK         0.0600 
    177 H177       -0.4180  -13.1249  -40.6001 H         1 UNK         0.0600 
    178 H178       -1.8871  -13.7087  -39.8177 H         1 UNK         0.0600 
    179 H179       -1.9675  -13.7858  -42.4135 H         1 UNK         0.3000 
    180 H180       -2.8294  -15.6898  -45.2978 H         1 UNK         0.0600 
    181 H181       -4.8828  -15.7506  -43.8829 H         1 UNK         0.0600 
    182 H182       -4.5937  -14.0918  -43.3688 H         1 UNK         0.0600 
    183 H183       -4.9547  -14.4490  -45.0586 H         1 UNK         0.0600 
    184 H184       -2.9484  -12.9076  -44.8791 H         1 UNK         0.3000 
    185 H185       -1.3993  -11.6601  -46.2354 H         1 UNK         0.0600 
    186 H186       -1.1655  -11.2535  -43.7705 H         1 UNK         0.0600 
    187 H187        0.5016  -11.8168  -43.8190 H         1 UNK         0.0600 
    188 H188        0.0396  -10.3399  -44.6616 H         1 UNK         0.0600 
    189 H189        1.4861  -12.0739  -46.0323 H         1 UNK         0.3000 
    190 H190       -0.8073  -23.9297  -48.8656 H         1 UNK         0.3000 
    191 H191       -3.1605  -23.9025  -47.3275 H         1 UNK         0.0600 
    192 H192       -2.9054  -24.2347  -50.3604 H         1 UNK         0.0600 
    193 H193       -4.2272  -24.8032  -49.3523 H         1 UNK         0.0600 
    194 H194       -2.6353  -25.5267  -49.1846 H         1 UNK         0.0600 
    195 H195       -1.9407  -21.5247  -49.5613 H         1 UNK         0.3000 
    196 H196       -4.0621  -20.0362  -50.3815 H         1 UNK         0.0600 
    197 H197       -2.4083  -18.1899  -50.5697 H         1 UNK         0.0600 
    198 H198       -1.6548  -19.7139  -51.0085 H         1 UNK         0.0600 
    199 H199       -1.3310  -18.9970  -49.4338 H         1 UNK         0.0600 
    200 H200       -2.9247  -20.1945  -47.0763 H         1 UNK         0.3000 
    201 H201       -3.9964  -17.7942  -46.0029 H         1 UNK         0.0600 
    202 H202       -2.3541  -19.2732  -44.8387 H         1 UNK         0.0600 
    203 H203       -3.5639  -20.5416  -44.7019 H         1 UNK         0.0600 
    204 H204       -3.7783  -19.0169  -43.8457 H         1 UNK         0.0600 
    205 H205       -5.5548  -20.8294  -46.9204 H         1 UNK         0.3000 
    206 H206       -8.1895  -19.8370  -45.8806 H         1 UNK         0.0600 
    207 H207       -7.3597  -21.6703  -44.4280 H         1 UNK         0.0600 
    208 H208       -8.7383  -22.2128  -45.3727 H         1 UNK         0.0600 
    209 H209       -7.1118  -22.7058  -45.8330 H         1 UNK         0.0600 
    210 H210       -6.4412  -21.7632  -48.3635 H         1 UNK         0.3000 
    211 H211       -8.8533  -22.2541  -49.9122 H         1 UNK         0.0600 
    212 H212       -7.3131  -23.5111  -51.3478 H         1 UNK         0.0600 
    213 H213       -6.9599  -23.8989  -49.6740 H         1 UNK         0.0600 
    214 H214       -5.9123  -22.7954  -50.5652 H         1 UNK         0.0600 
    215 H215       -6.6206  -19.6545  -49.7431 H         1 UNK         0.3000 
    216 H216       -6.1710  -17.8266  -50.9143 H         1 UNK         0.0600 
    217 H217       -8.0360  -16.7646  -52.1924 H         1 UNK         0.0600 
    218 H218       -8.5671  -17.3740  -50.6365 H         1 UNK         0.0600 
    219 H219       -8.9683  -18.2573  -52.1013 H         1 UNK         0.0600 
    220 H220       -7.9051  -18.5258  -53.8101 H         1 UNK         0.3000 
    221 H221       -5.4296  -18.6795  -55.3651 H         1 UNK         0.0600 
    222 H222       -8.3774  -18.6411  -56.2077 H         1 UNK         0.0600 
    223 H223       -7.3167  -17.2352  -56.0987 H         1 UNK         0.0600 
    224 H224       -6.9979  -18.4862  -57.2888 H         1 UNK         0.0600 
    225 H225       -7.5695  -21.0107  -53.9456 H         1 UNK         0.3000 
    226 H226       -7.0240  -23.1135  -55.9580 H         1 UNK         0.0600 
    227 H227       -9.2995  -22.9555  -54.9308 H         1 UNK         0.0600 
    228 H228       -8.5179  -24.4750  -54.5279 H         1 UNK         0.0600 
    229 H229       -8.6045  -23.1932  -53.3306 H         1 UNK         0.0600 
    230 H230       -6.1410  -25.1655  -55.2034 H         1 UNK         0.3000 
    231 H231       -4.5346  -26.4689  -54.4411 H         1 UNK         0.0600 
    232 H232       -5.8163  -26.3209  -52.3009 H         1 UNK         0.0600 
    233 H233       -4.8175  -24.9732  -51.7792 H         1 UNK         0.0600 
    234 H234       -4.1089  -26.5730  -52.0045 H         1 UNK         0.0600 
    235 H235       -2.5414  -25.3094  -52.2514 H         1 UNK         0.3000 
    236 H236       -0.4216  -24.6027  -54.0438 H         1 UNK         0.0600 
    237 H237       -0.0188  -25.6897  -51.8394 H         1 UNK         0.0600 
    238 H238        0.8452  -24.1646  -51.9581 H         1 UNK         0.0600 
    239 H239       -0.6257  -24.2602  -51.0044 H         1 UNK         0.0600 
    240 H240       -0.2067  -22.7448  -55.0738 H         1 UNK         0.3000 
    241 H241       -0.1820  -20.6598  -55.6737 H         1 UNK         0.0600 
    242 H242       -2.8111  -22.4951  -55.5760 H         1 UNK         0.3800 
    243 H243       -3.9704  -21.3465  -56.2115 H         1 UNK         0.3800 
    244 H244       -1.3946  -19.3099  -53.2771 H         1 UNK         0.0800 
    245 H245        0.1018  -20.1287  -52.9815 H         1 UNK         0.0800 
    246 H246        2.2826  -19.8055  -54.6071 H         1 UNK         0.0800 
    247 H247        2.7971  -18.1460  -54.7691 H         1 UNK         0.0800 
@<TRIPOS>BOND
     1    1    2 1    
     2    1  127 1    
     3    1  128 1    
     4    1  129 1    
     5    2    3 2    
     6    2    4 am   BACKBONE|DICT|INTERRES
     7    4    5 1    
     8    4  130 1    
     9    5    6 1    
    10    5   65 1    
    11    5  131 1    
    12    6    7 1    
    13    6  132 1    
    14    6  133 1    
    15    7    8 1    
    16    8    9 1    
    17    8  134 1    
    18    8  135 1    
    19    9   10 ar   
    20    9   14 ar   
    21   10   11 ar   
    22   10  136 1    
    23   11   12 ar   
    24   11  126 1    
    25   12   13 ar   
    26   12  137 1    
    27   13   14 ar   
    28   13   15 1    
    29   14  138 1    
    30   15   16 1    
    31   15  139 1    
    32   15  140 1    
    33   16   17 1    
    34   17   18 1    
    35   17  141 1    
    36   17  142 1    
    37   18   19 1    
    38   18   67 1    
    39   18  143 1    
    40   19   20 am   BACKBONE|DICT|INTERRES
    41   19  144 1    
    42   20   21 2    
    43   20   22 1    
    44   22   23 1    
    45   22   24 1    
    46   22  145 1    
    47   23  146 1    
    48   23  147 1    
    49   23  148 1    
    50   24   25 am   BACKBONE|DICT|INTERRES
    51   24  149 1    
    52   25   26 2    
    53   25   27 1    
    54   27   28 1    
    55   27   29 1    
    56   27  150 1    
    57   28  151 1    
    58   28  152 1    
    59   28  153 1    
    60   29   30 am   BACKBONE|DICT|INTERRES
    61   29  154 1    
    62   30   31 2    
    63   30   32 1    
    64   32   33 1    
    65   32   34 1    
    66   32  155 1    
    67   33  156 1    
    68   33  157 1    
    69   33  158 1    
    70   34   35 am   BACKBONE|DICT|INTERRES
    71   34  159 1    
    72   35   36 2    
    73   35   37 1    
    74   37   38 1    
    75   37   39 1    
    76   37  160 1    
    77   38  161 1    
    78   38  162 1    
    79   38  163 1    
    80   39   40 am   BACKBONE|DICT|INTERRES
    81   39  164 1    
    82   40   41 2    
    83   40   42 1    
    84   42   43 1    
    85   42   44 1    
    86   42  165 1    
    87   43  166 1    
    88   43  167 1    
    89   43  168 1    
    90   44   45 am   BACKBONE|DICT|INTERRES
    91   44  169 1    
    92   45   46 2    
    93   45   47 1    
    94   47   48 1    
    95   47   49 1    
    96   47  170 1    
    97   48  171 1    
    98   48  172 1    
    99   48  173 1    
   100   49   50 am   BACKBONE|DICT|INTERRES
   101   49  174 1    
   102   50   51 2    
   103   50   52 1    
   104   52   53 1    
   105   52   54 1    
   106   52  175 1    
   107   53  176 1    
   108   53  177 1    
   109   53  178 1    
   110   54   55 am   BACKBONE|DICT|INTERRES
   111   54  179 1    
   112   55   56 2    
   113   55   57 1    
   114   57   58 1    
   115   57   59 1    
   116   57  180 1    
   117   58  181 1    
   118   58  182 1    
   119   58  183 1    
   120   59   60 am   BACKBONE|DICT|INTERRES
   121   59  184 1    
   122   60   61 2    
   123   60   62 1    
   124   62   63 1    
   125   62   64 1    
   126   62  185 1    
   127   63  186 1    
   128   63  187 1    
   129   63  188 1    
   130   64   65 am   BACKBONE|DICT|INTERRES
   131   64  189 1    
   132   65   66 2    
   133   67   68 2    
   134   67   69 am   BACKBONE|DICT|INTERRES
   135   69   70 1    
   136   69  190 1    
   137   70   71 1    
   138   70   72 1    
   139   70  191 1    
   140   71  192 1    
   141   71  193 1    
   142   71  194 1    
   143   72   73 2    
   144   72   74 am   BACKBONE|DICT|INTERRES
   145   74   75 1    
   146   74  195 1    
   147   75   76 1    
   148   75   77 1    
   149   75  196 1    
   150   76  197 1    
   151   76  198 1    
   152   76  199 1    
   153   77   78 2    
   154   77   79 am   BACKBONE|DICT|INTERRES
   155   79   80 1    
   156   79  200 1    
   157   80   81 1    
   158   80   82 1    
   159   80  201 1    
   160   81  202 1    
   161   81  203 1    
   162   81  204 1    
   163   82   83 2    
   164   82   84 am   BACKBONE|DICT|INTERRES
   165   84   85 1    
   166   84  205 1    
   167   85   86 1    
   168   85   87 1    
   169   85  206 1    
   170   86  207 1    
   171   86  208 1    
   172   86  209 1    
   173   87   88 2    
   174   87   89 am   BACKBONE|DICT|INTERRES
   175   89   90 1    
   176   89  210 1    
   177   90   91 1    
   178   90   92 1    
   179   90  211 1    
   180   91  212 1    
   181   91  213 1    
   182   91  214 1    
   183   92   93 2    
   184   92   94 am   BACKBONE|DICT|INTERRES
   185   94   95 1    
   186   94  215 1    
   187   95   96 1    
   188   95   97 1    
   189   95  216 1    
   190   96  217 1    
   191   96  218 1    
   192   96  219 1    
   193   97   98 2    
   194   97   99 am   BACKBONE|DICT|INTERRES
   195   99  100 1    
   196   99  220 1    
   197  100  101 1    
   198  100  102 1    
   199  100  221 1    
   200  101  222 1    
   201  101  223 1    
   202  101  224 1    
   203  102  103 2    
   204  102  104 am   BACKBONE|DICT|INTERRES
   205  104  105 1    
   206  104  225 1    
   207  105  106 1    
   208  105  107 1    
   209  105  226 1    
   210  106  227 1    
   211  106  228 1    
   212  106  229 1    
   213  107  108 2    
   214  107  109 am   BACKBONE|DICT|INTERRES
   215  109  110 1    
   216  109  230 1    
   217  110  111 1    
   218  110  112 1    
   219  110  231 1    
   220  111  232 1    
   221  111  233 1    
   222  111  234 1    
   223  112  113 2    
   224  112  114 am   BACKBONE|DICT|INTERRES
   225  114  115 1    
   226  114  235 1    
   227  115  116 1    
   228  115  117 1    
   229  115  236 1    
   230  116  237 1    
   231  116  238 1    
   232  116  239 1    
   233  117  118 2    
   234  117  119 am   BACKBONE|DICT|INTERRES
   235  119  120 1    
   236  119  240 1    
   237  120  121 1    
   238  120  124 1    
   239  120  241 1    
   240  121  122 am   BACKBONE|DICT|INTERRES
   241  121  123 2    
   242  122  242 1    
   243  122  243 1    
   244  124  125 1    
   245  124  244 1    
   246  124  245 1    
   247  125  126 1    
   248  126  246 1    
   249  126  247 1    
@<TRIPOS>SUBSTRUCTURE
     1 UNK         1 GROUP             0       ****    0 ROOT    
