@<TRIPOS>MOLECULE
3R540
247   249    1
SMALL
USER_CHARGES


@<TRIPOS>ATOM
      1 CA         -6.2042  -18.3158  -45.5484 C.3       0 UNK        -0.1800 
      2 C          -5.5459  -16.9865  -45.8832 C.2       0 UNK         0.5000 
      3 O          -5.8890  -15.9666  -45.2837 O.2       0 UNK        -0.5000 
      4 N          -4.6069  -16.9838  -46.8373 N.am      1 UNK        -0.5000 
      5 CA         -3.8915  -15.7923  -47.2951 C.3       1 UNK         0.1400 
      6 C6         -3.5136  -15.9011  -48.7922 C.3       23 UNK        -0.0398 
      7 S7         -3.0389  -14.2813  -49.4938 S.3       23 UNK        -0.2404 
      8 C8         -2.7037  -14.7166  -51.2349 C.3       23 UNK        -0.0205 
      9 C9         -1.3493  -15.3669  -51.5279 C.ar      23 UNK        -0.0193 
     10 C10        -0.9695  -15.5141  -52.8661 C.ar      23 UNK        -0.1150 
     11 C11         0.2396  -16.1216  -53.2189 C.ar      23 UNK        -0.0193 
     12 C12         1.0732  -16.6016  -52.2006 C.ar      23 UNK        -0.1150 
     13 C13         0.7114  -16.4682  -50.8591 C.ar      23 UNK        -0.0193 
     14 C14        -0.4874  -15.8353  -50.5277 C.ar      23 UNK        -0.1150 
     15 C15         1.6178  -17.0101  -49.7664 C.3       23 UNK        -0.0205 
     16 S16         1.2880  -18.7662  -49.4144 S.3       23 UNK        -0.2404 
     17 C17        -0.3140  -18.6929  -48.5364 C.3       23 UNK        -0.0398 
     18 CA         -0.7014  -20.0461  -47.8828 C.3       11 UNK         0.1400 
     19 N           0.3053  -20.5114  -46.9240 N.am      11 UNK        -0.5000 
     20 C           1.0551  -21.6105  -47.0554 C.2       10 UNK         0.5000 
     21 O           0.9896  -22.3751  -48.0172 O.2       10 UNK        -0.5000 
     22 CA          2.0501  -21.9248  -45.9232 C.3       10 UNK         0.1400 
     23 CB          3.4423  -21.3778  -46.2753 C.3       10 UNK        -0.1800 
     24 N           1.6718  -21.4372  -44.5934 N.am      10 UNK        -0.5000 
     25 C           0.5958  -21.8300  -43.8964 C.2       9 UNK         0.5000 
     26 O          -0.3249  -22.4920  -44.3771 O.2       9 UNK        -0.5000 
     27 CA          0.5301  -21.3929  -42.4237 C.3       9 UNK         0.1400 
     28 CB          1.6900  -21.9900  -41.6101 C.3       9 UNK        -0.1800 
     29 N           0.5787  -19.9383  -42.3479 N.am      9 UNK        -0.5000 
     30 C          -0.4329  -19.1572  -41.9481 C.2       8 UNK         0.5000 
     31 O          -1.4345  -19.5803  -41.3707 O.2       8 UNK        -0.5000 
     32 CA         -0.3385  -17.6483  -42.2629 C.3       8 UNK         0.1400 
     33 CB         -0.1401  -16.8316  -40.9772 C.3       8 UNK        -0.1800 
     34 N           0.7113  -17.2876  -43.2197 N.am      8 UNK        -0.5000 
     35 C           0.7982  -17.7103  -44.4883 C.2       7 UNK         0.5000 
     36 O          -0.0451  -18.4213  -45.0291 O.2       7 UNK        -0.5000 
     37 CA          2.0845  -17.3545  -45.2541 C.3       7 UNK         0.1400 
     38 CB          1.9017  -16.0535  -46.0422 C.3       7 UNK        -0.1800 
     39 N           3.2615  -17.2344  -44.3894 N.am      7 UNK        -0.5000 
     40 C           3.7944  -18.2240  -43.6575 C.2       6 UNK         0.5000 
     41 O           3.3347  -19.3658  -43.6108 O.2       6 UNK        -0.5000 
     42 CA          5.0215  -17.8552  -42.8063 C.3       6 UNK         0.1400 
     43 CB          6.2838  -17.7737  -43.6780 C.3       6 UNK        -0.1800 
     44 N           4.8267  -16.5853  -42.1042 N.am      6 UNK        -0.5000 
     45 C           4.0413  -16.4384  -41.0276 C.2       5 UNK         0.5000 
     46 O           3.4722  -17.3740  -40.4656 O.2       5 UNK        -0.5000 
     47 CA          3.8333  -15.0024  -40.5047 C.3       5 UNK         0.1400 
     48 CB          4.9108  -14.6448  -39.4698 C.3       5 UNK        -0.1800 
     49 N           3.8147  -13.9792  -41.5570 N.am      5 UNK        -0.5000 
     50 C           2.9174  -13.9269  -42.5494 C.2       4 UNK         0.5000 
     51 O           2.0259  -14.7667  -42.7064 O.2       4 UNK        -0.5000 
     52 CA          3.0561  -12.7715  -43.5529 C.3       4 UNK         0.1400 
     53 CB          4.3190  -12.9413  -44.4192 C.3       4 UNK        -0.1800 
     54 N           1.8696  -12.7831  -44.3975 N.am      4 UNK        -0.5000 
     55 C           1.4221  -11.8192  -45.2060 C.2       3 UNK         0.5000 
     56 O           1.9711  -10.7240  -45.3328 O.2       3 UNK        -0.5000 
     57 CA          0.1510  -12.1364  -46.0243 C.3       3 UNK         0.1400 
     58 CB          0.5109  -12.3916  -47.4970 C.3       3 UNK        -0.1800 
     59 N          -0.5994  -13.2956  -45.5321 N.am      3 UNK        -0.5000 
     60 C          -1.3272  -13.3394  -44.4102 C.2       2 UNK         0.5000 
     61 O          -1.4619  -12.3786  -43.6510 O.2       2 UNK        -0.5000 
     62 CA         -2.0245  -14.6835  -44.1081 C.3       2 UNK         0.1400 
     63 CB         -2.7439  -14.6902  -42.7476 C.3       2 UNK        -0.1800 
     64 N          -2.9857  -15.0573  -45.1459 N.am      2 UNK        -0.5000 
     65 C          -2.6895  -15.5205  -46.3667 C.2       1 UNK         0.5000 
     66 O          -1.5377  -15.7328  -46.7492 O.2       1 UNK        -0.5000 
     67 C          -2.0875  -20.0006  -47.2010 C.2       11 UNK         0.5000 
     68 O          -2.9808  -19.2918  -47.6700 O.2       11 UNK        -0.5000 
     69 N          -2.2508  -20.7679  -46.1130 N.am      12 UNK        -0.5000 
     70 CA         -3.4946  -20.9321  -45.3653 C.3       12 UNK         0.1400 
     71 CB         -3.3168  -20.3881  -43.9430 C.3       12 UNK        -0.1800 
     72 C          -3.9225  -22.4063  -45.3460 C.2       12 UNK         0.5000 
     73 O          -5.0926  -22.6992  -45.6006 O.2       12 UNK        -0.5000 
     74 N          -2.9668  -23.3118  -45.0935 N.am      13 UNK        -0.5000 
     75 CA         -3.1446  -24.7622  -45.1665 C.3       13 UNK         0.1400 
     76 CB         -1.8600  -25.4391  -44.6642 C.3       13 UNK        -0.1800 
     77 C          -3.4783  -25.2372  -46.5936 C.2       13 UNK         0.5000 
     78 O          -3.1418  -24.5530  -47.5624 O.2       13 UNK        -0.5000 
     79 N          -4.1295  -26.4048  -46.6928 N.am      14 UNK        -0.5000 
     80 CA         -4.5641  -27.0571  -47.9358 C.3       14 UNK         0.1400 
     81 CB         -3.3466  -27.5568  -48.7427 C.3       14 UNK        -0.1800 
     82 C          -5.5155  -26.1702  -48.7675 C.2       14 UNK         0.5000 
     83 O          -5.3214  -26.0135  -49.9744 O.2       14 UNK        -0.5000 
     84 N          -6.5094  -25.5821  -48.0829 N.am      15 UNK        -0.5000 
     85 CA         -7.5231  -24.6616  -48.6116 C.3       15 UNK         0.1400 
     86 CB         -8.4853  -25.4022  -49.5647 C.3       15 UNK        -0.1800 
     87 C          -6.8875  -23.4117  -49.2517 C.2       15 UNK         0.5000 
     88 O          -7.1113  -23.1361  -50.4315 O.2       15 UNK        -0.5000 
     89 N          -6.0626  -22.7077  -48.4623 N.am      16 UNK        -0.5000 
     90 CA         -5.2649  -21.5422  -48.8573 C.3       16 UNK         0.1400 
     91 CB         -6.1699  -20.3266  -49.1465 C.3       16 UNK        -0.1800 
     92 C          -4.2846  -21.8627  -50.0034 C.2       16 UNK         0.5000 
     93 O          -4.1891  -21.1001  -50.9645 O.2       16 UNK        -0.5000 
     94 N          -3.6070  -23.0151  -49.8822 N.am      17 UNK        -0.5000 
     95 CA         -2.7005  -23.6273  -50.8544 C.3       17 UNK         0.1400 
     96 CB         -1.3558  -22.8777  -50.8706 C.3       17 UNK        -0.1800 
     97 C          -3.3563  -23.7954  -52.2410 C.2       17 UNK         0.5000 
     98 O          -2.8685  -23.2584  -53.2380 O.2       17 UNK        -0.5000 
     99 N          -4.4856  -24.5198  -52.2504 N.am      18 UNK        -0.5000 
    100 CA        -5.3679  -24.7811  -53.3917 C.3       18 UNK         0.1400 
    101 CB        -4.6700  -25.6951  -54.4201 C.3       18 UNK        -0.1800 
    102 C         -5.9331  -23.4872  -54.0150 C.2       18 UNK         0.5000 
    103 O         -5.9815  -23.3573  -55.2398 O.2       18 UNK        -0.5000 
    104 N         -6.3257  -22.5444  -53.1472 N.am      19 UNK        -0.5000 
    105 CA        -6.8731  -21.2044  -53.3906 C.3       19 UNK         0.1400 
    106 CB        -8.2269  -21.2874  -54.1197 C.3       19 UNK        -0.1800 
    107 C         -5.9269  -20.2093  -54.0951 C.2       19 UNK         0.5000 
    108 O         -5.9085  -19.0353  -53.7234 O.2       19 UNK        -0.5000 
    109 N         -5.1881  -20.6702  -55.1103 N.am      20 UNK        -0.5000 
    110 CA        -4.2797  -19.8669  -55.9262 C.3       20 UNK         0.1400 
    111 CB        -3.9523  -20.6372  -57.2147 C.3       20 UNK        -0.1800 
    112 C         -2.9876  -19.4743  -55.1888 C.2       20 UNK         0.5000 
    113 O         -2.4981  -18.3620  -55.3916 O.2       20 UNK        -0.5000 
    114 N         -2.4679  -20.3920  -54.3597 N.am      21 UNK        -0.5000 
    115 CA        -1.2170  -20.2906  -53.6044 C.3       21 UNK         0.1400 
    116 CB        -1.3647  -19.2679  -52.4588 C.3       21 UNK        -0.1800 
    117 C          0.0302  -20.0808  -54.4947 C.2       21 UNK         0.5000 
    118 O          0.0098  -20.4551  -55.6700 O.2       21 UNK        -0.5000 
    119 N          1.1130  -19.5457  -53.9105 N.am      22 UNK        -0.5000 
    120 CA         2.4265  -19.3213  -54.5506 C.3       22 UNK         0.1400 
    121 C          3.1803  -20.6276  -54.9626 C.2       22 UNK         0.5000 
    122 N          2.8251  -21.7925  -54.4341 N.am      22 UNK        -0.7600 
    123 O          4.1304  -20.5890  -55.7398 O.2       22 UNK        -0.5000 
    124 C124        2.3673  -18.2581  -55.6909 C.3       23 UNK        -0.0398 
    125 S125        2.3430  -16.5386  -55.0773 S.3       23 UNK        -0.2404 
    126 C126        0.5755  -16.2666  -54.7052 C.3       23 UNK        -0.0205 
    127 H127       -6.0651  -19.0411  -46.3483 H         1 UNK         0.0600 
    128 H128       -7.2762  -18.1795  -45.4068 H         1 UNK         0.0600 
    129 H129       -5.7877  -18.7219  -44.6271 H         1 UNK         0.0600 
    130 H130       -4.2757  -17.8617  -47.2287 H         1 UNK         0.3000 
    131 H131       -4.5637  -14.9357  -47.2051 H         1 UNK         0.0600 
    132 H132       -2.7285  -16.6403  -48.9487 H         1 UNK         0.0800 
    133 H133       -4.3740  -16.2592  -49.3593 H         1 UNK         0.0800 
    134 H134       -3.4959  -15.3732  -51.5965 H         1 UNK         0.0800 
    135 H135       -2.7775  -13.7987  -51.8196 H         1 UNK         0.0800 
    136 H136       -1.6304  -15.1615  -53.6458 H         1 UNK         0.1150 
    137 H137        2.0051  -17.0910  -52.4380 H         1 UNK         0.1150 
    138 H138       -0.7384  -15.7285  -49.4835 H         1 UNK         0.1150 
    139 H139        2.6602  -16.9041  -50.0698 H         1 UNK         0.0800 
    140 H140        1.5081  -16.4189  -48.8598 H         1 UNK         0.0800 
    141 H141       -1.0728  -18.3932  -49.2604 H         1 UNK         0.0800 
    142 H142       -0.2723  -17.9054  -47.7833 H         1 UNK         0.0800 
    143 H143       -0.8091  -20.7733  -48.6893 H         1 UNK         0.0600 
    144 H144        0.3881  -19.9387  -46.0885 H         1 UNK         0.3000 
    145 H145        2.1228  -23.0122  -45.8564 H         1 UNK         0.0600 
    146 H146        3.7843  -21.7651  -47.2359 H         1 UNK         0.0600 
    147 H147        3.4408  -20.2896  -46.3433 H         1 UNK         0.0600 
    148 H148        4.1814  -21.6653  -45.5274 H         1 UNK         0.0600 
    149 H149        2.3532  -20.8320  -44.1413 H         1 UNK         0.3000 
    150 H150       -0.4051  -21.7755  -42.0097 H         1 UNK         0.0600 
    151 H151        1.7023  -23.0779  -41.6877 H         1 UNK         0.0600 
    152 H152        1.5926  -21.7403  -40.5535 H         1 UNK         0.0600 
    153 H153        2.6599  -21.6233  -41.9484 H         1 UNK         0.0600 
    154 H154        1.3736  -19.4972  -42.7943 H         1 UNK         0.3000 
    155 H155       -1.2953  -17.3667  -42.7047 H         1 UNK         0.0600 
    156 H156       -0.9555  -17.0043  -40.2738 H         1 UNK         0.0600 
    157 H157       -0.1122  -15.7622  -41.1856 H         1 UNK         0.0600 
    158 H158        0.7893  -17.0980  -40.4741 H         1 UNK         0.0600 
    159 H159        1.4226  -16.6461  -42.8834 H         1 UNK         0.3000 
    160 H160        2.2726  -18.1590  -45.9676 H         1 UNK         0.0600 
    161 H161        1.7559  -15.2066  -45.3790 H         1 UNK         0.0600 
    162 H162        1.0260  -16.1090  -46.6858 H         1 UNK         0.0600 
    163 H163        2.7642  -15.8448  -46.6749 H         1 UNK         0.0600 
    164 H164        3.6849  -16.3214  -44.3352 H         1 UNK         0.3000 
    165 H165        5.1694  -18.6478  -42.0695 H         1 UNK         0.0600 
    166 H166        7.1686  -17.5819  -43.0707 H         1 UNK         0.0600 
    167 H167        6.4520  -18.7121  -44.2082 H         1 UNK         0.0600 
    168 H168        6.2125  -16.9825  -44.4254 H         1 UNK         0.0600 
    169 H169        5.2739  -15.7676  -42.4913 H         1 UNK         0.3000 
    170 H170        2.8620  -14.9782  -40.0058 H         1 UNK         0.0600 
    171 H171        4.9335  -15.3762  -38.6607 H         1 UNK         0.0600 
    172 H172        5.9055  -14.6181  -39.9164 H         1 UNK         0.0600 
    173 H173        4.7177  -13.6710  -39.0194 H         1 UNK         0.0600 
    174 H174        4.5210  -13.2599  -41.4958 H         1 UNK         0.3000 
    175 H175        3.0985  -11.8304  -43.0014 H         1 UNK         0.0600 
    176 H176        4.2956  -13.8736  -44.9849 H         1 UNK         0.0600 
    177 H177        4.4237  -12.1237  -45.1325 H         1 UNK         0.0600 
    178 H178        5.2223  -12.9479  -43.8084 H         1 UNK         0.0600 
    179 H179        1.3198  -13.6263  -44.2951 H         1 UNK         0.3000 
    180 H180       -0.4987  -11.2603  -45.9743 H         1 UNK         0.0600 
    181 H181        1.1529  -13.2666  -47.6077 H         1 UNK         0.0600 
    182 H182        1.0394  -11.5391  -47.9258 H         1 UNK         0.0600 
    183 H183       -0.3830  -12.5554  -48.0997 H         1 UNK         0.0600 
    184 H184       -0.6039  -14.1231  -46.1216 H         1 UNK         0.3000 
    185 H185       -1.2414  -15.4411  -44.0770 H         1 UNK         0.0600 
    186 H186       -2.0567  -14.4399  -41.9387 H         1 UNK         0.0600 
    187 H187       -3.5601  -13.9671  -42.7208 H         1 UNK         0.0600 
    188 H188       -3.1612  -15.6727  -42.5262 H         1 UNK         0.0600 
    189 H189       -3.9654  -14.9449  -44.9140 H         1 UNK         0.3000 
    190 H190       -1.4634  -21.3224  -45.8004 H         1 UNK         0.3000 
    191 H191       -4.2963  -20.3714  -45.8418 H         1 UNK         0.0600 
    192 H192       -3.0229  -19.3381  -43.9573 H         1 UNK         0.0600 
    193 H193       -4.2452  -20.4616  -43.3757 H         1 UNK         0.0600 
    194 H194       -2.5541  -20.9429  -43.3970 H         1 UNK         0.0600 
    195 H195       -2.0235  -22.9973  -44.8830 H         1 UNK         0.3000 
    196 H196       -3.9705  -25.0346  -44.5065 H         1 UNK         0.0600 
    197 H197       -1.9589  -26.5253  -44.6652 H         1 UNK         0.0600 
    198 H198       -1.6271  -25.1352  -43.6434 H         1 UNK         0.0600 
    199 H199       -1.0034  -25.1860  -45.2909 H         1 UNK         0.0600 
    200 H200       -4.3640  -26.8964  -45.8414 H         1 UNK         0.3000 
    201 H201       -5.1442  -27.9331  -47.6424 H         1 UNK         0.0600 
    202 H202       -2.7143  -28.2068  -48.1380 H         1 UNK         0.0600 
    203 H203       -2.7303  -26.7334  -49.1040 H         1 UNK         0.0600 
    204 H204       -3.6642  -28.1325  -49.6128 H         1 UNK         0.0600 
    205 H205       -6.5566  -25.7550  -47.0886 H         1 UNK         0.3000 
    206 H206       -8.1073  -24.3116  -47.7592 H         1 UNK         0.0600 
    207 H207       -8.9440  -26.2599  -49.0730 H         1 UNK         0.0600 
    208 H208       -9.2922  -24.7449  -49.8904 H         1 UNK         0.0600 
    209 H209       -7.9773  -25.7618  -50.4602 H         1 UNK         0.0600 
    210 H210       -5.9188  -23.0187  -47.5074 H         1 UNK         0.3000 
    211 H211       -4.6503  -21.2940  -47.9971 H         1 UNK         0.0600 
    212 H212       -6.7688  -20.4704  -50.0453 H         1 UNK         0.0600 
    213 H213       -5.5733  -19.4249  -49.2908 H         1 UNK         0.0600 
    214 H214       -6.8538  -20.1374  -48.3199 H         1 UNK         0.0600 
    215 H215       -3.7264  -23.5584  -49.0301 H         1 UNK         0.3000 
    216 H216       -2.5002  -24.6380  -50.4961 H         1 UNK         0.0600 
    217 H217       -0.6974  -23.2513  -51.6555 H         1 UNK         0.0600 
    218 H218       -0.8340  -23.0116  -49.9237 H         1 UNK         0.0600 
    219 H219       -1.4910  -21.8080  -51.0184 H         1 UNK         0.0600 
    220 H220       -4.7987  -24.9260  -51.3697 H         1 UNK         0.3000 
    221 H221       -6.2249  -25.3257  -52.9929 H         1 UNK         0.0600 
    222 H222       -3.8251  -25.1979  -54.8974 H         1 UNK         0.0600 
    223 H223       -4.3012  -26.6067  -53.9499 H         1 UNK         0.0600 
    224 H224       -5.3611  -25.9944  -55.2088 H         1 UNK         0.0600 
    225 H225       -6.2614  -22.7794  -52.1603 H         1 UNK         0.3000 
    226 H226       -7.0642  -20.7926  -52.3991 H         1 UNK         0.0600 
    227 H227       -8.9293  -21.9175  -53.5739 H         1 UNK         0.0600 
    228 H228       -8.6800  -20.2995  -54.2117 H         1 UNK         0.0600 
    229 H229       -8.1234  -21.6928  -55.1265 H         1 UNK         0.0600 
    230 H230       -5.2941  -21.6518  -55.3542 H         1 UNK         0.3000 
    231 H231       -4.7962  -18.9457  -56.2045 H         1 UNK         0.0600 
    232 H232       -3.4611  -21.5874  -57.0005 H         1 UNK         0.0600 
    233 H233       -3.2854  -20.0596  -57.8562 H         1 UNK         0.0600 
    234 H234       -4.8549  -20.8479  -57.7887 H         1 UNK         0.0600 
    235 H235       -2.9467  -21.2794  -54.2630 H         1 UNK         0.3000 
    236 H236       -1.0698  -21.2715  -53.1593 H         1 UNK         0.0600 
    237 H237       -2.2332  -19.4954  -51.8416 H         1 UNK         0.0600 
    238 H238       -0.5007  -19.2685  -51.7959 H         1 UNK         0.0600 
    239 H239       -1.4971  -18.2579  -52.8405 H         1 UNK         0.0600 
    240 H240        1.0503  -19.2758  -52.9398 H         1 UNK         0.3000 
    241 H241        3.0618  -18.9135  -53.7641 H         1 UNK         0.0600 
    242 H242        3.3266  -22.6270  -54.6946 H         1 UNK         0.3800 
    243 H243        2.0617  -21.8499  -53.7806 H         1 UNK         0.3800 
    244 H244        3.2504  -18.3160  -56.3279 H         1 UNK         0.0800 
    245 H245        1.5242  -18.4278  -56.3606 H         1 UNK         0.0800 
    246 H246       -0.0262  -17.0744  -55.1226 H         1 UNK         0.0800 
    247 H247        0.2681  -15.3597  -55.2278 H         1 UNK         0.0800 
@<TRIPOS>BOND
     1    1    2 1    
     2    1  127 1    
     3    1  128 1    
     4    1  129 1    
     5    2    3 2    
     6    2    4 am   BACKBONE|DICT|INTERRES
     7    4    5 1    
     8    4  130 1    
     9    5    6 1    
    10    5   65 1    
    11    5  131 1    
    12    6    7 1    
    13    6  132 1    
    14    6  133 1    
    15    7    8 1    
    16    8    9 1    
    17    8  134 1    
    18    8  135 1    
    19    9   10 ar   
    20    9   14 ar   
    21   10   11 ar   
    22   10  136 1    
    23   11   12 ar   
    24   11  126 1    
    25   12   13 ar   
    26   12  137 1    
    27   13   14 ar   
    28   13   15 1    
    29   14  138 1    
    30   15   16 1    
    31   15  139 1    
    32   15  140 1    
    33   16   17 1    
    34   17   18 1    
    35   17  141 1    
    36   17  142 1    
    37   18   19 1    
    38   18   67 1    
    39   18  143 1    
    40   19   20 am   BACKBONE|DICT|INTERRES
    41   19  144 1    
    42   20   21 2    
    43   20   22 1    
    44   22   23 1    
    45   22   24 1    
    46   22  145 1    
    47   23  146 1    
    48   23  147 1    
    49   23  148 1    
    50   24   25 am   BACKBONE|DICT|INTERRES
    51   24  149 1    
    52   25   26 2    
    53   25   27 1    
    54   27   28 1    
    55   27   29 1    
    56   27  150 1    
    57   28  151 1    
    58   28  152 1    
    59   28  153 1    
    60   29   30 am   BACKBONE|DICT|INTERRES
    61   29  154 1    
    62   30   31 2    
    63   30   32 1    
    64   32   33 1    
    65   32   34 1    
    66   32  155 1    
    67   33  156 1    
    68   33  157 1    
    69   33  158 1    
    70   34   35 am   BACKBONE|DICT|INTERRES
    71   34  159 1    
    72   35   36 2    
    73   35   37 1    
    74   37   38 1    
    75   37   39 1    
    76   37  160 1    
    77   38  161 1    
    78   38  162 1    
    79   38  163 1    
    80   39   40 am   BACKBONE|DICT|INTERRES
    81   39  164 1    
    82   40   41 2    
    83   40   42 1    
    84   42   43 1    
    85   42   44 1    
    86   42  165 1    
    87   43  166 1    
    88   43  167 1    
    89   43  168 1    
    90   44   45 am   BACKBONE|DICT|INTERRES
    91   44  169 1    
    92   45   46 2    
    93   45   47 1    
    94   47   48 1    
    95   47   49 1    
    96   47  170 1    
    97   48  171 1    
    98   48  172 1    
    99   48  173 1    
   100   49   50 am   BACKBONE|DICT|INTERRES
   101   49  174 1    
   102   50   51 2    
   103   50   52 1    
   104   52   53 1    
   105   52   54 1    
   106   52  175 1    
   107   53  176 1    
   108   53  177 1    
   109   53  178 1    
   110   54   55 am   BACKBONE|DICT|INTERRES
   111   54  179 1    
   112   55   56 2    
   113   55   57 1    
   114   57   58 1    
   115   57   59 1    
   116   57  180 1    
   117   58  181 1    
   118   58  182 1    
   119   58  183 1    
   120   59   60 am   BACKBONE|DICT|INTERRES
   121   59  184 1    
   122   60   61 2    
   123   60   62 1    
   124   62   63 1    
   125   62   64 1    
   126   62  185 1    
   127   63  186 1    
   128   63  187 1    
   129   63  188 1    
   130   64   65 am   BACKBONE|DICT|INTERRES
   131   64  189 1    
   132   65   66 2    
   133   67   68 2    
   134   67   69 am   BACKBONE|DICT|INTERRES
   135   69   70 1    
   136   69  190 1    
   137   70   71 1    
   138   70   72 1    
   139   70  191 1    
   140   71  192 1    
   141   71  193 1    
   142   71  194 1    
   143   72   73 2    
   144   72   74 am   BACKBONE|DICT|INTERRES
   145   74   75 1    
   146   74  195 1    
   147   75   76 1    
   148   75   77 1    
   149   75  196 1    
   150   76  197 1    
   151   76  198 1    
   152   76  199 1    
   153   77   78 2    
   154   77   79 am   BACKBONE|DICT|INTERRES
   155   79   80 1    
   156   79  200 1    
   157   80   81 1    
   158   80   82 1    
   159   80  201 1    
   160   81  202 1    
   161   81  203 1    
   162   81  204 1    
   163   82   83 2    
   164   82   84 am   BACKBONE|DICT|INTERRES
   165   84   85 1    
   166   84  205 1    
   167   85   86 1    
   168   85   87 1    
   169   85  206 1    
   170   86  207 1    
   171   86  208 1    
   172   86  209 1    
   173   87   88 2    
   174   87   89 am   BACKBONE|DICT|INTERRES
   175   89   90 1    
   176   89  210 1    
   177   90   91 1    
   178   90   92 1    
   179   90  211 1    
   180   91  212 1    
   181   91  213 1    
   182   91  214 1    
   183   92   93 2    
   184   92   94 am   BACKBONE|DICT|INTERRES
   185   94   95 1    
   186   94  215 1    
   187   95   96 1    
   188   95   97 1    
   189   95  216 1    
   190   96  217 1    
   191   96  218 1    
   192   96  219 1    
   193   97   98 2    
   194   97   99 am   BACKBONE|DICT|INTERRES
   195   99  100 1    
   196   99  220 1    
   197  100  101 1    
   198  100  102 1    
   199  100  221 1    
   200  101  222 1    
   201  101  223 1    
   202  101  224 1    
   203  102  103 2    
   204  102  104 am   BACKBONE|DICT|INTERRES
   205  104  105 1    
   206  104  225 1    
   207  105  106 1    
   208  105  107 1    
   209  105  226 1    
   210  106  227 1    
   211  106  228 1    
   212  106  229 1    
   213  107  108 2    
   214  107  109 am   BACKBONE|DICT|INTERRES
   215  109  110 1    
   216  109  230 1    
   217  110  111 1    
   218  110  112 1    
   219  110  231 1    
   220  111  232 1    
   221  111  233 1    
   222  111  234 1    
   223  112  113 2    
   224  112  114 am   BACKBONE|DICT|INTERRES
   225  114  115 1    
   226  114  235 1    
   227  115  116 1    
   228  115  117 1    
   229  115  236 1    
   230  116  237 1    
   231  116  238 1    
   232  116  239 1    
   233  117  118 2    
   234  117  119 am   BACKBONE|DICT|INTERRES
   235  119  120 1    
   236  119  240 1    
   237  120  121 1    
   238  120  124 1    
   239  120  241 1    
   240  121  122 am   BACKBONE|DICT|INTERRES
   241  121  123 2    
   242  122  242 1    
   243  122  243 1    
   244  124  125 1    
   245  124  244 1    
   246  124  245 1    
   247  125  126 1    
   248  126  246 1    
   249  126  247 1    
@<TRIPOS>SUBSTRUCTURE
     1 UNK         1 GROUP             0       ****    0 ROOT    
