@<TRIPOS>MOLECULE
3R540
247   249    1
SMALL
USER_CHARGES


@<TRIPOS>ATOM
      1 CA         -2.1991  -12.4680  -50.2917 C.3       0 UNK        -0.1800 
      2 C          -0.7529  -12.7826  -49.9384 C.2       0 UNK         0.5000 
      3 O          -0.0398  -11.9045  -49.4512 O.2       0 UNK        -0.5000 
      4 N          -0.3153  -14.0210  -50.1931 N.am      1 UNK        -0.5000 
      5 CA          1.0336  -14.5005  -49.8699 C.3       1 UNK         0.1400 
      6 C6          1.4042  -15.7782  -50.6610 C.3       23 UNK        -0.0398 
      7 S7          1.4160  -15.5567  -52.4690 S.3       23 UNK        -0.2404 
      8 C8          2.7249  -16.7320  -52.9516 C.3       23 UNK        -0.0205 
      9 C9          2.3912  -18.1559  -52.5275 C.ar      23 UNK        -0.0193 
     10 C10         1.4958  -18.9190  -53.2817 C.ar      23 UNK        -0.1150 
     11 C11         1.1489  -20.2105  -52.8762 C.ar      23 UNK        -0.0193 
     12 C12         1.7163  -20.7419  -51.7140 C.ar      23 UNK        -0.1150 
     13 C13         2.6225  -19.9943  -50.9581 C.ar      23 UNK        -0.0193 
     14 C14         2.9612  -18.7039  -51.3728 C.ar      23 UNK        -0.1150 
     15 C15         3.2322  -20.5871  -49.6982 C.3       23 UNK        -0.0205 
     16 S16         2.2643  -20.1694  -48.2119 S.3       23 UNK        -0.2404 
     17 C17         2.9176  -21.4163  -47.0385 C.3       23 UNK        -0.0398 
     18 CA          2.0425  -22.6741  -46.7246 C.3       11 UNK         0.1400 
     19 N           1.4512  -22.6029  -45.3823 N.am      11 UNK        -0.5000 
     20 C           1.1795  -23.6727  -44.6204 C.2       10 UNK         0.5000 
     21 O           1.3777  -24.8346  -44.9775 O.2       10 UNK        -0.5000 
     22 CA          0.5834  -23.4054  -43.2271 C.3       10 UNK         0.1400 
     23 CB          1.6721  -22.9697  -42.2341 C.3       10 UNK        -0.1800 
     24 N          -0.4812  -22.4050  -43.2611 N.am      10 UNK        -0.5000 
     25 C          -1.7064  -22.6248  -43.7584 C.2       9 UNK         0.5000 
     26 O          -2.0764  -23.7064  -44.2153 O.2       9 UNK        -0.5000 
     27 CA         -2.6817  -21.4337  -43.7595 C.3       9 UNK         0.1400 
     28 CB         -3.4733  -21.3848  -42.4447 C.3       9 UNK        -0.1800 
     29 N          -2.0151  -20.1494  -43.9719 N.am      9 UNK        -0.5000 
     30 C          -1.3994  -19.8000  -45.1092 C.2       8 UNK         0.5000 
     31 O          -1.3548  -20.5118  -46.1125 O.2       8 UNK        -0.5000 
     32 CA         -0.6765  -18.4463  -45.1151 C.3       8 UNK         0.1400 
     33 CB         -1.6756  -17.2922  -45.2746 C.3       8 UNK        -0.1800 
     34 N           0.1346  -18.2250  -43.9211 N.am      8 UNK        -0.5000 
     35 C           1.1609  -18.9943  -43.5337 C.2       7 UNK         0.5000 
     36 O           1.5382  -19.9938  -44.1446 O.2       7 UNK        -0.5000 
     37 CA          1.8623  -18.5958  -42.2262 C.3       7 UNK         0.1400 
     38 CB          2.9056  -17.5013  -42.4810 C.3       7 UNK        -0.1800 
     39 N           0.9037  -18.1310  -41.2259 N.am      7 UNK        -0.5000 
     40 C           0.1145  -18.9478  -40.5160 C.2       6 UNK         0.5000 
     41 O           0.1425  -20.1759  -40.6042 O.2       6 UNK        -0.5000 
     42 CA         -0.8965  -18.2747  -39.5707 C.3       6 UNK         0.1400 
     43 CB         -0.2104  -17.8167  -38.2746 C.3       6 UNK        -0.1800 
     44 N          -1.5839  -17.1372  -40.1844 N.am      6 UNK        -0.5000 
     45 C          -2.4093  -17.2301  -41.2358 C.2       5 UNK         0.5000 
     46 O          -2.6595  -18.2834  -41.8210 O.2       5 UNK        -0.5000 
     47 CA         -3.0511  -15.9221  -41.7329 C.3       5 UNK         0.1400 
     48 CB         -4.3011  -15.5946  -40.9021 C.3       5 UNK        -0.1800 
     49 N          -2.1647  -14.7539  -41.7452 N.am      5 UNK        -0.5000 
     50 C          -0.9550  -14.6689  -42.3180 C.2       4 UNK         0.5000 
     51 O          -0.3608  -15.6300  -42.8121 O.2       4 UNK        -0.5000 
     52 CA         -0.3452  -13.2518  -42.3806 C.3       4 UNK         0.1400 
     53 CB         -0.4236  -12.5089  -41.0278 C.3       4 UNK        -0.1800 
     54 N           1.0207  -13.2285  -42.9140 N.am      4 UNK        -0.5000 
     55 C           2.1292  -13.7253  -42.3518 C.2       3 UNK         0.5000 
     56 O           2.1565  -14.2938  -41.2581 O.2       3 UNK        -0.5000 
     57 CA          3.4249  -13.5568  -43.1721 C.3       3 UNK         0.1400 
     58 CB          4.6880  -13.8666  -42.3481 C.3       3 UNK        -0.1800 
     59 N           3.4317  -14.4023  -44.3660 N.am      3 UNK        -0.5000 
     60 C           2.7670  -14.1699  -45.5051 C.2       2 UNK         0.5000 
     61 O           2.0543  -13.1798  -45.6876 O.2       2 UNK        -0.5000 
     62 CA          2.9890  -15.2170  -46.6155 C.3       2 UNK         0.1400 
     63 CB          2.4558  -16.6056  -46.2083 C.3       2 UNK        -0.1800 
     64 N           2.4788  -14.8237  -47.9344 N.am      2 UNK        -0.5000 
     65 C           1.2060  -14.7668  -48.3565 C.2       1 UNK         0.5000 
     66 O           0.2220  -14.9888  -47.6475 O.2       1 UNK        -0.5000 
     67 C           1.0065  -23.0520  -47.8135 C.2       11 UNK         0.5000 
     68 O           1.4109  -23.5100  -48.8830 O.2       11 UNK        -0.5000 
     69 N          -0.2895  -22.8514  -47.5216 N.am      12 UNK        -0.5000 
     70 CA         -1.4362  -22.9255  -48.4347 C.3       12 UNK         0.1400 
     71 CB         -1.6194  -24.3388  -49.0230 C.3       12 UNK        -0.1800 
     72 C          -1.3527  -21.8155  -49.4999 C.2       12 UNK         0.5000 
     73 O          -1.3517  -22.0921  -50.6989 O.2       12 UNK        -0.5000 
     74 N          -1.2300  -20.5778  -49.0044 N.am      13 UNK        -0.5000 
     75 CA         -1.0390  -19.3414  -49.7585 C.3       13 UNK         0.1400 
     76 CB         -0.9965  -18.1721  -48.7684 C.3       13 UNK        -0.1800 
     77 C          -2.1178  -19.0548  -50.8108 C.2       13 UNK         0.5000 
     78 O          -3.2999  -19.3113  -50.5745 O.2       13 UNK        -0.5000 
     79 N          -1.6933  -18.4193  -51.9101 N.am      14 UNK        -0.5000 
     80 CA         -2.5831  -17.7772  -52.8703 C.3       14 UNK         0.1400 
     81 CB         -1.7906  -17.3674  -54.1189 C.3       14 UNK        -0.1800 
     82 C          -3.2639  -16.5553  -52.2297 C.2       14 UNK         0.5000 
     83 O          -2.5945  -15.7790  -51.5403 O.2       14 UNK        -0.5000 
     84 N          -4.5784  -16.4331  -52.4565 N.am      15 UNK        -0.5000 
     85 CA         -5.5158  -15.4010  -51.9910 C.3       15 UNK         0.1400 
     86 CB         -5.1493  -14.0199  -52.5656 C.3       15 UNK        -0.1800 
     87 C          -5.7361  -15.3346  -50.4639 C.2       15 UNK         0.5000 
     88 O          -6.8741  -15.1474  -50.0321 O.2       15 UNK        -0.5000 
     89 N          -4.6678  -15.4855  -49.6738 N.am      16 UNK        -0.5000 
     90 CA         -4.6888  -15.4254  -48.2117 C.3       16 UNK         0.1400 
     91 CB         -3.2871  -15.0562  -47.7026 C.3       16 UNK        -0.1800 
     92 C          -5.1855  -16.7217  -47.5435 C.2       16 UNK         0.5000 
     93 O          -5.5636  -16.6768  -46.3720 O.2       16 UNK        -0.5000 
     94 N          -5.1771  -17.8446  -48.2719 N.am      17 UNK        -0.5000 
     95 CA         -5.6150  -19.1519  -47.7916 C.3       17 UNK         0.1400 
     96 CB         -4.4823  -19.8253  -46.9896 C.3       17 UNK        -0.1800 
     97 C          -6.1342  -20.0011  -48.9657 C.2       17 UNK         0.5000 
     98 O          -6.6281  -19.4499  -49.9535 O.2       17 UNK        -0.5000 
     99 N          -6.0500  -21.3300  -48.8218 N.am      18 UNK        -0.5000 
    100 CA        -6.4803  -22.3336  -49.7915 C.3       18 UNK         0.1400 
    101 CB        -6.5747  -23.6956  -49.0799 C.3       18 UNK        -0.1800 
    102 C         -5.5470  -22.3862  -51.0160 C.2       18 UNK         0.5000 
    103 O         -4.6998  -23.2746  -51.1104 O.2       18 UNK        -0.5000 
    104 N         -5.7395  -21.4416  -51.9443 N.am      19 UNK        -0.5000 
    105 CA        -4.9718  -21.2780  -53.1833 C.3       19 UNK         0.1400 
    106 CB        -5.5341  -20.0692  -53.9467 C.3       19 UNK        -0.1800 
    107 C         -4.9671  -22.5194  -54.0992 C.2       19 UNK         0.5000 
    108 O         -4.0023  -22.7333  -54.8318 O.2       19 UNK        -0.5000 
    109 N         -6.0322  -23.3286  -54.0268 N.am      20 UNK        -0.5000 
    110 CA        -6.1716  -24.5989  -54.7400 C.3       20 UNK         0.1400 
    111 CB        -7.6443  -25.0336  -54.6837 C.3       20 UNK        -0.1800 
    112 C         -5.2601  -25.7199  -54.1964 C.2       20 UNK         0.5000 
    113 O         -5.0318  -26.6996  -54.9066 O.2       20 UNK        -0.5000 
    114 N         -4.7612  -25.5694  -52.9614 N.am      21 UNK        -0.5000 
    115 CA        -3.9124  -26.5396  -52.2680 C.3       21 UNK         0.1400 
    116 CB        -4.4315  -26.7055  -50.8280 C.3       21 UNK        -0.1800 
    117 C         -2.4192  -26.1503  -52.3012 C.2       21 UNK         0.5000 
    118 O         -1.6345  -26.7346  -51.5527 O.2       21 UNK        -0.5000 
    119 N         -2.0492  -25.1853  -53.1569 N.am      22 UNK        -0.5000 
    120 CA        -0.6725  -24.7169  -53.3889 C.3       22 UNK         0.1400 
    121 C          0.3099  -25.8620  -53.7760 C.2       22 UNK         0.5000 
    122 N          1.4786  -25.9307  -53.1526 N.am      22 UNK        -0.7600 
    123 O          0.0310  -26.6661  -54.6632 O.2       22 UNK        -0.5000 
    124 C124       -0.6517  -23.5924  -54.4578 C.3       23 UNK        -0.0398 
    125 S125        0.8357  -22.5398  -54.3475 S.3       23 UNK        -0.2404 
    126 C126        0.1228  -21.0155  -53.6566 C.3       23 UNK        -0.0205 
    127 H127       -2.6566  -11.8592  -49.5118 H         1 UNK         0.0600 
    128 H128       -2.7889  -13.3769  -50.3937 H         1 UNK         0.0600 
    129 H129       -2.2476  -11.9174  -51.2309 H         1 UNK         0.0600 
    130 H130       -0.9475  -14.6992  -50.6027 H         1 UNK         0.3000 
    131 H131        1.7423  -13.7174  -50.1490 H         1 UNK         0.0600 
    132 H132        2.3971  -16.1165  -50.3627 H         1 UNK         0.0800 
    133 H133        0.7267  -16.5976  -50.4292 H         1 UNK         0.0800 
    134 H134        2.8537  -16.6938  -54.0342 H         1 UNK         0.0800 
    135 H135        3.6759  -16.4149  -52.5208 H         1 UNK         0.0800 
    136 H136        1.0558  -18.4955  -54.1734 H         1 UNK         0.1150 
    137 H137        1.4358  -21.7347  -51.3883 H         1 UNK         0.1150 
    138 H138        3.6592  -18.1233  -50.7864 H         1 UNK         0.1150 
    139 H139        3.2928  -21.6715  -49.8030 H         1 UNK         0.0800 
    140 H140        4.2565  -20.2328  -49.5733 H         1 UNK         0.0800 
    141 H141        3.8810  -21.7550  -47.4220 H         1 UNK         0.0800 
    142 H142        3.1727  -20.8907  -46.1174 H         1 UNK         0.0800 
    143 H143        2.7405  -23.5144  -46.7052 H         1 UNK         0.0600 
    144 H144        1.3034  -21.6717  -44.9992 H         1 UNK         0.3000 
    145 H145        0.1578  -24.3427  -42.8620 H         1 UNK         0.0600 
    146 H146        1.2605  -22.8326  -41.2340 H         1 UNK         0.0600 
    147 H147        2.1440  -22.0332  -42.5309 H         1 UNK         0.0600 
    148 H148        2.4573  -23.7232  -42.1624 H         1 UNK         0.0600 
    149 H149       -0.2558  -21.4847  -42.9096 H         1 UNK         0.3000 
    150 H150       -3.3880  -21.5862  -44.5778 H         1 UNK         0.0600 
    151 H151       -3.9910  -22.3274  -42.2626 H         1 UNK         0.0600 
    152 H152       -4.2280  -20.5985  -42.4694 H         1 UNK         0.0600 
    153 H153       -2.8209  -21.1951  -41.5910 H         1 UNK         0.0600 
    154 H154       -2.0444  -19.4888  -43.1993 H         1 UNK         0.3000 
    155 H155       -0.0007  -18.4462  -45.9698 H         1 UNK         0.0600 
    156 H156       -2.3643  -17.4615  -46.0996 H         1 UNK         0.0600 
    157 H157       -1.1624  -16.3489  -45.4636 H         1 UNK         0.0600 
    158 H158       -2.2841  -17.1717  -44.3820 H         1 UNK         0.0600 
    159 H159       -0.0823  -17.3907  -43.3805 H         1 UNK         0.3000 
    160 H160        2.3810  -19.4746  -41.8371 H         1 UNK         0.0600 
    161 H161        2.4462  -16.6154  -42.9178 H         1 UNK         0.0600 
    162 H162        3.6779  -17.8504  -43.1671 H         1 UNK         0.0600 
    163 H163        3.4005  -17.2017  -41.5570 H         1 UNK         0.0600 
    164 H164        0.7803  -17.1311  -41.1407 H         1 UNK         0.3000 
    165 H165       -1.6511  -19.0201  -39.3105 H         1 UNK         0.0600 
    166 H166       -0.9358  -17.4227  -37.5626 H         1 UNK         0.0600 
    167 H167        0.3011  -18.6489  -37.7890 H         1 UNK         0.0600 
    168 H168        0.5317  -17.0398  -38.4630 H         1 UNK         0.0600 
    169 H169       -1.4205  -16.2274  -39.7793 H         1 UNK         0.3000 
    170 H170       -3.3775  -16.0858  -42.7601 H         1 UNK         0.0600 
    171 H171       -4.9930  -16.4380  -40.8872 H         1 UNK         0.0600 
    172 H172       -4.0476  -15.3597  -39.8676 H         1 UNK         0.0600 
    173 H173       -4.8405  -14.7433  -41.3177 H         1 UNK         0.0600 
    174 H174       -2.5600  -13.9091  -41.3593 H         1 UNK         0.3000 
    175 H175       -0.9471  -12.6951  -43.1000 H         1 UNK         0.0600 
    176 H176        0.0309  -13.0835  -40.2201 H         1 UNK         0.0600 
    177 H177        0.0842  -11.5457  -41.0781 H         1 UNK         0.0600 
    178 H178       -1.4562  -12.3066  -40.7425 H         1 UNK         0.0600 
    179 H179        1.1123  -12.8825  -43.8635 H         1 UNK         0.3000 
    180 H180        3.4825  -12.5110  -43.4818 H         1 UNK         0.0600 
    181 H181        4.7318  -13.2457  -41.4524 H         1 UNK         0.0600 
    182 H182        5.5925  -13.6678  -42.9232 H         1 UNK         0.0600 
    183 H183        4.7170  -14.9087  -42.0272 H         1 UNK         0.0600 
    184 H184        3.9890  -15.2408  -44.2988 H         1 UNK         0.3000 
    185 H185        4.0686  -15.3063  -46.7458 H         1 UNK         0.0600 
    186 H186        3.0410  -17.0321  -45.3951 H         1 UNK         0.0600 
    187 H187        1.4218  -16.5476  -45.8704 H         1 UNK         0.0600 
    188 H188        2.5002  -17.3115  -47.0375 H         1 UNK         0.0600 
    189 H189        3.2008  -14.5796  -48.5972 H         1 UNK         0.3000 
    190 H190       -0.4910  -22.4122  -46.6315 H         1 UNK         0.3000 
    191 H191       -2.3203  -22.7093  -47.8327 H         1 UNK         0.0600 
    192 H192       -2.5366  -24.3890  -49.6096 H         1 UNK         0.0600 
    193 H193       -1.6915  -25.0901  -48.2370 H         1 UNK         0.0600 
    194 H194       -0.8015  -24.6205  -49.6862 H         1 UNK         0.0600 
    195 H195       -1.2334  -20.4825  -47.9927 H         1 UNK         0.3000 
    196 H196       -0.0750  -19.4006  -50.2590 H         1 UNK         0.0600 
    197 H197       -1.8387  -18.2231  -48.0820 H         1 UNK         0.0600 
    198 H198       -0.0720  -18.1739  -48.1938 H         1 UNK         0.0600 
    199 H199       -1.0615  -17.2076  -49.2713 H         1 UNK         0.0600 
    200 H200       -0.7107  -18.2097  -52.0077 H         1 UNK         0.3000 
    201 H201       -3.3395  -18.5024  -53.1681 H         1 UNK         0.0600 
    202 H202       -2.4376  -16.8761  -54.8467 H         1 UNK         0.0600 
    203 H203       -1.3532  -18.2346  -54.6117 H         1 UNK         0.0600 
    204 H204       -0.9859  -16.6732  -53.8768 H         1 UNK         0.0600 
    205 H205       -5.0153  -17.1533  -53.0130 H         1 UNK         0.3000 
    206 H206       -6.4810  -15.6775  -52.4186 H         1 UNK         0.0600 
    207 H207       -5.1576  -14.0354  -53.6554 H         1 UNK         0.0600 
    208 H208       -5.8647  -13.2607  -52.2469 H         1 UNK         0.0600 
    209 H209       -4.1614  -13.6909  -52.2475 H         1 UNK         0.0600 
    210 H210       -3.7678  -15.6210  -50.1268 H         1 UNK         0.3000 
    211 H211       -5.3713  -14.6290  -47.9073 H         1 UNK         0.0600 
    212 H212       -2.5320  -15.7618  -48.0464 H         1 UNK         0.0600 
    213 H213       -3.2533  -15.0440  -46.6125 H         1 UNK         0.0600 
    214 H214       -2.9930  -14.0631  -48.0380 H         1 UNK         0.0600 
    215 H215       -4.8988  -17.8139  -49.2444 H         1 UNK         0.3000 
    216 H216       -6.4696  -19.0120  -47.1266 H         1 UNK         0.0600 
    217 H217       -4.1399  -19.1819  -46.1799 H         1 UNK         0.0600 
    218 H218       -3.6261  -20.0473  -47.6259 H         1 UNK         0.0600 
    219 H219       -4.8088  -20.7565  -46.5268 H         1 UNK         0.0600 
    220 H220       -5.6136  -21.6885  -47.9860 H         1 UNK         0.3000 
    221 H221       -7.4807  -22.0721  -50.1430 H         1 UNK         0.0600 
    222 H222       -6.8896  -24.4774  -49.7725 H         1 UNK         0.0600 
    223 H223       -5.6160  -23.9995  -48.6572 H         1 UNK         0.0600 
    224 H224       -7.3040  -23.6679  -48.2701 H         1 UNK         0.0600 
    225 H225       -6.3966  -20.7039  -51.7212 H         1 UNK         0.3000 
    226 H226       -3.9381  -21.0680  -52.9002 H         1 UNK         0.0600 
    227 H227       -5.5794  -19.1853  -53.3118 H         1 UNK         0.0600 
    228 H228       -4.9115  -19.8273  -54.8092 H         1 UNK         0.0600 
    229 H229       -6.5434  -20.2615  -54.3135 H         1 UNK         0.0600 
    230 H230       -6.7831  -23.0733  -53.4026 H         1 UNK         0.3000 
    231 H231       -5.9024  -24.4363  -55.7858 H         1 UNK         0.0600 
    232 H232       -7.7999  -25.9622  -55.2346 H         1 UNK         0.0600 
    233 H233       -8.2956  -24.2812  -55.1289 H         1 UNK         0.0600 
    234 H234       -7.9752  -25.2014  -53.6579 H         1 UNK         0.0600 
    235 H235       -4.9400  -24.7092  -52.4512 H         1 UNK         0.3000 
    236 H236       -3.9874  -27.5142  -52.7543 H         1 UNK         0.0600 
    237 H237       -5.4778  -27.0108  -50.8205 H         1 UNK         0.0600 
    238 H238       -3.8693  -27.4698  -50.2903 H         1 UNK         0.0600 
    239 H239       -4.3515  -25.7797  -50.2596 H         1 UNK         0.0600 
    240 H240       -2.7664  -24.7632  -53.7285 H         1 UNK         0.3000 
    241 H241       -0.3466  -24.2897  -52.4380 H         1 UNK         0.0600 
    242 H242        1.7281  -25.2713  -52.4319 H         1 UNK         0.3800 
    243 H243        2.1273  -26.6603  -53.4033 H         1 UNK         0.3800 
    244 H244       -0.7270  -24.0025  -55.4666 H         1 UNK         0.0800 
    245 H245       -1.5236  -22.9512  -54.3402 H         1 UNK         0.0800 
    246 H246       -0.7048  -21.2542  -52.9903 H         1 UNK         0.0800 
    247 H247       -0.3021  -20.4282  -54.4714 H         1 UNK         0.0800 
@<TRIPOS>BOND
     1    1    2 1    
     2    1  127 1    
     3    1  128 1    
     4    1  129 1    
     5    2    3 2    
     6    2    4 am   BACKBONE|DICT|INTERRES
     7    4    5 1    
     8    4  130 1    
     9    5    6 1    
    10    5   65 1    
    11    5  131 1    
    12    6    7 1    
    13    6  132 1    
    14    6  133 1    
    15    7    8 1    
    16    8    9 1    
    17    8  134 1    
    18    8  135 1    
    19    9   10 ar   
    20    9   14 ar   
    21   10   11 ar   
    22   10  136 1    
    23   11   12 ar   
    24   11  126 1    
    25   12   13 ar   
    26   12  137 1    
    27   13   14 ar   
    28   13   15 1    
    29   14  138 1    
    30   15   16 1    
    31   15  139 1    
    32   15  140 1    
    33   16   17 1    
    34   17   18 1    
    35   17  141 1    
    36   17  142 1    
    37   18   19 1    
    38   18   67 1    
    39   18  143 1    
    40   19   20 am   BACKBONE|DICT|INTERRES
    41   19  144 1    
    42   20   21 2    
    43   20   22 1    
    44   22   23 1    
    45   22   24 1    
    46   22  145 1    
    47   23  146 1    
    48   23  147 1    
    49   23  148 1    
    50   24   25 am   BACKBONE|DICT|INTERRES
    51   24  149 1    
    52   25   26 2    
    53   25   27 1    
    54   27   28 1    
    55   27   29 1    
    56   27  150 1    
    57   28  151 1    
    58   28  152 1    
    59   28  153 1    
    60   29   30 am   BACKBONE|DICT|INTERRES
    61   29  154 1    
    62   30   31 2    
    63   30   32 1    
    64   32   33 1    
    65   32   34 1    
    66   32  155 1    
    67   33  156 1    
    68   33  157 1    
    69   33  158 1    
    70   34   35 am   BACKBONE|DICT|INTERRES
    71   34  159 1    
    72   35   36 2    
    73   35   37 1    
    74   37   38 1    
    75   37   39 1    
    76   37  160 1    
    77   38  161 1    
    78   38  162 1    
    79   38  163 1    
    80   39   40 am   BACKBONE|DICT|INTERRES
    81   39  164 1    
    82   40   41 2    
    83   40   42 1    
    84   42   43 1    
    85   42   44 1    
    86   42  165 1    
    87   43  166 1    
    88   43  167 1    
    89   43  168 1    
    90   44   45 am   BACKBONE|DICT|INTERRES
    91   44  169 1    
    92   45   46 2    
    93   45   47 1    
    94   47   48 1    
    95   47   49 1    
    96   47  170 1    
    97   48  171 1    
    98   48  172 1    
    99   48  173 1    
   100   49   50 am   BACKBONE|DICT|INTERRES
   101   49  174 1    
   102   50   51 2    
   103   50   52 1    
   104   52   53 1    
   105   52   54 1    
   106   52  175 1    
   107   53  176 1    
   108   53  177 1    
   109   53  178 1    
   110   54   55 am   BACKBONE|DICT|INTERRES
   111   54  179 1    
   112   55   56 2    
   113   55   57 1    
   114   57   58 1    
   115   57   59 1    
   116   57  180 1    
   117   58  181 1    
   118   58  182 1    
   119   58  183 1    
   120   59   60 am   BACKBONE|DICT|INTERRES
   121   59  184 1    
   122   60   61 2    
   123   60   62 1    
   124   62   63 1    
   125   62   64 1    
   126   62  185 1    
   127   63  186 1    
   128   63  187 1    
   129   63  188 1    
   130   64   65 am   BACKBONE|DICT|INTERRES
   131   64  189 1    
   132   65   66 2    
   133   67   68 2    
   134   67   69 am   BACKBONE|DICT|INTERRES
   135   69   70 1    
   136   69  190 1    
   137   70   71 1    
   138   70   72 1    
   139   70  191 1    
   140   71  192 1    
   141   71  193 1    
   142   71  194 1    
   143   72   73 2    
   144   72   74 am   BACKBONE|DICT|INTERRES
   145   74   75 1    
   146   74  195 1    
   147   75   76 1    
   148   75   77 1    
   149   75  196 1    
   150   76  197 1    
   151   76  198 1    
   152   76  199 1    
   153   77   78 2    
   154   77   79 am   BACKBONE|DICT|INTERRES
   155   79   80 1    
   156   79  200 1    
   157   80   81 1    
   158   80   82 1    
   159   80  201 1    
   160   81  202 1    
   161   81  203 1    
   162   81  204 1    
   163   82   83 2    
   164   82   84 am   BACKBONE|DICT|INTERRES
   165   84   85 1    
   166   84  205 1    
   167   85   86 1    
   168   85   87 1    
   169   85  206 1    
   170   86  207 1    
   171   86  208 1    
   172   86  209 1    
   173   87   88 2    
   174   87   89 am   BACKBONE|DICT|INTERRES
   175   89   90 1    
   176   89  210 1    
   177   90   91 1    
   178   90   92 1    
   179   90  211 1    
   180   91  212 1    
   181   91  213 1    
   182   91  214 1    
   183   92   93 2    
   184   92   94 am   BACKBONE|DICT|INTERRES
   185   94   95 1    
   186   94  215 1    
   187   95   96 1    
   188   95   97 1    
   189   95  216 1    
   190   96  217 1    
   191   96  218 1    
   192   96  219 1    
   193   97   98 2    
   194   97   99 am   BACKBONE|DICT|INTERRES
   195   99  100 1    
   196   99  220 1    
   197  100  101 1    
   198  100  102 1    
   199  100  221 1    
   200  101  222 1    
   201  101  223 1    
   202  101  224 1    
   203  102  103 2    
   204  102  104 am   BACKBONE|DICT|INTERRES
   205  104  105 1    
   206  104  225 1    
   207  105  106 1    
   208  105  107 1    
   209  105  226 1    
   210  106  227 1    
   211  106  228 1    
   212  106  229 1    
   213  107  108 2    
   214  107  109 am   BACKBONE|DICT|INTERRES
   215  109  110 1    
   216  109  230 1    
   217  110  111 1    
   218  110  112 1    
   219  110  231 1    
   220  111  232 1    
   221  111  233 1    
   222  111  234 1    
   223  112  113 2    
   224  112  114 am   BACKBONE|DICT|INTERRES
   225  114  115 1    
   226  114  235 1    
   227  115  116 1    
   228  115  117 1    
   229  115  236 1    
   230  116  237 1    
   231  116  238 1    
   232  116  239 1    
   233  117  118 2    
   234  117  119 am   BACKBONE|DICT|INTERRES
   235  119  120 1    
   236  119  240 1    
   237  120  121 1    
   238  120  124 1    
   239  120  241 1    
   240  121  122 am   BACKBONE|DICT|INTERRES
   241  121  123 2    
   242  122  242 1    
   243  122  243 1    
   244  124  125 1    
   245  124  244 1    
   246  124  245 1    
   247  125  126 1    
   248  126  246 1    
   249  126  247 1    
@<TRIPOS>SUBSTRUCTURE
     1 UNK         1 GROUP             0       ****    0 ROOT    
