@<TRIPOS>MOLECULE
3R540
247   249    1
SMALL
USER_CHARGES


@<TRIPOS>ATOM
      1 CA          4.6354  -15.0539  -47.7638 C.3       0 UNK        -0.1800 
      2 C           4.4857  -14.2601  -46.4745 C.2       0 UNK         0.5000 
      3 O           5.3857  -14.2745  -45.6347 O.2       0 UNK        -0.5000 
      4 N           3.3526  -13.5748  -46.3169 N.am      1 UNK        -0.5000 
      5 CA          2.9875  -12.7869  -45.1403 C.3       1 UNK         0.1400 
      6 C6          2.3673  -13.6532  -44.0089 C.3       23 UNK        -0.0398 
      7 S7          1.0284  -14.7640  -44.5657 S.3       23 UNK        -0.2404 
      8 C8         -0.3324  -14.2939  -43.4586 C.3       23 UNK        -0.0205 
      9 C9         -1.5381  -15.2035  -43.6461 C.ar      23 UNK        -0.0193 
     10 C10        -2.7442  -14.6923  -44.1343 C.ar      23 UNK        -0.1150 
     11 C11        -3.8653  -15.5160  -44.2815 C.ar      23 UNK        -0.0193 
     12 C12        -3.7667  -16.8651  -43.9164 C.ar      23 UNK        -0.1150 
     13 C13        -2.5593  -17.3978  -43.4590 C.ar      23 UNK        -0.0193 
     14 C14        -1.4512  -16.5591  -43.3160 C.ar      23 UNK        -0.1150 
     15 C15        -2.4545  -18.8768  -43.1186 C.3       23 UNK        -0.0205 
     16 S16        -2.7151  -19.9316  -44.5817 S.3       23 UNK        -0.2404 
     17 C17        -2.1762  -21.5348  -43.9074 C.3       23 UNK        -0.0398 
     18 CA         -1.9945  -22.6083  -45.0067 C.3       11 UNK         0.1400 
     19 N          -0.7944  -22.3946  -45.8378 N.am      11 UNK        -0.5000 
     20 C          -0.4663  -23.1464  -46.9024 C.2       10 UNK         0.5000 
     21 O          -1.1640  -24.0809  -47.3009 O.2       10 UNK        -0.5000 
     22 CA          0.8442  -22.8528  -47.6530 C.3       10 UNK         0.1400 
     23 CB          0.5721  -22.0592  -48.9362 C.3       10 UNK        -0.1800 
     24 N           1.8727  -22.1669  -46.8750 N.am      10 UNK        -0.5000 
     25 C           2.5356  -22.7073  -45.8428 C.2       9 UNK         0.5000 
     26 O           2.2330  -23.7842  -45.3274 O.2       9 UNK        -0.5000 
     27 CA          3.7468  -21.9244  -45.3100 C.3       9 UNK         0.1400 
     28 CB          4.9727  -22.1635  -46.2051 C.3       9 UNK        -0.1800 
     29 N           3.4633  -20.4924  -45.2643 N.am      9 UNK        -0.5000 
     30 C           3.2578  -19.7939  -44.1405 C.2       8 UNK         0.5000 
     31 O           3.4131  -20.2497  -43.0067 O.2       8 UNK        -0.5000 
     32 CA          2.7748  -18.3383  -44.3068 C.3       8 UNK         0.1400 
     33 CB          3.9853  -17.3965  -44.3725 C.3       8 UNK        -0.1800 
     34 N           1.9286  -18.1030  -45.4813 N.am      8 UNK        -0.5000 
     35 C           0.8296  -18.7950  -45.8150 C.2       7 UNK         0.5000 
     36 O           0.3997  -19.7502  -45.1702 O.2       7 UNK        -0.5000 
     37 CA          0.1502  -18.4177  -47.1442 C.3       7 UNK         0.1400 
     38 CB         -0.8617  -17.2850  -46.9375 C.3       7 UNK        -0.1800 
     39 N           1.0675  -18.0311  -48.2217 N.am      7 UNK        -0.5000 
     40 C           2.1620  -18.6774  -48.6452 C.2       6 UNK         0.5000 
     41 O           2.6154  -19.6819  -48.0919 O.2       6 UNK        -0.5000 
     42 CA          2.9066  -18.1067  -49.8731 C.3       6 UNK         0.1400 
     43 CB          2.7287  -19.0168  -51.1032 C.3       6 UNK        -0.1800 
     44 N           2.6281  -16.7019  -50.2187 N.am      6 UNK        -0.5000 
     45 C           1.4817  -16.1348  -50.6213 C.2       5 UNK         0.5000 
     46 O           0.4102  -16.7355  -50.7367 O.2       5 UNK        -0.5000 
     47 CA          1.5487  -14.6312  -50.9486 C.3       5 UNK         0.1400 
     48 CB          1.4908  -14.4134  -52.4678 C.3       5 UNK        -0.1800 
     49 N           0.4552  -13.8920  -50.3197 N.am      5 UNK        -0.5000 
     50 C           0.3166  -13.7031  -49.0015 C.2       4 UNK         0.5000 
     51 O           1.1549  -14.0547  -48.1702 O.2       4 UNK        -0.5000 
     52 CA         -0.9690  -12.9927  -48.5533 C.3       4 UNK         0.1400 
     53 CB         -1.6336  -13.6753  -47.3460 C.3       4 UNK        -0.1800 
     54 N          -0.6812  -11.5998  -48.2319 N.am      4 UNK        -0.5000 
     55 C          -1.5450  -10.5928  -48.4246 C.2       3 UNK         0.5000 
     56 O          -2.6543  -10.7473  -48.9400 O.2       3 UNK        -0.5000 
     57 CA         -1.1058   -9.1768  -47.9871 C.3       3 UNK         0.1400 
     58 CB         -2.3000   -8.2545  -47.6613 C.3       3 UNK        -0.1800 
     59 N          -0.1326   -9.1631  -46.8910 N.am      3 UNK        -0.5000 
     60 C          -0.2893   -9.6442  -45.6493 C.2       2 UNK         0.5000 
     61 O          -1.3172  -10.1767  -45.2265 O.2       2 UNK        -0.5000 
     62 CA          0.9473   -9.5271  -44.7365 C.3       2 UNK         0.1400 
     63 CB          0.5625   -9.0118  -43.3395 C.3       2 UNK        -0.1800 
     64 N           1.6876  -10.7830  -44.5882 N.am      2 UNK        -0.5000 
     65 C           2.1231  -11.5852  -45.5717 C.2       1 UNK         0.5000 
     66 O           1.9139  -11.3762  -46.7708 O.2       1 UNK        -0.5000 
     67 C          -2.0593  -24.0202  -44.3815 C.2       11 UNK         0.5000 
     68 O          -3.1589  -24.5445  -44.2007 O.2       11 UNK        -0.5000 
     69 N          -0.8962  -24.6395  -44.1291 N.am      12 UNK        -0.5000 
     70 CA         -0.7688  -26.0233  -43.6612 C.3       12 UNK         0.1400 
     71 CB          0.6931  -26.2780  -43.2642 C.3       12 UNK        -0.1800 
     72 C          -1.2391  -27.0765  -44.6892 C.2       12 UNK         0.5000 
     73 O          -1.5194  -28.2114  -44.3024 O.2       12 UNK        -0.5000 
     74 N          -1.3272  -26.6839  -45.9664 N.am      13 UNK        -0.5000 
     75 CA         -1.7829  -27.4966  -47.0914 C.3       13 UNK         0.1400 
     76 CB         -0.6374  -27.5872  -48.1160 C.3       13 UNK        -0.1800 
     77 C          -3.0712  -26.9137  -47.7083 C.2       13 UNK         0.5000 
     78 O          -3.3061  -27.0952  -48.9036 O.2       13 UNK        -0.5000 
     79 N          -3.8743  -26.2028  -46.8986 N.am      14 UNK        -0.5000 
     80 CA         -5.1353  -25.5426  -47.2662 C.3       14 UNK         0.1400 
     81 CB         -6.2174  -26.5855  -47.6165 C.3       14 UNK        -0.1800 
     82 C          -4.9377  -24.4854  -48.3723 C.2       14 UNK         0.5000 
     83 O          -5.6117  -24.5187  -49.4044 O.2       14 UNK        -0.5000 
     84 N          -3.9559  -23.6011  -48.1463 N.am      15 UNK        -0.5000 
     85 CA         -3.4465  -22.5902  -49.0786 C.3       15 UNK         0.1400 
     86 CB         -4.5060  -21.5068  -49.3643 C.3       15 UNK        -0.1800 
     87 C          -2.8629  -23.2393  -50.3493 C.2       15 UNK         0.5000 
     88 O          -3.0961  -22.7522  -51.4537 O.2       15 UNK        -0.5000 
     89 N          -2.1362  -24.3525  -50.1633 N.am      16 UNK        -0.5000 
     90 CA         -1.5741  -25.2249  -51.2022 C.3       16 UNK         0.1400 
     91 CB         -0.3858  -24.5318  -51.9015 C.3       16 UNK        -0.1800 
     92 C          -2.6544  -25.7255  -52.1851 C.2       16 UNK         0.5000 
     93 O          -2.4891  -25.6126  -53.3994 O.2       16 UNK        -0.5000 
     94 N          -3.7696  -26.2152  -51.6237 N.am      17 UNK        -0.5000 
     95 CA         -5.0187  -26.5754  -52.3041 C.3       17 UNK         0.1400 
     96 CB         -4.8250  -27.8359  -53.1723 C.3       17 UNK        -0.1800 
     97 C          -5.6270  -25.3846  -53.0804 C.2       17 UNK         0.5000 
     98 O          -6.0213  -25.5293  -54.2392 O.2       17 UNK        -0.5000 
     99 N          -5.6681  -24.2224  -52.4133 N.am      18 UNK        -0.5000 
    100 CA        -6.1385  -22.9196  -52.8987 C.3       18 UNK         0.1400 
    101 CB        -7.6578  -22.9556  -53.1653 C.3       18 UNK        -0.1800 
    102 C         -5.3329  -22.3369  -54.0844 C.2       18 UNK         0.5000 
    103 O         -5.8720  -21.5328  -54.8475 O.2       18 UNK        -0.5000 
    104 N         -4.0579  -22.7268  -54.2170 N.am      19 UNK        -0.5000 
    105 CA        -3.1174  -22.1596  -55.1857 C.3       19 UNK         0.1400 
    106 CB        -2.0705  -23.2167  -55.5650 C.3       19 UNK        -0.1800 
    107 C         -2.4275  -20.8919  -54.6469 C.2       19 UNK         0.5000 
    108 O         -2.1053  -19.9997  -55.4332 O.2       19 UNK        -0.5000 
    109 N         -2.2130  -20.8308  -53.3266 N.am      20 UNK        -0.5000 
    110 CA        -1.6937  -19.6668  -52.6112 C.3       20 UNK         0.1400 
    111 CB        -0.9589  -20.1506  -51.3497 C.3       20 UNK        -0.1800 
    112 C         -2.8336  -18.7032  -52.2368 C.2       20 UNK         0.5000 
    113 O         -4.0115  -19.0066  -52.4520 O.2       20 UNK        -0.5000 
    114 N         -2.4636  -17.5560  -51.6562 N.am      21 UNK        -0.5000 
    115 CA        -3.4068  -16.5985  -51.0834 C.3       21 UNK         0.1400 
    116 CB        -2.6556  -15.3019  -50.7651 C.3       21 UNK        -0.1800 
    117 C         -4.0830  -17.1480  -49.8122 C.2       21 UNK         0.5000 
    118 O         -3.5437  -18.0435  -49.1587 O.2       21 UNK        -0.5000 
    119 N         -5.2409  -16.5688  -49.4736 N.am      22 UNK        -0.5000 
    120 CA        -6.0620  -16.9187  -48.3008 C.3       22 UNK         0.1400 
    121 C         -6.8189  -18.2808  -48.4149 C.2       22 UNK         0.5000 
    122 N         -6.8757  -18.9122  -49.5817 N.am      22 UNK        -0.7600 
    123 O         -7.3987  -18.7606  -47.4450 O.2       22 UNK        -0.5000 
    124 C124       -5.2829  -16.7589  -46.9614 C.3       23 UNK        -0.0398 
    125 S125       -6.3130  -16.0891  -45.6101 S.3       23 UNK        -0.2404 
    126 C126       -5.1617  -14.9075  -44.8212 C.3       23 UNK        -0.0205 
    127 H127        4.5299  -16.1199  -47.5628 H         1 UNK         0.0600 
    128 H128        5.6175  -14.8808  -48.2036 H         1 UNK         0.0600 
    129 H129        3.8812  -14.7634  -48.4941 H         1 UNK         0.0600 
    130 H130        2.6320  -13.5947  -47.0373 H         1 UNK         0.3000 
    131 H131        3.9002  -12.3371  -44.7437 H         1 UNK         0.0600 
    132 H132        2.0212  -13.0380  -43.1780 H         1 UNK         0.0800 
    133 H133        3.1489  -14.2791  -43.5789 H         1 UNK         0.0800 
    134 H134       -0.5977  -13.2513  -43.6425 H         1 UNK         0.0800 
    135 H135        0.0019  -14.3574  -42.4222 H         1 UNK         0.0800 
    136 H136       -2.8116  -13.6460  -44.3983 H         1 UNK         0.1150 
    137 H137       -4.6202  -17.5210  -44.0063 H         1 UNK         0.1150 
    138 H138       -0.5142  -16.9595  -42.9549 H         1 UNK         0.1150 
    139 H139       -1.4741  -19.0947  -42.6919 H         1 UNK         0.0800 
    140 H140       -3.1917  -19.1269  -42.3545 H         1 UNK         0.0800 
    141 H141       -2.9324  -21.8364  -43.1795 H         1 UNK         0.0800 
    142 H142       -1.2465  -21.4049  -43.3507 H         1 UNK         0.0800 
    143 H143       -2.8543  -22.5404  -45.6757 H         1 UNK         0.0600 
    144 H144       -0.2047  -21.6069  -45.5818 H         1 UNK         0.3000 
    145 H145        1.2562  -23.8201  -47.9481 H         1 UNK         0.0600 
    146 H146        0.1329  -21.0866  -48.7248 H         1 UNK         0.0600 
    147 H147        1.4881  -21.8981  -49.5047 H         1 UNK         0.0600 
    148 H148       -0.1158  -22.5918  -49.5882 H         1 UNK         0.0600 
    149 H149        2.1812  -21.2725  -47.2460 H         1 UNK         0.3000 
    150 H150        3.9762  -22.3081  -44.3138 H         1 UNK         0.0600 
    151 H151        5.2071  -23.2268  -46.2714 H         1 UNK         0.0600 
    152 H152        5.8535  -21.6606  -45.8057 H         1 UNK         0.0600 
    153 H153        4.8103  -21.7974  -47.2199 H         1 UNK         0.0600 
    154 H154        3.2807  -20.0371  -46.1514 H         1 UNK         0.3000 
    155 H155        2.1821  -18.0828  -43.4264 H         1 UNK         0.0600 
    156 H156        4.6168  -17.5059  -43.4899 H         1 UNK         0.0600 
    157 H157        3.6724  -16.3560  -44.4183 H         1 UNK         0.0600 
    158 H158        4.6046  -17.5968  -45.2477 H         1 UNK         0.0600 
    159 H159        2.1977  -17.3388  -46.0826 H         1 UNK         0.3000 
    160 H160       -0.4043  -19.2922  -47.4845 H         1 UNK         0.0600 
    161 H161       -1.3976  -17.0661  -47.8604 H         1 UNK         0.0600 
    162 H162       -0.3743  -16.3682  -46.6073 H         1 UNK         0.0600 
    163 H163       -1.6067  -17.5526  -46.1886 H         1 UNK         0.0600 
    164 H164        0.7642  -17.2533  -48.7946 H         1 UNK         0.3000 
    165 H165        3.9635  -18.1350  -49.6039 H         1 UNK         0.0600 
    166 H166        1.7153  -18.9793  -51.4987 H         1 UNK         0.0600 
    167 H167        3.4062  -18.7244  -51.9053 H         1 UNK         0.0600 
    168 H168        2.9466  -20.0576  -50.8599 H         1 UNK         0.0600 
    169 H169        3.4357  -16.0993  -50.1541 H         1 UNK         0.3000 
    170 H170        2.4910  -14.2226  -50.5780 H         1 UNK         0.0600 
    171 H171        0.5564  -14.7834  -52.8924 H         1 UNK         0.0600 
    172 H172        1.5788  -13.3562  -52.7192 H         1 UNK         0.0600 
    173 H173        2.3075  -14.9350  -52.9685 H         1 UNK         0.0600 
    174 H174       -0.2745  -13.5723  -50.9386 H         1 UNK         0.3000 
    175 H175       -1.6736  -13.0300  -49.3854 H         1 UNK         0.0600 
    176 H176       -0.9765  -13.6793  -46.4767 H         1 UNK         0.0600 
    177 H177       -2.5552  -13.1675  -47.0619 H         1 UNK         0.0600 
    178 H178       -1.8950  -14.7075  -47.5736 H         1 UNK         0.0600 
    179 H179        0.2246  -11.4199  -47.8046 H         1 UNK         0.3000 
    180 H180       -0.5913   -8.7499  -48.8490 H         1 UNK         0.0600 
    181 H181       -2.9093   -8.6535  -46.8498 H         1 UNK         0.0600 
    182 H182       -2.9504   -8.1321  -48.5281 H         1 UNK         0.0600 
    183 H183       -1.9626   -7.2599  -47.3699 H         1 UNK         0.0600 
    184 H184        0.7783   -8.8017  -47.1382 H         1 UNK         0.3000 
    185 H185        1.6317   -8.7995  -45.1773 H         1 UNK         0.0600 
    186 H186        1.4464   -8.8165  -42.7320 H         1 UNK         0.0600 
    187 H187        0.0045   -8.0771  -43.4082 H         1 UNK         0.0600 
    188 H188       -0.0620   -9.7278  -42.8033 H         1 UNK         0.0600 
    189 H189        1.9130  -11.0314  -43.6369 H         1 UNK         0.3000 
    190 H190       -0.0328  -24.1564  -44.3413 H         1 UNK         0.3000 
    191 H191       -1.3906  -26.1365  -42.7708 H         1 UNK         0.0600 
    192 H192        1.3638  -26.1770  -44.1185 H         1 UNK         0.0600 
    193 H193        1.0219  -25.5789  -42.4951 H         1 UNK         0.0600 
    194 H194        0.8209  -27.2846  -42.8637 H         1 UNK         0.0600 
    195 H195       -1.1067  -25.7206  -46.1972 H         1 UNK         0.3000 
    196 H196       -2.0269  -28.5085  -46.7629 H         1 UNK         0.0600 
    197 H197        0.2476  -28.0432  -47.6721 H         1 UNK         0.0600 
    198 H198       -0.3521  -26.6017  -48.4851 H         1 UNK         0.0600 
    199 H199       -0.9170  -28.1986  -48.9749 H         1 UNK         0.0600 
    200 H200       -3.5839  -26.0810  -45.9367 H         1 UNK         0.3000 
    201 H201       -5.4727  -25.0025  -46.3802 H         1 UNK         0.0600 
    202 H202       -7.1809  -26.1038  -47.7866 H         1 UNK         0.0600 
    203 H203       -6.3514  -27.3014  -46.8057 H         1 UNK         0.0600 
    204 H204       -5.9697  -27.1443  -48.5195 H         1 UNK         0.0600 
    205 H205       -3.3956  -23.7351  -47.3164 H         1 UNK         0.3000 
    206 H206       -2.6131  -22.0918  -48.5841 H         1 UNK         0.0600 
    207 H207       -4.8167  -21.0123  -48.4440 H         1 UNK         0.0600 
    208 H208       -5.3967  -21.9160  -49.8382 H         1 UNK         0.0600 
    209 H209       -4.1117  -20.7326  -50.0235 H         1 UNK         0.0600 
    210 H210       -1.9943  -24.6569  -49.2080 H         1 UNK         0.3000 
    211 H211       -1.1898  -26.1126  -50.7000 H         1 UNK         0.0600 
    212 H212        0.4063  -24.2999  -51.1904 H         1 UNK         0.0600 
    213 H213        0.0502  -25.1757  -52.6661 H         1 UNK         0.0600 
    214 H214       -0.6836  -23.6019  -52.3862 H         1 UNK         0.0600 
    215 H215       -3.7796  -26.3108  -50.6112 H         1 UNK         0.3000 
    216 H216       -5.7325  -26.8233  -51.5170 H         1 UNK         0.0600 
    217 H217       -5.7760  -28.1751  -53.5842 H         1 UNK         0.0600 
    218 H218       -4.1526  -27.6528  -54.0109 H         1 UNK         0.0600 
    219 H219       -4.4140  -28.6576  -52.5859 H         1 UNK         0.0600 
    220 H220       -5.3420  -24.2287  -51.4521 H         1 UNK         0.3000 
    221 H221       -5.9740  -22.2240  -52.0761 H         1 UNK         0.0600 
    222 H222       -7.9031  -23.5798  -54.0249 H         1 UNK         0.0600 
    223 H223       -8.1998  -23.3430  -52.3025 H         1 UNK         0.0600 
    224 H224       -8.0453  -21.9562  -53.3661 H         1 UNK         0.0600 
    225 H225       -3.6769  -23.3601  -53.5244 H         1 UNK         0.3000 
    226 H226       -3.6575  -21.8871  -56.0948 H         1 UNK         0.0600 
    227 H227       -2.5431  -24.1233  -55.9433 H         1 UNK         0.0600 
    228 H228       -1.4061  -22.8440  -56.3454 H         1 UNK         0.0600 
    229 H229       -1.4499  -23.4928  -54.7125 H         1 UNK         0.0600 
    230 H230       -2.5729  -21.5806  -52.7397 H         1 UNK         0.3000 
    231 H231       -0.9832  -19.1326  -53.2453 H         1 UNK         0.0600 
    232 H232       -0.4762  -19.3242  -50.8288 H         1 UNK         0.0600 
    233 H233       -0.1858  -20.8786  -51.5957 H         1 UNK         0.0600 
    234 H234       -1.6438  -20.6087  -50.6383 H         1 UNK         0.0600 
    235 H235       -1.4834  -17.3914  -51.4530 H         1 UNK         0.3000 
    236 H236       -4.1768  -16.3848  -51.8277 H         1 UNK         0.0600 
    237 H237       -2.1524  -14.9074  -51.6479 H         1 UNK         0.0600 
    238 H238       -3.3368  -14.5310  -50.4029 H         1 UNK         0.0600 
    239 H239       -1.9056  -15.4721  -49.9933 H         1 UNK         0.0600 
    240 H240       -5.6184  -15.8431  -50.0662 H         1 UNK         0.3000 
    241 H241       -6.8550  -16.1702  -48.3125 H         1 UNK         0.0600 
    242 H242       -7.3816  -19.7803  -49.6462 H         1 UNK         0.3800 
    243 H243       -6.3994  -18.5455  -50.3899 H         1 UNK         0.3800 
    244 H244       -4.8388  -17.7049  -46.6456 H         1 UNK         0.0800 
    245 H245       -4.4412  -16.0788  -47.0999 H         1 UNK         0.0800 
    246 H246       -5.6809  -14.4188  -43.9960 H         1 UNK         0.0800 
    247 H247       -4.9278  -14.1251  -45.5452 H         1 UNK         0.0800 
@<TRIPOS>BOND
     1    1    2 1    
     2    1  127 1    
     3    1  128 1    
     4    1  129 1    
     5    2    3 2    
     6    2    4 am   BACKBONE|DICT|INTERRES
     7    4    5 1    
     8    4  130 1    
     9    5    6 1    
    10    5   65 1    
    11    5  131 1    
    12    6    7 1    
    13    6  132 1    
    14    6  133 1    
    15    7    8 1    
    16    8    9 1    
    17    8  134 1    
    18    8  135 1    
    19    9   10 ar   
    20    9   14 ar   
    21   10   11 ar   
    22   10  136 1    
    23   11   12 ar   
    24   11  126 1    
    25   12   13 ar   
    26   12  137 1    
    27   13   14 ar   
    28   13   15 1    
    29   14  138 1    
    30   15   16 1    
    31   15  139 1    
    32   15  140 1    
    33   16   17 1    
    34   17   18 1    
    35   17  141 1    
    36   17  142 1    
    37   18   19 1    
    38   18   67 1    
    39   18  143 1    
    40   19   20 am   BACKBONE|DICT|INTERRES
    41   19  144 1    
    42   20   21 2    
    43   20   22 1    
    44   22   23 1    
    45   22   24 1    
    46   22  145 1    
    47   23  146 1    
    48   23  147 1    
    49   23  148 1    
    50   24   25 am   BACKBONE|DICT|INTERRES
    51   24  149 1    
    52   25   26 2    
    53   25   27 1    
    54   27   28 1    
    55   27   29 1    
    56   27  150 1    
    57   28  151 1    
    58   28  152 1    
    59   28  153 1    
    60   29   30 am   BACKBONE|DICT|INTERRES
    61   29  154 1    
    62   30   31 2    
    63   30   32 1    
    64   32   33 1    
    65   32   34 1    
    66   32  155 1    
    67   33  156 1    
    68   33  157 1    
    69   33  158 1    
    70   34   35 am   BACKBONE|DICT|INTERRES
    71   34  159 1    
    72   35   36 2    
    73   35   37 1    
    74   37   38 1    
    75   37   39 1    
    76   37  160 1    
    77   38  161 1    
    78   38  162 1    
    79   38  163 1    
    80   39   40 am   BACKBONE|DICT|INTERRES
    81   39  164 1    
    82   40   41 2    
    83   40   42 1    
    84   42   43 1    
    85   42   44 1    
    86   42  165 1    
    87   43  166 1    
    88   43  167 1    
    89   43  168 1    
    90   44   45 am   BACKBONE|DICT|INTERRES
    91   44  169 1    
    92   45   46 2    
    93   45   47 1    
    94   47   48 1    
    95   47   49 1    
    96   47  170 1    
    97   48  171 1    
    98   48  172 1    
    99   48  173 1    
   100   49   50 am   BACKBONE|DICT|INTERRES
   101   49  174 1    
   102   50   51 2    
   103   50   52 1    
   104   52   53 1    
   105   52   54 1    
   106   52  175 1    
   107   53  176 1    
   108   53  177 1    
   109   53  178 1    
   110   54   55 am   BACKBONE|DICT|INTERRES
   111   54  179 1    
   112   55   56 2    
   113   55   57 1    
   114   57   58 1    
   115   57   59 1    
   116   57  180 1    
   117   58  181 1    
   118   58  182 1    
   119   58  183 1    
   120   59   60 am   BACKBONE|DICT|INTERRES
   121   59  184 1    
   122   60   61 2    
   123   60   62 1    
   124   62   63 1    
   125   62   64 1    
   126   62  185 1    
   127   63  186 1    
   128   63  187 1    
   129   63  188 1    
   130   64   65 am   BACKBONE|DICT|INTERRES
   131   64  189 1    
   132   65   66 2    
   133   67   68 2    
   134   67   69 am   BACKBONE|DICT|INTERRES
   135   69   70 1    
   136   69  190 1    
   137   70   71 1    
   138   70   72 1    
   139   70  191 1    
   140   71  192 1    
   141   71  193 1    
   142   71  194 1    
   143   72   73 2    
   144   72   74 am   BACKBONE|DICT|INTERRES
   145   74   75 1    
   146   74  195 1    
   147   75   76 1    
   148   75   77 1    
   149   75  196 1    
   150   76  197 1    
   151   76  198 1    
   152   76  199 1    
   153   77   78 2    
   154   77   79 am   BACKBONE|DICT|INTERRES
   155   79   80 1    
   156   79  200 1    
   157   80   81 1    
   158   80   82 1    
   159   80  201 1    
   160   81  202 1    
   161   81  203 1    
   162   81  204 1    
   163   82   83 2    
   164   82   84 am   BACKBONE|DICT|INTERRES
   165   84   85 1    
   166   84  205 1    
   167   85   86 1    
   168   85   87 1    
   169   85  206 1    
   170   86  207 1    
   171   86  208 1    
   172   86  209 1    
   173   87   88 2    
   174   87   89 am   BACKBONE|DICT|INTERRES
   175   89   90 1    
   176   89  210 1    
   177   90   91 1    
   178   90   92 1    
   179   90  211 1    
   180   91  212 1    
   181   91  213 1    
   182   91  214 1    
   183   92   93 2    
   184   92   94 am   BACKBONE|DICT|INTERRES
   185   94   95 1    
   186   94  215 1    
   187   95   96 1    
   188   95   97 1    
   189   95  216 1    
   190   96  217 1    
   191   96  218 1    
   192   96  219 1    
   193   97   98 2    
   194   97   99 am   BACKBONE|DICT|INTERRES
   195   99  100 1    
   196   99  220 1    
   197  100  101 1    
   198  100  102 1    
   199  100  221 1    
   200  101  222 1    
   201  101  223 1    
   202  101  224 1    
   203  102  103 2    
   204  102  104 am   BACKBONE|DICT|INTERRES
   205  104  105 1    
   206  104  225 1    
   207  105  106 1    
   208  105  107 1    
   209  105  226 1    
   210  106  227 1    
   211  106  228 1    
   212  106  229 1    
   213  107  108 2    
   214  107  109 am   BACKBONE|DICT|INTERRES
   215  109  110 1    
   216  109  230 1    
   217  110  111 1    
   218  110  112 1    
   219  110  231 1    
   220  111  232 1    
   221  111  233 1    
   222  111  234 1    
   223  112  113 2    
   224  112  114 am   BACKBONE|DICT|INTERRES
   225  114  115 1    
   226  114  235 1    
   227  115  116 1    
   228  115  117 1    
   229  115  236 1    
   230  116  237 1    
   231  116  238 1    
   232  116  239 1    
   233  117  118 2    
   234  117  119 am   BACKBONE|DICT|INTERRES
   235  119  120 1    
   236  119  240 1    
   237  120  121 1    
   238  120  124 1    
   239  120  241 1    
   240  121  122 am   BACKBONE|DICT|INTERRES
   241  121  123 2    
   242  122  242 1    
   243  122  243 1    
   244  124  125 1    
   245  124  244 1    
   246  124  245 1    
   247  125  126 1    
   248  126  246 1    
   249  126  247 1    
@<TRIPOS>SUBSTRUCTURE
     1 UNK         1 GROUP             0       ****    0 ROOT    
