@<TRIPOS>MOLECULE
3R540
247   249    1
SMALL
USER_CHARGES


@<TRIPOS>ATOM
      1 CA          6.0307  -12.3330  -50.5088 C.3       0 UNK        -0.1800 
      2 C           4.6003  -11.8385  -50.7160 C.2       0 UNK         0.5000 
      3 O           4.4206  -10.6890  -51.1135 O.2       0 UNK        -0.5000 
      4 N           3.5538  -12.6440  -50.4882 N.am      1 UNK        -0.5000 
      5 CA          3.5243  -13.9940  -49.9167 C.3       1 UNK         0.1400 
      6 C6          2.2246  -14.7619  -50.3000 C.3       23 UNK        -0.0398 
      7 S7          0.6902  -13.7584  -50.3244 S.3       23 UNK        -0.2404 
      8 C8         -0.3879  -14.7501  -51.4091 C.3       23 UNK        -0.0205 
      9 C9         -0.9890  -15.9387  -50.6744 C.ar      23 UNK        -0.0193 
     10 C10        -2.2422  -15.8290  -50.0616 C.ar      23 UNK        -0.1150 
     11 C11        -2.7928  -16.9148  -49.3742 C.ar      23 UNK        -0.0193 
     12 C12        -2.0768  -18.1105  -49.2934 C.ar      23 UNK        -0.1150 
     13 C13        -0.8257  -18.2339  -49.9032 C.ar      23 UNK        -0.0193 
     14 C14        -0.2927  -17.1489  -50.6039 C.ar      23 UNK        -0.1150 
     15 C15        -0.0524  -19.5385  -49.8170 C.3       23 UNK        -0.0205 
     16 S16         1.0863  -19.5853  -48.3958 S.3       23 UNK        -0.2404 
     17 C17        -0.0282  -19.7797  -46.9618 C.3       23 UNK        -0.0398 
     18 CA         -0.2425  -21.2570  -46.5518 C.3       11 UNK         0.1400 
     19 N          -0.6059  -21.3759  -45.1350 N.am      11 UNK        -0.5000 
     20 C          -0.7284  -22.5349  -44.4718 C.2       10 UNK         0.5000 
     21 O          -0.5187  -23.6349  -44.9779 O.2       10 UNK        -0.5000 
     22 CA         -1.2363  -22.4607  -43.0254 C.3       10 UNK         0.1400 
     23 CB         -0.1077  -22.0563  -42.0667 C.3       10 UNK        -0.1800 
     24 N          -2.3597  -21.5313  -42.9142 N.am      10 UNK        -0.5000 
     25 C          -3.5965  -21.8010  -43.3585 C.2       9 UNK         0.5000 
     26 O          -3.9274  -22.8836  -43.8415 O.2       9 UNK        -0.5000 
     27 CA         -4.6338  -20.6655  -43.2738 C.3       9 UNK         0.1400 
     28 CB         -5.3706  -20.7093  -41.9269 C.3       9 UNK        -0.1800 
     29 N          -4.0491  -19.3367  -43.4588 N.am      9 UNK        -0.5000 
     30 C          -3.5077  -18.8948  -44.6023 C.2       8 UNK         0.5000 
     31 O          -3.4487  -19.5568  -45.6377 O.2       8 UNK        -0.5000 
     32 CA         -2.8696  -17.4963  -44.5620 C.3       8 UNK         0.1400 
     33 CB         -3.9287  -16.4062  -44.7808 C.3       8 UNK        -0.1800 
     34 N          -2.1415  -17.2221  -43.3175 N.am      8 UNK        -0.5000 
     35 C          -1.1109  -17.9379  -42.8482 C.2       7 UNK         0.5000 
     36 O          -0.6493  -18.9220  -43.4298 O.2       7 UNK        -0.5000 
     37 CA         -0.5313  -17.5015  -41.4938 C.3       7 UNK         0.1400 
     38 CB         -0.3321  -18.7048  -40.5513 C.3       7 UNK        -0.1800 
     39 N           0.7288  -16.7869  -41.6855 N.am      7 UNK        -0.5000 
     40 C           1.2932  -15.9878  -40.7681 C.2       6 UNK         0.5000 
     41 O           0.8034  -15.7733  -39.6581 O.2       6 UNK        -0.5000 
     42 CA          2.6104  -15.2854  -41.1512 C.3       6 UNK         0.1400 
     43 CB          3.7734  -16.2825  -41.2778 C.3       6 UNK        -0.1800 
     44 N           2.4744  -14.5150  -42.3847 N.am      6 UNK        -0.5000 
     45 C           1.7819  -13.3710  -42.4940 C.2       5 UNK         0.5000 
     46 O           1.2914  -12.7715  -41.5365 O.2       5 UNK        -0.5000 
     47 CA          1.5649  -12.8243  -43.9195 C.3       5 UNK         0.1400 
     48 CB          2.7169  -11.9010  -44.3434 C.3       5 UNK        -0.1800 
     49 N           1.4031  -13.8988  -44.8998 N.am      5 UNK        -0.5000 
     50 C           0.3728  -14.7568  -44.9046 C.2       4 UNK         0.5000 
     51 O          -0.6073  -14.6501  -44.1681 O.2       4 UNK        -0.5000 
     52 CA          0.4669  -15.9537  -45.8618 C.3       4 UNK         0.1400 
     53 CB         -0.1905  -15.6223  -47.2002 C.3       4 UNK        -0.1800 
     54 N           1.8434  -16.3908  -46.0827 N.am      4 UNK        -0.5000 
     55 C           2.5426  -17.1155  -45.1990 C.2       3 UNK         0.5000 
     56 O           2.0888  -17.4950  -44.1214 O.2       3 UNK        -0.5000 
     57 CA          4.0089  -17.4217  -45.5525 C.3       3 UNK         0.1400 
     58 CB          4.1127  -18.6836  -46.4203 C.3       3 UNK        -0.1800 
     59 N           4.6628  -16.3059  -46.2361 N.am      3 UNK        -0.5000 
     60 C           4.9000  -15.1138  -45.6722 C.2       2 UNK         0.5000 
     61 O           4.6417  -14.8535  -44.4973 O.2       2 UNK        -0.5000 
     62 CA          5.4770  -14.0183  -46.5863 C.3       2 UNK         0.1400 
     63 CB          7.0121  -14.0369  -46.5482 C.3       2 UNK        -0.1800 
     64 N           5.0273  -14.1214  -47.9785 N.am      2 UNK        -0.5000 
     65 C           3.7644  -13.9379  -48.3913 C.2       1 UNK         0.5000 
     66 O           2.8278  -13.7246  -47.6199 O.2       1 UNK        -0.5000 
     67 C          -1.2603  -21.9743  -47.4690 C.2       11 UNK         0.5000 
     68 O          -0.8624  -22.6964  -48.3855 O.2       11 UNK        -0.5000 
     69 N          -2.5567  -21.8187  -47.1677 N.am      12 UNK        -0.5000 
     70 CA         -3.6636  -22.4919  -47.8494 C.3       12 UNK         0.1400 
     71 CB         -4.9900  -21.8529  -47.4119 C.3       12 UNK        -0.1800 
     72 C          -3.6975  -24.0228  -47.6645 C.2       12 UNK         0.5000 
     73 O          -4.3468  -24.6988  -48.4619 O.2       12 UNK        -0.5000 
     74 N          -3.0014  -24.5467  -46.6483 N.am      13 UNK        -0.5000 
     75 CA         -2.8159  -25.9795  -46.4341 C.3       13 UNK         0.1400 
     76 CB         -2.8490  -26.2780  -44.9263 C.3       13 UNK        -0.1800 
     77 C          -1.4985  -26.4663  -47.0626 C.2       13 UNK         0.5000 
     78 O          -1.4958  -27.4871  -47.7510 O.2       13 UNK        -0.5000 
     79 N          -0.4026  -25.7424  -46.7969 N.am      14 UNK        -0.5000 
     80 CA          0.9592  -26.1120  -47.1768 C.3       14 UNK         0.1400 
     81 CB          1.9584  -25.2850  -46.3516 C.3       14 UNK        -0.1800 
     82 C           1.2400  -25.9576  -48.6798 C.2       14 UNK         0.5000 
     83 O           1.7621  -26.8897  -49.2934 O.2       14 UNK        -0.5000 
     84 N           0.9097  -24.7869  -49.2396 N.am      15 UNK        -0.5000 
     85 CA          1.1153  -24.4724  -50.6525 C.3       15 UNK         0.1400 
     86 CB          1.5129  -22.9956  -50.8072 C.3       15 UNK        -0.1800 
     87 C          -0.1497  -24.7908  -51.4588 C.2       15 UNK         0.5000 
     88 O          -0.0573  -25.4614  -52.4875 O.2       15 UNK        -0.5000 
     89 N          -1.3023  -24.3161  -50.9608 N.am      16 UNK        -0.5000 
     90 CA         -2.6712  -24.5108  -51.4595 C.3       16 UNK         0.1400 
     91 CB         -3.0818  -25.9932  -51.3912 C.3       16 UNK        -0.1800 
     92 C          -2.9523  -23.9142  -52.8528 C.2       16 UNK         0.5000 
     93 O          -3.8525  -23.0846  -52.9847 O.2       16 UNK        -0.5000 
     94 N          -2.1723  -24.3117  -53.8638 N.am      17 UNK        -0.5000 
     95 CA         -2.2836  -23.8527  -55.2508 C.3       17 UNK         0.1400 
     96 CB         -1.3819  -24.7194  -56.1421 C.3       17 UNK        -0.1800 
     97 C          -1.9412  -22.3609  -55.4187 C.2       17 UNK         0.5000 
     98 O          -2.5416  -21.6880  -56.2565 O.2       17 UNK        -0.5000 
     99 N          -1.0044  -21.8692  -54.5957 N.am      18 UNK        -0.5000 
    100 CA        -0.6287  -20.4568  -54.5134 C.3       18 UNK         0.1400 
    101 CB         0.7240  -20.3432  -53.7947 C.3       18 UNK        -0.1800 
    102 C         -1.6920  -19.5981  -53.8008 C.2       18 UNK         0.5000 
    103 O         -1.7832  -18.4016  -54.0751 O.2       18 UNK        -0.5000 
    104 N         -2.4699  -20.2230  -52.9060 N.am      19 UNK        -0.5000 
    105 CA        -3.5727  -19.5943  -52.1843 C.3       19 UNK         0.1400 
    106 CB        -3.8741  -20.4103  -50.9146 C.3       19 UNK        -0.1800 
    107 C         -4.8241  -19.4971  -53.0683 C.2       19 UNK         0.5000 
    108 O         -5.4189  -18.4251  -53.1731 O.2       19 UNK        -0.5000 
    109 N         -5.1956  -20.6348  -53.6771 N.am      20 UNK        -0.5000 
    110 CA        -6.4130  -20.8535  -54.4640 C.3       20 UNK         0.1400 
    111 CB        -6.3774  -20.0412  -55.7755 C.3       20 UNK        -0.1800 
    112 C         -7.6942  -20.6268  -53.6296 C.2       20 UNK         0.5000 
    113 O         -8.6597  -20.0436  -54.1251 O.2       20 UNK        -0.5000 
    114 N         -7.6575  -21.1083  -52.3758 N.am      21 UNK        -0.5000 
    115 CA        -8.6898  -21.0197  -51.3384 C.3       21 UNK         0.1400 
    116 CB        -9.9643  -21.7829  -51.7568 C.3       21 UNK        -0.1800 
    117 C         -8.9757  -19.5636  -50.9162 C.2       21 UNK         0.5000 
    118 O         -9.9608  -18.9685  -51.3578 O.2       21 UNK        -0.5000 
    119 N         -8.1031  -19.0204  -50.0559 N.am      22 UNK        -0.5000 
    120 CA        -8.2288  -17.6701  -49.4705 C.3       22 UNK         0.1400 
    121 C         -9.4359  -17.4808  -48.5018 C.2       22 UNK         0.5000 
    122 N        -10.0570  -18.5372  -47.9908 N.am      22 UNK        -0.7600 
    123 O         -9.8163  -16.3503  -48.2098 O.2       22 UNK        -0.5000 
    124 C124       -6.9222  -17.2108  -48.7705 C.3       23 UNK        -0.0398 
    125 S125       -5.4905  -17.1527  -49.8938 S.3       23 UNK        -0.2404 
    126 C126       -4.1553  -16.8036  -48.7111 C.3       23 UNK        -0.0205 
    127 H127        6.3355  -12.1917  -49.4724 H         1 UNK         0.0600 
    128 H128        6.7157  -11.7586  -51.1328 H         1 UNK         0.0600 
    129 H129        6.1554  -13.3794  -50.7814 H         1 UNK         0.0600 
    130 H130        2.6296  -12.2631  -50.6387 H         1 UNK         0.3000 
    131 H131        4.3427  -14.5705  -50.3495 H         1 UNK         0.0600 
    132 H132        2.3575  -15.1734  -51.3014 H         1 UNK         0.0800 
    133 H133        2.0708  -15.6262  -49.6513 H         1 UNK         0.0800 
    134 H134       -1.1868  -14.1092  -51.7848 H         1 UNK         0.0800 
    135 H135        0.1655  -15.0854  -52.2875 H         1 UNK         0.0800 
    136 H136       -2.7889  -14.8984  -50.1174 H         1 UNK         0.1150 
    137 H137       -2.5025  -18.9472  -48.7584 H         1 UNK         0.1150 
    138 H138        0.6727  -17.2418  -51.0801 H         1 UNK         0.1150 
    139 H139       -0.7336  -20.3864  -49.7857 H         1 UNK         0.0800 
    140 H140        0.5373  -19.6657  -50.7246 H         1 UNK         0.0800 
    141 H141        0.4556  -19.2480  -46.1411 H         1 UNK         0.0800 
    142 H142       -0.9721  -19.2595  -47.1136 H         1 UNK         0.0800 
    143 H143        0.7099  -21.7799  -46.6629 H         1 UNK         0.0600 
    144 H144       -0.7664  -20.5108  -44.6272 H         1 UNK         0.3000 
    145 H145       -1.5812  -23.4557  -42.7352 H         1 UNK         0.0600 
    146 H146       -0.4729  -21.9456  -41.0457 H         1 UNK         0.0600 
    147 H147        0.6746  -22.8160  -42.0521 H         1 UNK         0.0600 
    148 H148        0.3608  -21.1187  -42.3640 H         1 UNK         0.0600 
    149 H149       -2.1497  -20.6004  -42.5858 H         1 UNK         0.3000 
    150 H150       -5.3651  -20.8256  -44.0688 H         1 UNK         0.0600 
    151 H151       -5.8379  -21.6823  -41.7694 H         1 UNK         0.0600 
    152 H152       -6.1616  -19.9602  -41.8853 H         1 UNK         0.0600 
    153 H153       -4.6935  -20.5309  -41.0906 H         1 UNK         0.0600 
    154 H154       -4.0478  -18.7235  -42.6572 H         1 UNK         0.3000 
    155 H155       -2.1667  -17.4501  -45.3932 H         1 UNK         0.0600 
    156 H156       -3.4633  -15.4274  -44.9003 H         1 UNK         0.0600 
    157 H157       -4.6256  -16.3472  -43.9440 H         1 UNK         0.0600 
    158 H158       -4.5151  -16.5979  -45.6794 H         1 UNK         0.0600 
    159 H159       -2.4322  -16.4010  -42.8062 H         1 UNK         0.3000 
    160 H160       -1.2497  -16.8238  -41.0277 H         1 UNK         0.0600 
    161 H161        0.5035  -19.3270  -40.8711 H         1 UNK         0.0600 
    162 H162       -1.2227  -19.3334  -40.5162 H         1 UNK         0.0600 
    163 H163       -0.1285  -18.3799  -39.5312 H         1 UNK         0.0600 
    164 H164        1.1950  -16.9484  -42.5774 H         1 UNK         0.3000 
    165 H165        2.8624  -14.5914  -40.3464 H         1 UNK         0.0600 
    166 H166        3.6081  -17.0099  -42.0713 H         1 UNK         0.0600 
    167 H167        4.7102  -15.7671  -41.4907 H         1 UNK         0.0600 
    168 H168        3.9107  -16.8380  -40.3494 H         1 UNK         0.0600 
    169 H169        2.9008  -14.9033  -43.2171 H         1 UNK         0.3000 
    170 H170        0.6449  -12.2359  -43.9152 H         1 UNK         0.0600 
    171 H171        2.7781  -11.0334  -43.6856 H         1 UNK         0.0600 
    172 H172        3.6800  -12.4078  -44.3012 H         1 UNK         0.0600 
    173 H173        2.5753  -11.5313  -45.3593 H         1 UNK         0.0600 
    174 H174        2.1333  -14.0094  -45.5928 H         1 UNK         0.3000 
    175 H175       -0.0738  -16.7860  -45.4147 H         1 UNK         0.0600 
    176 H176       -1.2567  -15.4293  -47.0777 H         1 UNK         0.0600 
    177 H177        0.2542  -14.7386  -47.6550 H         1 UNK         0.0600 
    178 H178       -0.0828  -16.4516  -47.8948 H         1 UNK         0.0600 
    179 H179        2.2957  -16.0666  -46.9243 H         1 UNK         0.3000 
    180 H180        4.5402  -17.6073  -44.6165 H         1 UNK         0.0600 
    181 H181        3.6884  -18.5251  -47.4117 H         1 UNK         0.0600 
    182 H182        3.5812  -19.5201  -45.9639 H         1 UNK         0.0600 
    183 H183        5.1514  -18.9888  -46.5470 H         1 UNK         0.0600 
    184 H184        4.9140  -16.4425  -47.2038 H         1 UNK         0.3000 
    185 H185        5.1402  -13.0552  -46.1975 H         1 UNK         0.0600 
    186 H186        7.4313  -13.2105  -47.1225 H         1 UNK         0.0600 
    187 H187        7.3782  -13.9378  -45.5253 H         1 UNK         0.0600 
    188 H188        7.4149  -14.9664  -46.9524 H         1 UNK         0.0600 
    189 H189        5.7473  -14.3069  -48.6611 H         1 UNK         0.3000 
    190 H190       -2.8156  -21.1647  -46.4331 H         1 UNK         0.3000 
    191 H191       -3.5442  -22.3193  -48.9179 H         1 UNK         0.0600 
    192 H192       -5.8357  -22.3093  -47.9276 H         1 UNK         0.0600 
    193 H193       -5.0078  -20.7869  -47.6399 H         1 UNK         0.0600 
    194 H194       -5.1545  -21.9703  -46.3405 H         1 UNK         0.0600 
    195 H195       -2.4937  -23.9259  -46.0326 H         1 UNK         0.3000 
    196 H196       -3.6333  -26.5372  -46.8962 H         1 UNK         0.0600 
    197 H197       -2.7332  -27.3460  -44.7381 H         1 UNK         0.0600 
    198 H198       -3.7984  -25.9705  -44.4874 H         1 UNK         0.0600 
    199 H199       -2.0535  -25.7620  -44.3885 H         1 UNK         0.0600 
    200 H200       -0.4889  -24.9283  -46.1911 H         1 UNK         0.3000 
    201 H201        1.1055  -27.1632  -46.9193 H         1 UNK         0.0600 
    202 H202        1.8256  -25.4596  -45.2838 H         1 UNK         0.0600 
    203 H203        1.8425  -24.2153  -46.5305 H         1 UNK         0.0600 
    204 H204        2.9866  -25.5512  -46.5997 H         1 UNK         0.0600 
    205 H205        0.4224  -24.0884  -48.6865 H         1 UNK         0.3000 
    206 H206        1.9333  -25.0749  -51.0536 H         1 UNK         0.0600 
    207 H207        2.4003  -22.7630  -50.2184 H         1 UNK         0.0600 
    208 H208        1.7449  -22.7657  -51.8474 H         1 UNK         0.0600 
    209 H209        0.7190  -22.3205  -50.4903 H         1 UNK         0.0600 
    210 H210       -1.2327  -23.7654  -50.1112 H         1 UNK         0.3000 
    211 H211       -3.3127  -23.9652  -50.7685 H         1 UNK         0.0600 
    212 H212       -2.4864  -26.6169  -52.0583 H         1 UNK         0.0600 
    213 H213       -4.1281  -26.1200  -51.6715 H         1 UNK         0.0600 
    214 H214       -2.9682  -26.3836  -50.3794 H         1 UNK         0.0600 
    215 H215       -1.4129  -24.9515  -53.6418 H         1 UNK         0.3000 
    216 H216       -3.3186  -23.9921  -55.5699 H         1 UNK         0.0600 
    217 H217       -0.3342  -24.6450  -55.8479 H         1 UNK         0.0600 
    218 H218       -1.6704  -25.7694  -56.0908 H         1 UNK         0.0600 
    219 H219       -1.4538  -24.4135  -57.1867 H         1 UNK         0.0600 
    220 H220       -0.5490  -22.5038  -53.9573 H         1 UNK         0.3000 
    221 H221       -0.5118  -20.0665  -55.5267 H         1 UNK         0.0600 
    222 H222        1.5072  -20.8662  -54.3437 H         1 UNK         0.0600 
    223 H223        1.0328  -19.3011  -53.7012 H         1 UNK         0.0600 
    224 H224        0.6798  -20.7645  -52.7912 H         1 UNK         0.0600 
    225 H225       -2.3628  -21.2188  -52.7900 H         1 UNK         0.3000 
    226 H226       -3.2749  -18.5860  -51.8884 H         1 UNK         0.0600 
    227 H227       -4.3289  -21.3750  -51.1334 H         1 UNK         0.0600 
    228 H228       -2.9657  -20.6010  -50.3483 H         1 UNK         0.0600 
    229 H229       -4.5616  -19.8769  -50.2599 H         1 UNK         0.0600 
    230 H230       -4.6387  -21.4691  -53.5055 H         1 UNK         0.3000 
    231 H231       -6.4111  -21.9102  -54.7354 H         1 UNK         0.0600 
    232 H232       -7.2115  -20.3113  -56.4239 H         1 UNK         0.0600 
    233 H233       -5.4592  -20.2334  -56.3309 H         1 UNK         0.0600 
    234 H234       -6.4407  -18.9684  -55.5925 H         1 UNK         0.0600 
    235 H235       -6.8002  -21.5585  -52.0897 H         1 UNK         0.3000 
    236 H236       -8.2881  -21.5321  -50.4627 H         1 UNK         0.0600 
    237 H237       -9.7407  -22.8241  -51.9892 H         1 UNK         0.0600 
    238 H238      -10.6987  -21.7804  -50.9506 H         1 UNK         0.0600 
    239 H239      -10.4426  -21.3409  -52.6311 H         1 UNK         0.0600 
    240 H240       -7.3038  -19.5576  -49.7565 H         1 UNK         0.3000 
    241 H241       -8.4091  -16.9848  -50.3011 H         1 UNK         0.0600 
    242 H242       -9.7586  -19.4717  -48.2174 H         1 UNK         0.3800 
    243 H243      -10.8386  -18.3987  -47.3693 H         1 UNK         0.3800 
    244 H244       -7.0428  -16.2118  -48.3468 H         1 UNK         0.0800 
    245 H245       -6.6896  -17.8736  -47.9351 H         1 UNK         0.0800 
    246 H246       -4.2177  -17.5066  -47.8790 H         1 UNK         0.0800 
    247 H247       -4.2883  -15.8059  -48.2903 H         1 UNK         0.0800 
@<TRIPOS>BOND
     1    1    2 1    
     2    1  127 1    
     3    1  128 1    
     4    1  129 1    
     5    2    3 2    
     6    2    4 am   BACKBONE|DICT|INTERRES
     7    4    5 1    
     8    4  130 1    
     9    5    6 1    
    10    5   65 1    
    11    5  131 1    
    12    6    7 1    
    13    6  132 1    
    14    6  133 1    
    15    7    8 1    
    16    8    9 1    
    17    8  134 1    
    18    8  135 1    
    19    9   10 ar   
    20    9   14 ar   
    21   10   11 ar   
    22   10  136 1    
    23   11   12 ar   
    24   11  126 1    
    25   12   13 ar   
    26   12  137 1    
    27   13   14 ar   
    28   13   15 1    
    29   14  138 1    
    30   15   16 1    
    31   15  139 1    
    32   15  140 1    
    33   16   17 1    
    34   17   18 1    
    35   17  141 1    
    36   17  142 1    
    37   18   19 1    
    38   18   67 1    
    39   18  143 1    
    40   19   20 am   BACKBONE|DICT|INTERRES
    41   19  144 1    
    42   20   21 2    
    43   20   22 1    
    44   22   23 1    
    45   22   24 1    
    46   22  145 1    
    47   23  146 1    
    48   23  147 1    
    49   23  148 1    
    50   24   25 am   BACKBONE|DICT|INTERRES
    51   24  149 1    
    52   25   26 2    
    53   25   27 1    
    54   27   28 1    
    55   27   29 1    
    56   27  150 1    
    57   28  151 1    
    58   28  152 1    
    59   28  153 1    
    60   29   30 am   BACKBONE|DICT|INTERRES
    61   29  154 1    
    62   30   31 2    
    63   30   32 1    
    64   32   33 1    
    65   32   34 1    
    66   32  155 1    
    67   33  156 1    
    68   33  157 1    
    69   33  158 1    
    70   34   35 am   BACKBONE|DICT|INTERRES
    71   34  159 1    
    72   35   36 2    
    73   35   37 1    
    74   37   38 1    
    75   37   39 1    
    76   37  160 1    
    77   38  161 1    
    78   38  162 1    
    79   38  163 1    
    80   39   40 am   BACKBONE|DICT|INTERRES
    81   39  164 1    
    82   40   41 2    
    83   40   42 1    
    84   42   43 1    
    85   42   44 1    
    86   42  165 1    
    87   43  166 1    
    88   43  167 1    
    89   43  168 1    
    90   44   45 am   BACKBONE|DICT|INTERRES
    91   44  169 1    
    92   45   46 2    
    93   45   47 1    
    94   47   48 1    
    95   47   49 1    
    96   47  170 1    
    97   48  171 1    
    98   48  172 1    
    99   48  173 1    
   100   49   50 am   BACKBONE|DICT|INTERRES
   101   49  174 1    
   102   50   51 2    
   103   50   52 1    
   104   52   53 1    
   105   52   54 1    
   106   52  175 1    
   107   53  176 1    
   108   53  177 1    
   109   53  178 1    
   110   54   55 am   BACKBONE|DICT|INTERRES
   111   54  179 1    
   112   55   56 2    
   113   55   57 1    
   114   57   58 1    
   115   57   59 1    
   116   57  180 1    
   117   58  181 1    
   118   58  182 1    
   119   58  183 1    
   120   59   60 am   BACKBONE|DICT|INTERRES
   121   59  184 1    
   122   60   61 2    
   123   60   62 1    
   124   62   63 1    
   125   62   64 1    
   126   62  185 1    
   127   63  186 1    
   128   63  187 1    
   129   63  188 1    
   130   64   65 am   BACKBONE|DICT|INTERRES
   131   64  189 1    
   132   65   66 2    
   133   67   68 2    
   134   67   69 am   BACKBONE|DICT|INTERRES
   135   69   70 1    
   136   69  190 1    
   137   70   71 1    
   138   70   72 1    
   139   70  191 1    
   140   71  192 1    
   141   71  193 1    
   142   71  194 1    
   143   72   73 2    
   144   72   74 am   BACKBONE|DICT|INTERRES
   145   74   75 1    
   146   74  195 1    
   147   75   76 1    
   148   75   77 1    
   149   75  196 1    
   150   76  197 1    
   151   76  198 1    
   152   76  199 1    
   153   77   78 2    
   154   77   79 am   BACKBONE|DICT|INTERRES
   155   79   80 1    
   156   79  200 1    
   157   80   81 1    
   158   80   82 1    
   159   80  201 1    
   160   81  202 1    
   161   81  203 1    
   162   81  204 1    
   163   82   83 2    
   164   82   84 am   BACKBONE|DICT|INTERRES
   165   84   85 1    
   166   84  205 1    
   167   85   86 1    
   168   85   87 1    
   169   85  206 1    
   170   86  207 1    
   171   86  208 1    
   172   86  209 1    
   173   87   88 2    
   174   87   89 am   BACKBONE|DICT|INTERRES
   175   89   90 1    
   176   89  210 1    
   177   90   91 1    
   178   90   92 1    
   179   90  211 1    
   180   91  212 1    
   181   91  213 1    
   182   91  214 1    
   183   92   93 2    
   184   92   94 am   BACKBONE|DICT|INTERRES
   185   94   95 1    
   186   94  215 1    
   187   95   96 1    
   188   95   97 1    
   189   95  216 1    
   190   96  217 1    
   191   96  218 1    
   192   96  219 1    
   193   97   98 2    
   194   97   99 am   BACKBONE|DICT|INTERRES
   195   99  100 1    
   196   99  220 1    
   197  100  101 1    
   198  100  102 1    
   199  100  221 1    
   200  101  222 1    
   201  101  223 1    
   202  101  224 1    
   203  102  103 2    
   204  102  104 am   BACKBONE|DICT|INTERRES
   205  104  105 1    
   206  104  225 1    
   207  105  106 1    
   208  105  107 1    
   209  105  226 1    
   210  106  227 1    
   211  106  228 1    
   212  106  229 1    
   213  107  108 2    
   214  107  109 am   BACKBONE|DICT|INTERRES
   215  109  110 1    
   216  109  230 1    
   217  110  111 1    
   218  110  112 1    
   219  110  231 1    
   220  111  232 1    
   221  111  233 1    
   222  111  234 1    
   223  112  113 2    
   224  112  114 am   BACKBONE|DICT|INTERRES
   225  114  115 1    
   226  114  235 1    
   227  115  116 1    
   228  115  117 1    
   229  115  236 1    
   230  116  237 1    
   231  116  238 1    
   232  116  239 1    
   233  117  118 2    
   234  117  119 am   BACKBONE|DICT|INTERRES
   235  119  120 1    
   236  119  240 1    
   237  120  121 1    
   238  120  124 1    
   239  120  241 1    
   240  121  122 am   BACKBONE|DICT|INTERRES
   241  121  123 2    
   242  122  242 1    
   243  122  243 1    
   244  124  125 1    
   245  124  244 1    
   246  124  245 1    
   247  125  126 1    
   248  126  246 1    
   249  126  247 1    
@<TRIPOS>SUBSTRUCTURE
     1 UNK         1 GROUP             0       ****    0 ROOT    
