@<TRIPOS>MOLECULE
3R540
247   249    1
SMALL
USER_CHARGES


@<TRIPOS>ATOM
      1 CA         -0.3640  -12.8627  -50.8082 C.3       0 UNK        -0.1800 
      2 C           0.7686  -13.1600  -49.8365 C.2       0 UNK         0.5000 
      3 O           0.6504  -12.8511  -48.6522 O.2       0 UNK        -0.5000 
      4 N           1.8641  -13.7456  -50.3427 N.am      1 UNK        -0.5000 
      5 CA          3.0586  -14.2356  -49.6290 C.3       1 UNK         0.1400 
      6 C6          2.8746  -15.6488  -49.0011 C.3       23 UNK        -0.0398 
      7 S7          1.8154  -15.7888  -47.5090 S.3       23 UNK        -0.2404 
      8 C8          0.1515  -16.2528  -48.1097 C.3       23 UNK        -0.0205 
      9 C9          0.1488  -17.3400  -49.1726 C.ar      23 UNK        -0.0193 
     10 C10         0.0952  -16.9858  -50.5230 C.ar      23 UNK        -0.1150 
     11 C11         0.0959  -17.9645  -51.5178 C.ar      23 UNK        -0.0193 
     12 C12         0.1461  -19.3113  -51.1509 C.ar      23 UNK        -0.1150 
     13 C13         0.1660  -19.6829  -49.8030 C.ar      23 UNK        -0.0193 
     14 C14         0.1695  -18.6916  -48.8155 C.ar      23 UNK        -0.1150 
     15 C15         0.1538  -21.1562  -49.4279 C.3       23 UNK        -0.0205 
     16 S16         1.8150  -21.7668  -49.0078 S.3       23 UNK        -0.2404 
     17 C17         1.7909  -21.6673  -47.1862 C.3       23 UNK        -0.0398 
     18 CA          1.4962  -23.0387  -46.5295 C.3       11 UNK         0.1400 
     19 N           1.9694  -23.0967  -45.1467 N.am      11 UNK        -0.5000 
     20 C           2.2821  -24.2283  -44.4998 C.2       10 UNK         0.5000 
     21 O           2.2992  -25.3372  -45.0336 O.2       10 UNK        -0.5000 
     22 CA          2.6087  -24.1079  -42.9979 C.3       10 UNK         0.1400 
     23 CB          4.1200  -23.9321  -42.7882 C.3       10 UNK        -0.1800 
     24 N           1.9025  -23.0051  -42.3425 N.am      10 UNK        -0.5000 
     25 C           0.5760  -22.9540  -42.1567 C.2       9 UNK         0.5000 
     26 O          -0.1922  -23.8587  -42.4794 O.2       9 UNK        -0.5000 
     27 CA          0.0083  -21.6514  -41.5627 C.3       9 UNK         0.1400 
     28 CB         -0.0345  -21.7264  -40.0299 C.3       9 UNK        -0.1800 
     29 N           0.7418  -20.4498  -41.9643 N.am      9 UNK        -0.5000 
     30 C           0.9153  -20.0203  -43.2208 C.2       8 UNK         0.5000 
     31 O           0.5381  -20.6500  -44.2123 O.2       8 UNK        -0.5000 
     32 CA          1.6408  -18.6690  -43.3816 C.3       8 UNK         0.1400 
     33 CB          1.7511  -18.2290  -44.8508 C.3       8 UNK        -0.1800 
     34 N           0.9844  -17.6063  -42.6197 N.am      8 UNK        -0.5000 
     35 C           1.1041  -17.3939  -41.3021 C.2       7 UNK         0.5000 
     36 O           1.8093  -18.0822  -40.5630 O.2       7 UNK        -0.5000 
     37 CA          0.2554  -16.2586  -40.7090 C.3       7 UNK         0.1400 
     38 CB          0.8358  -14.8841  -41.0764 C.3       7 UNK        -0.1800 
     39 N          -1.1235  -16.3500  -41.1848 N.am      7 UNK        -0.5000 
     40 C          -2.0816  -17.0821  -40.5987 C.2       6 UNK         0.5000 
     41 O          -1.9255  -17.6938  -39.5414 O.2       6 UNK        -0.5000 
     42 CA         -3.4467  -17.1484  -41.3145 C.3       6 UNK         0.1400 
     43 CB         -4.3748  -16.0348  -40.8059 C.3       6 UNK        -0.1800 
     44 N          -3.3353  -17.0474  -42.7706 N.am      6 UNK        -0.5000 
     45 C          -2.7799  -17.9812  -43.5560 C.2       5 UNK         0.5000 
     46 O          -2.3877  -19.0688  -43.1392 O.2       5 UNK        -0.5000 
     47 CA         -2.5932  -17.6237  -45.0464 C.3       5 UNK         0.1400 
     48 CB         -3.7234  -18.2195  -45.9009 C.3       5 UNK        -0.1800 
     49 N          -2.5048  -16.1792  -45.3008 N.am      5 UNK        -0.5000 
     50 C          -1.5324  -15.3869  -44.8316 C.2       4 UNK         0.5000 
     51 O          -0.6063  -15.7943  -44.1246 O.2       4 UNK        -0.5000 
     52 CA         -1.6355  -13.8913  -45.1525 C.3       4 UNK         0.1400 
     53 CB         -2.6429  -13.2086  -44.2079 C.3       4 UNK        -0.1800 
     54 N          -0.3085  -13.3155  -44.9820 N.am      4 UNK        -0.5000 
     55 C           0.1130  -12.1251  -45.4169 C.2       3 UNK         0.5000 
     56 O          -0.6117  -11.3109  -45.9923 O.2       3 UNK        -0.5000 
     57 CA          1.5906  -11.7738  -45.1725 C.3       3 UNK         0.1400 
     58 CB          2.3838  -12.8440  -44.3868 C.3       3 UNK        -0.1800 
     59 N           2.2218  -11.5320  -46.4636 N.am      3 UNK        -0.5000 
     60 C           3.3368  -10.8177  -46.6635 C.2       2 UNK         0.5000 
     61 O           3.9272  -10.2195  -45.7617 O.2       2 UNK        -0.5000 
     62 CA          3.8842  -10.7595  -48.1096 C.3       2 UNK         0.1400 
     63 CB          5.4109  -10.5414  -48.1644 C.3       2 UNK        -0.1800 
     64 N           3.4922  -11.9134  -48.9279 N.am      2 UNK        -0.5000 
     65 C           3.7593  -13.2101  -48.7012 C.2       1 UNK         0.5000 
     66 O           4.5245  -13.6033  -47.8192 O.2       1 UNK        -0.5000 
     67 C          -0.0015  -23.3967  -46.5854 C.2       11 UNK         0.5000 
     68 O          -0.4084  -24.1935  -47.4308 O.2       11 UNK        -0.5000 
     69 N          -0.7932  -22.8423  -45.6545 N.am      12 UNK        -0.5000 
     70 CA         -2.2322  -23.0926  -45.5377 C.3       12 UNK         0.1400 
     71 CB         -2.8376  -22.1605  -44.4845 C.3       12 UNK        -0.1800 
     72 C          -2.5929  -24.5612  -45.2488 C.2       12 UNK         0.5000 
     73 O          -3.6468  -25.0206  -45.6887 O.2       12 UNK        -0.5000 
     74 N          -1.6923  -25.2782  -44.5628 N.am      13 UNK        -0.5000 
     75 CA         -1.7530  -26.7218  -44.3360 C.3       13 UNK         0.1400 
     76 CB         -0.6267  -27.1278  -43.3735 C.3       13 UNK        -0.1800 
     77 C          -1.6823  -27.5546  -45.6330 C.2       13 UNK         0.5000 
     78 O          -2.2330  -28.6560  -45.6625 O.2       13 UNK        -0.5000 
     79 N          -1.0335  -27.0207  -46.6796 N.am      14 UNK        -0.5000 
     80 CA         -1.0698  -27.5768  -48.0303 C.3       14 UNK         0.1400 
     81 CB          0.2067  -27.2016  -48.8026 C.3       14 UNK        -0.1800 
     82 C          -2.3434  -27.0987  -48.7465 C.2       14 UNK         0.5000 
     83 O          -3.1743  -27.9306  -49.1135 O.2       14 UNK        -0.5000 
     84 N          -2.4981  -25.7742  -48.8810 N.am      15 UNK        -0.5000 
     85 CA         -3.6941  -25.1119  -49.3962 C.3       15 UNK         0.1400 
     86 CB         -3.8967  -25.3996  -50.8968 C.3       15 UNK        -0.1800 
     87 C          -3.5721  -23.6018  -49.1572 C.2       15 UNK         0.5000 
     88 O          -2.5767  -23.0017  -49.5682 O.2       15 UNK        -0.5000 
     89 N          -4.5897  -23.0033  -48.5235 N.am      16 UNK        -0.5000 
     90 CA         -4.6806  -21.5662  -48.2511 C.3       16 UNK         0.1400 
     91 CB         -5.9264  -21.2845  -47.3995 C.3       16 UNK        -0.1800 
     92 C          -4.7022  -20.7486  -49.5525 C.2       16 UNK         0.5000 
     93 O          -5.5494  -20.9995  -50.4136 O.2       16 UNK        -0.5000 
     94 N          -3.7290  -19.8369  -49.6945 N.am      17 UNK        -0.5000 
     95 CA         -3.4684  -19.0158  -50.8844 C.3       17 UNK         0.1400 
     96 CB         -4.5631  -17.9414  -51.0427 C.3       17 UNK        -0.1800 
     97 C          -3.2434  -19.8518  -52.1674 C.2       17 UNK         0.5000 
     98 O          -3.6019  -19.4109  -53.2603 O.2       17 UNK        -0.5000 
     99 N          -2.7027  -21.0715  -51.9993 N.am      18 UNK        -0.5000 
    100 CA        -2.5304  -22.1064  -53.0244 C.3       18 UNK         0.1400 
    101 CB        -1.4583  -21.6888  -54.0535 C.3       18 UNK        -0.1800 
    102 C         -3.8721  -22.5238  -53.6675 C.2       18 UNK         0.5000 
    103 O         -3.9447  -22.7089  -54.8814 O.2       18 UNK        -0.5000 
    104 N         -4.9189  -22.6239  -52.8329 N.am      19 UNK        -0.5000 
    105 CA        -6.3265  -22.8383  -53.1910 C.3       19 UNK         0.1400 
    106 CB        -6.5382  -24.1881  -53.9097 C.3       19 UNK        -0.1800 
    107 C         -6.8990  -21.6303  -53.9602 C.2       19 UNK         0.5000 
    108 O         -7.5950  -21.7964  -54.9630 O.2       19 UNK        -0.5000 
    109 N         -6.5583  -20.4303  -53.4676 N.am      20 UNK        -0.5000 
    110 CA        -6.8838  -19.1020  -54.0000 C.3       20 UNK         0.1400 
    111 CB        -8.4069  -18.8589  -53.9799 C.3       20 UNK        -0.1800 
    112 C         -6.2538  -18.7802  -55.3734 C.2       20 UNK         0.5000 
    113 O         -6.6453  -17.7906  -55.9950 O.2       20 UNK        -0.5000 
    114 N         -5.2713  -19.5767  -55.8195 N.am      21 UNK        -0.5000 
    115 CA        -4.5877  -19.4212  -57.1056 C.3       21 UNK         0.1400 
    116 CB        -3.6979  -20.6427  -57.3721 C.3       21 UNK        -0.1800 
    117 C         -3.7717  -18.1206  -57.2232 C.2       21 UNK         0.5000 
    118 O         -3.6744  -17.5775  -58.3247 O.2       21 UNK        -0.5000 
    119 N         -3.2293  -17.6305  -56.0998 N.am      22 UNK        -0.5000 
    120 CA        -2.5710  -16.3154  -56.0087 C.3       22 UNK         0.1400 
    121 C         -3.5326  -15.1459  -55.6355 C.2       22 UNK         0.5000 
    122 N         -4.8410  -15.3554  -55.5332 N.am      22 UNK        -0.7600 
    123 O         -3.0887  -14.0142  -55.4608 O.2       22 UNK        -0.5000 
    124 C124       -1.2854  -16.3568  -55.1413 C.3       23 UNK        -0.0398 
    125 S125       -1.5585  -16.7783  -53.3888 S.3       23 UNK        -0.2404 
    126 C126        0.0342  -17.5596  -52.9820 C.3       23 UNK        -0.0205 
    127 H127       -0.1305  -13.1945  -51.8202 H         1 UNK         0.0600 
    128 H128       -0.5629  -11.7914  -50.8368 H         1 UNK         0.0600 
    129 H129       -1.2732  -13.3711  -50.4870 H         1 UNK         0.0600 
    130 H130        1.8835  -13.9195  -51.3378 H         1 UNK         0.3000 
    131 H131        3.7870  -14.3740  -50.4294 H         1 UNK         0.0600 
    132 H132        2.5421  -16.3455  -49.7666 H         1 UNK         0.0800 
    133 H133        3.8539  -16.0332  -48.7118 H         1 UNK         0.0800 
    134 H134       -0.4299  -16.5973  -47.2556 H         1 UNK         0.0800 
    135 H135       -0.3665  -15.3676  -48.4758 H         1 UNK         0.0800 
    136 H136        0.0550  -15.9441  -50.8052 H         1 UNK         0.1150 
    137 H137        0.1473  -20.0738  -51.9153 H         1 UNK         0.1150 
    138 H138        0.1899  -18.9668  -47.7710 H         1 UNK         0.1150 
    139 H139       -0.5432  -21.3267  -48.6068 H         1 UNK         0.0800 
    140 H140       -0.2228  -21.7508  -50.2616 H         1 UNK         0.0800 
    141 H141        1.0962  -20.8979  -46.8479 H         1 UNK         0.0800 
    142 H142        2.7802  -21.3219  -46.8834 H         1 UNK         0.0800 
    143 H143        2.0357  -23.8020  -47.0953 H         1 UNK         0.0600 
    144 H144        1.9088  -22.2353  -44.6195 H         1 UNK         0.3000 
    145 H145        2.3016  -25.0398  -42.5180 H         1 UNK         0.0600 
    146 H146        4.3726  -23.9211  -41.7277 H         1 UNK         0.0600 
    147 H147        4.6754  -24.7526  -43.2446 H         1 UNK         0.0600 
    148 H148        4.4831  -23.0036  -43.2306 H         1 UNK         0.0600 
    149 H149        2.4589  -22.2168  -42.0459 H         1 UNK         0.3000 
    150 H150       -1.0147  -21.5395  -41.9240 H         1 UNK         0.0600 
    151 H151       -0.5191  -20.8458  -39.6069 H         1 UNK         0.0600 
    152 H152       -0.5985  -22.5987  -39.6968 H         1 UNK         0.0600 
    153 H153        0.9662  -21.7974  -39.6021 H         1 UNK         0.0600 
    154 H154        1.0878  -19.8544  -41.2194 H         1 UNK         0.3000 
    155 H155        2.6552  -18.8011  -43.0000 H         1 UNK         0.0600 
    156 H156        0.7708  -18.0771  -45.3024 H         1 UNK         0.0600 
    157 H157        2.2792  -18.9721  -45.4491 H         1 UNK         0.0600 
    158 H158        2.3049  -17.2942  -44.9352 H         1 UNK         0.0600 
    159 H159        0.3729  -16.9935  -43.1541 H         1 UNK         0.3000 
    160 H160        0.2763  -16.3507  -39.6209 H         1 UNK         0.0600 
    161 H161        0.8428  -14.7223  -42.1537 H         1 UNK         0.0600 
    162 H162        1.8633  -14.7876  -40.7235 H         1 UNK         0.0600 
    163 H163        0.2582  -14.0791  -40.6219 H         1 UNK         0.0600 
    164 H164       -1.3141  -15.9312  -42.0850 H         1 UNK         0.3000 
    165 H165       -3.9016  -18.1114  -41.0728 H         1 UNK         0.0600 
    166 H166       -5.3673  -16.1146  -41.2498 H         1 UNK         0.0600 
    167 H167       -4.4985  -16.0938  -39.7237 H         1 UNK         0.0600 
    168 H168       -3.9809  -15.0443  -41.0377 H         1 UNK         0.0600 
    169 H169       -3.6502  -16.1878  -43.1941 H         1 UNK         0.3000 
    170 H170       -1.6537  -18.0780  -45.3677 H         1 UNK         0.0600 
    171 H171       -3.8024  -19.2967  -45.7521 H         1 UNK         0.0600 
    172 H172       -4.6905  -17.7832  -45.6485 H         1 UNK         0.0600 
    173 H173       -3.5455  -18.0514  -46.9632 H         1 UNK         0.0600 
    174 H174       -3.2434  -15.7753  -45.8591 H         1 UNK         0.3000 
    175 H175       -1.9476  -13.7718  -46.1920 H         1 UNK         0.0600 
    176 H176       -2.3427  -13.3058  -43.1636 H         1 UNK         0.0600 
    177 H177       -2.7395  -12.1456  -44.4285 H         1 UNK         0.0600 
    178 H178       -3.6366  -13.6465  -44.3075 H         1 UNK         0.0600 
    179 H179        0.3507  -13.9514  -44.5499 H         1 UNK         0.3000 
    180 H180        1.5970  -10.8462  -44.5966 H         1 UNK         0.0600 
    181 H181        2.4241  -13.7945  -44.9213 H         1 UNK         0.0600 
    182 H182        1.9418  -13.0210  -43.4064 H         1 UNK         0.0600 
    183 H183        3.4113  -12.5248  -44.2128 H         1 UNK         0.0600 
    184 H184        1.7556  -11.9632  -47.2592 H         1 UNK         0.3000 
    185 H185        3.4130   -9.8904  -48.5704 H         1 UNK         0.0600 
    186 H186        5.6888   -9.5982  -47.6929 H         1 UNK         0.0600 
    187 H187        5.9530  -11.3348  -47.6493 H         1 UNK         0.0600 
    188 H188        5.7676  -10.5043  -49.1937 H         1 UNK         0.0600 
    189 H189        2.8455  -11.7100  -49.6769 H         1 UNK         0.3000 
    190 H190       -0.3899  -22.1717  -45.0064 H         1 UNK         0.3000 
    191 H191       -2.6703  -22.8407  -46.5003 H         1 UNK         0.0600 
    192 H192       -2.5896  -21.1228  -44.6995 H         1 UNK         0.0600 
    193 H193       -3.9251  -22.2414  -44.4689 H         1 UNK         0.0600 
    194 H194       -2.4763  -22.3962  -43.4844 H         1 UNK         0.0600 
    195 H195       -0.9074  -24.7881  -44.1472 H         1 UNK         0.3000 
    196 H196       -2.7089  -26.9418  -43.8566 H         1 UNK         0.0600 
    197 H197       -0.6551  -28.1984  -43.1665 H         1 UNK         0.0600 
    198 H198       -0.7181  -26.6107  -42.4182 H         1 UNK         0.0600 
    199 H199        0.3561  -26.8986  -43.7863 H         1 UNK         0.0600 
    200 H200       -0.6505  -26.0869  -46.5931 H         1 UNK         0.3000 
    201 H201       -1.1031  -28.6669  -47.9706 H         1 UNK         0.0600 
    202 H202        1.0977  -27.5463  -48.2776 H         1 UNK         0.0600 
    203 H203        0.3051  -26.1273  -48.9533 H         1 UNK         0.0600 
    204 H204        0.2100  -27.6673  -49.7886 H         1 UNK         0.0600 
    205 H205       -1.7721  -25.1497  -48.5359 H         1 UNK         0.3000 
    206 H206       -4.5560  -25.4894  -48.8421 H         1 UNK         0.0600 
    207 H207       -4.0524  -26.4597  -51.0929 H         1 UNK         0.0600 
    208 H208       -4.7787  -24.8808  -51.2699 H         1 UNK         0.0600 
    209 H209       -3.0411  -25.0737  -51.4886 H         1 UNK         0.0600 
    210 H210       -5.3821  -23.5597  -48.2374 H         1 UNK         0.3000 
    211 H211       -3.8042  -21.2718  -47.6718 H         1 UNK         0.0600 
    212 H212       -6.8411  -21.5860  -47.9118 H         1 UNK         0.0600 
    213 H213       -6.0123  -20.2208  -47.1733 H         1 UNK         0.0600 
    214 H214       -5.8821  -21.8157  -46.4485 H         1 UNK         0.0600 
    215 H215       -3.0612  -19.7268  -48.9453 H         1 UNK         0.3000 
    216 H216       -2.5330  -18.4906  -50.6988 H         1 UNK         0.0600 
    217 H217       -4.3685  -17.2984  -51.9021 H         1 UNK         0.0600 
    218 H218       -4.6043  -17.2974  -50.1644 H         1 UNK         0.0600 
    219 H219       -5.5498  -18.3835  -51.1738 H         1 UNK         0.0600 
    220 H220       -2.4868  -21.3686  -51.0550 H         1 UNK         0.3000 
    221 H221       -2.1580  -22.9919  -52.5079 H         1 UNK         0.0600 
    222 H222       -1.7228  -20.7657  -54.5688 H         1 UNK         0.0600 
    223 H223       -0.4928  -21.5371  -53.5735 H         1 UNK         0.0600 
    224 H224       -1.3170  -22.4596  -54.8118 H         1 UNK         0.0600 
    225 H225       -4.7702  -22.3672  -51.8647 H         1 UNK         0.3000 
    226 H226       -6.8738  -22.8837  -52.2482 H         1 UNK         0.0600 
    227 H227       -6.1064  -25.0123  -53.3428 H         1 UNK         0.0600 
    228 H228       -7.6014  -24.3993  -54.0288 H         1 UNK         0.0600 
    229 H229       -6.0945  -24.1972  -54.9054 H         1 UNK         0.0600 
    230 H230       -5.9761  -20.4263  -52.6394 H         1 UNK         0.3000 
    231 H231       -6.4361  -18.3877  -53.3103 H         1 UNK         0.0600 
    232 H232       -8.9271  -19.4814  -54.7082 H         1 UNK         0.0600 
    233 H233       -8.6416  -17.8200  -54.2144 H         1 UNK         0.0600 
    234 H234       -8.8268  -19.0691  -52.9962 H         1 UNK         0.0600 
    235 H235       -4.9611  -20.3346  -55.2266 H         1 UNK         0.3000 
    236 H236       -5.3560  -19.3924  -57.8810 H         1 UNK         0.0600 
    237 H237       -4.2830  -21.5625  -57.3789 H         1 UNK         0.0600 
    238 H238       -3.2055  -20.5646  -58.3422 H         1 UNK         0.0600 
    239 H239       -2.9192  -20.7444  -56.6167 H         1 UNK         0.0600 
    240 H240       -3.3595  -18.1289  -55.2268 H         1 UNK         0.3000 
    241 H241       -2.2223  -16.0477  -57.0076 H         1 UNK         0.0600 
    242 H242       -5.4430  -14.5812  -55.3020 H         1 UNK         0.3800 
    243 H243       -5.2488  -16.2622  -55.7238 H         1 UNK         0.3800 
    244 H244       -0.5959  -17.0833  -55.5732 H         1 UNK         0.0800 
    245 H245       -0.7647  -15.3988  -55.1850 H         1 UNK         0.0800 
    246 H246        0.1825  -18.4272  -53.6269 H         1 UNK         0.0800 
    247 H247        0.8469  -16.8644  -53.1971 H         1 UNK         0.0800 
@<TRIPOS>BOND
     1    1    2 1    
     2    1  127 1    
     3    1  128 1    
     4    1  129 1    
     5    2    3 2    
     6    2    4 am   BACKBONE|DICT|INTERRES
     7    4    5 1    
     8    4  130 1    
     9    5    6 1    
    10    5   65 1    
    11    5  131 1    
    12    6    7 1    
    13    6  132 1    
    14    6  133 1    
    15    7    8 1    
    16    8    9 1    
    17    8  134 1    
    18    8  135 1    
    19    9   10 ar   
    20    9   14 ar   
    21   10   11 ar   
    22   10  136 1    
    23   11   12 ar   
    24   11  126 1    
    25   12   13 ar   
    26   12  137 1    
    27   13   14 ar   
    28   13   15 1    
    29   14  138 1    
    30   15   16 1    
    31   15  139 1    
    32   15  140 1    
    33   16   17 1    
    34   17   18 1    
    35   17  141 1    
    36   17  142 1    
    37   18   19 1    
    38   18   67 1    
    39   18  143 1    
    40   19   20 am   BACKBONE|DICT|INTERRES
    41   19  144 1    
    42   20   21 2    
    43   20   22 1    
    44   22   23 1    
    45   22   24 1    
    46   22  145 1    
    47   23  146 1    
    48   23  147 1    
    49   23  148 1    
    50   24   25 am   BACKBONE|DICT|INTERRES
    51   24  149 1    
    52   25   26 2    
    53   25   27 1    
    54   27   28 1    
    55   27   29 1    
    56   27  150 1    
    57   28  151 1    
    58   28  152 1    
    59   28  153 1    
    60   29   30 am   BACKBONE|DICT|INTERRES
    61   29  154 1    
    62   30   31 2    
    63   30   32 1    
    64   32   33 1    
    65   32   34 1    
    66   32  155 1    
    67   33  156 1    
    68   33  157 1    
    69   33  158 1    
    70   34   35 am   BACKBONE|DICT|INTERRES
    71   34  159 1    
    72   35   36 2    
    73   35   37 1    
    74   37   38 1    
    75   37   39 1    
    76   37  160 1    
    77   38  161 1    
    78   38  162 1    
    79   38  163 1    
    80   39   40 am   BACKBONE|DICT|INTERRES
    81   39  164 1    
    82   40   41 2    
    83   40   42 1    
    84   42   43 1    
    85   42   44 1    
    86   42  165 1    
    87   43  166 1    
    88   43  167 1    
    89   43  168 1    
    90   44   45 am   BACKBONE|DICT|INTERRES
    91   44  169 1    
    92   45   46 2    
    93   45   47 1    
    94   47   48 1    
    95   47   49 1    
    96   47  170 1    
    97   48  171 1    
    98   48  172 1    
    99   48  173 1    
   100   49   50 am   BACKBONE|DICT|INTERRES
   101   49  174 1    
   102   50   51 2    
   103   50   52 1    
   104   52   53 1    
   105   52   54 1    
   106   52  175 1    
   107   53  176 1    
   108   53  177 1    
   109   53  178 1    
   110   54   55 am   BACKBONE|DICT|INTERRES
   111   54  179 1    
   112   55   56 2    
   113   55   57 1    
   114   57   58 1    
   115   57   59 1    
   116   57  180 1    
   117   58  181 1    
   118   58  182 1    
   119   58  183 1    
   120   59   60 am   BACKBONE|DICT|INTERRES
   121   59  184 1    
   122   60   61 2    
   123   60   62 1    
   124   62   63 1    
   125   62   64 1    
   126   62  185 1    
   127   63  186 1    
   128   63  187 1    
   129   63  188 1    
   130   64   65 am   BACKBONE|DICT|INTERRES
   131   64  189 1    
   132   65   66 2    
   133   67   68 2    
   134   67   69 am   BACKBONE|DICT|INTERRES
   135   69   70 1    
   136   69  190 1    
   137   70   71 1    
   138   70   72 1    
   139   70  191 1    
   140   71  192 1    
   141   71  193 1    
   142   71  194 1    
   143   72   73 2    
   144   72   74 am   BACKBONE|DICT|INTERRES
   145   74   75 1    
   146   74  195 1    
   147   75   76 1    
   148   75   77 1    
   149   75  196 1    
   150   76  197 1    
   151   76  198 1    
   152   76  199 1    
   153   77   78 2    
   154   77   79 am   BACKBONE|DICT|INTERRES
   155   79   80 1    
   156   79  200 1    
   157   80   81 1    
   158   80   82 1    
   159   80  201 1    
   160   81  202 1    
   161   81  203 1    
   162   81  204 1    
   163   82   83 2    
   164   82   84 am   BACKBONE|DICT|INTERRES
   165   84   85 1    
   166   84  205 1    
   167   85   86 1    
   168   85   87 1    
   169   85  206 1    
   170   86  207 1    
   171   86  208 1    
   172   86  209 1    
   173   87   88 2    
   174   87   89 am   BACKBONE|DICT|INTERRES
   175   89   90 1    
   176   89  210 1    
   177   90   91 1    
   178   90   92 1    
   179   90  211 1    
   180   91  212 1    
   181   91  213 1    
   182   91  214 1    
   183   92   93 2    
   184   92   94 am   BACKBONE|DICT|INTERRES
   185   94   95 1    
   186   94  215 1    
   187   95   96 1    
   188   95   97 1    
   189   95  216 1    
   190   96  217 1    
   191   96  218 1    
   192   96  219 1    
   193   97   98 2    
   194   97   99 am   BACKBONE|DICT|INTERRES
   195   99  100 1    
   196   99  220 1    
   197  100  101 1    
   198  100  102 1    
   199  100  221 1    
   200  101  222 1    
   201  101  223 1    
   202  101  224 1    
   203  102  103 2    
   204  102  104 am   BACKBONE|DICT|INTERRES
   205  104  105 1    
   206  104  225 1    
   207  105  106 1    
   208  105  107 1    
   209  105  226 1    
   210  106  227 1    
   211  106  228 1    
   212  106  229 1    
   213  107  108 2    
   214  107  109 am   BACKBONE|DICT|INTERRES
   215  109  110 1    
   216  109  230 1    
   217  110  111 1    
   218  110  112 1    
   219  110  231 1    
   220  111  232 1    
   221  111  233 1    
   222  111  234 1    
   223  112  113 2    
   224  112  114 am   BACKBONE|DICT|INTERRES
   225  114  115 1    
   226  114  235 1    
   227  115  116 1    
   228  115  117 1    
   229  115  236 1    
   230  116  237 1    
   231  116  238 1    
   232  116  239 1    
   233  117  118 2    
   234  117  119 am   BACKBONE|DICT|INTERRES
   235  119  120 1    
   236  119  240 1    
   237  120  121 1    
   238  120  124 1    
   239  120  241 1    
   240  121  122 am   BACKBONE|DICT|INTERRES
   241  121  123 2    
   242  122  242 1    
   243  122  243 1    
   244  124  125 1    
   245  124  244 1    
   246  124  245 1    
   247  125  126 1    
   248  126  246 1    
   249  126  247 1    
@<TRIPOS>SUBSTRUCTURE
     1 UNK         1 GROUP             0       ****    0 ROOT    
