@<TRIPOS>MOLECULE
3R540
247   249    1
SMALL
USER_CHARGES


@<TRIPOS>ATOM
      1 CA          0.5430  -12.5030  -42.7671 C.3       0 UNK        -0.1800 
      2 C           0.3129  -11.7771  -44.0858 C.2       0 UNK         0.5000 
      3 O           0.3992  -10.5494  -44.1303 O.2       0 UNK        -0.5000 
      4 N           0.0252  -12.5266  -45.1539 N.am      1 UNK        -0.5000 
      5 CA         -0.1209  -12.0190  -46.5183 C.3       1 UNK         0.1400 
      6 C6         -1.1356  -12.8487  -47.3434 C.3       23 UNK        -0.0398 
      7 S7         -2.8516  -12.6350  -46.7586 S.3       23 UNK        -0.2404 
      8 C8         -3.1406  -14.1727  -45.8299 C.3       23 UNK        -0.0205 
      9 C9         -3.3281  -15.3779  -46.7396 C.ar      23 UNK        -0.0193 
     10 C10        -4.5641  -15.6315  -47.3404 C.ar      23 UNK        -0.1150 
     11 C11        -4.7402  -16.7573  -48.1526 C.ar      23 UNK        -0.0193 
     12 C12        -3.6751  -17.6429  -48.3454 C.ar      23 UNK        -0.1150 
     13 C13        -2.4345  -17.3914  -47.7580 C.ar      23 UNK        -0.0193 
     14 C14        -2.2688  -16.2576  -46.9637 C.ar      23 UNK        -0.1150 
     15 C15        -1.2607  -18.3256  -47.9861 C.3       23 UNK        -0.0205 
     16 S16        -0.8542  -19.2634  -46.4814 S.3       23 UNK        -0.2404 
     17 C17        -2.2554  -20.4196  -46.3521 C.3       23 UNK        -0.0398 
     18 CA         -1.7817  -21.8387  -45.9597 C.3       11 UNK         0.1400 
     19 N          -1.1899  -21.8871  -44.6131 N.am      11 UNK        -0.5000 
     20 C          -0.5197  -22.9375  -44.1139 C.2       10 UNK         0.5000 
     21 O          -0.4628  -24.0242  -44.6855 O.2       10 UNK        -0.5000 
     22 CA          0.2254  -22.7729  -42.7781 C.3       10 UNK         0.1400 
     23 CB          1.7391  -22.9633  -42.9655 C.3       10 UNK        -0.1800 
     24 N          -0.0122  -21.4771  -42.1449 N.am      10 UNK        -0.5000 
     25 C          -0.9596  -21.2609  -41.2246 C.2       9 UNK         0.5000 
     26 O          -1.7526  -22.1213  -40.8403 O.2       9 UNK        -0.5000 
     27 CA         -1.0401  -19.8426  -40.6358 C.3       9 UNK         0.1400 
     28 CB         -0.0898  -19.7044  -39.4366 C.3       9 UNK        -0.1800 
     29 N          -0.7528  -18.7774  -41.5982 N.am      9 UNK        -0.5000 
     30 C          -1.5041  -18.4936  -42.6711 C.2       8 UNK         0.5000 
     31 O          -2.4386  -19.1916  -43.0634 O.2       8 UNK        -0.5000 
     32 CA         -1.1402  -17.2085  -43.4194 C.3       8 UNK         0.1400 
     33 CB         -1.4733  -15.9766  -42.5491 C.3       8 UNK        -0.1800 
     34 N           0.2713  -17.2504  -43.7948 N.am      8 UNK        -0.5000 
     35 C           0.9203  -16.3462  -44.5314 C.2       7 UNK         0.5000 
     36 O           0.4083  -15.3094  -44.9507 O.2       7 UNK        -0.5000 
     37 CA          2.3963  -16.6297  -44.8529 C.3       7 UNK         0.1400 
     38 CB          3.2858  -16.4028  -43.6161 C.3       7 UNK        -0.1800 
     39 N           2.6701  -17.9309  -45.4738 N.am      7 UNK        -0.5000 
     40 C           2.5662  -19.1690  -44.9632 C.2       6 UNK         0.5000 
     41 O           2.0503  -19.4213  -43.8708 O.2       6 UNK        -0.5000 
     42 CA          3.1626  -20.3284  -45.8002 C.3       6 UNK         0.1400 
     43 CB          2.0681  -21.2195  -46.4033 C.3       6 UNK        -0.1800 
     44 N           4.0304  -19.8934  -46.8937 N.am      6 UNK        -0.5000 
     45 C           5.2250  -19.3007  -46.7719 C.2       5 UNK         0.5000 
     46 O           5.8129  -19.1601  -45.6993 O.2       5 UNK        -0.5000 
     47 CA          5.8513  -18.7404  -48.0674 C.3       5 UNK         0.1400 
     48 CB          7.0045  -19.6399  -48.5386 C.3       5 UNK        -0.1800 
     49 N           4.9041  -18.5634  -49.1785 N.am      5 UNK        -0.5000 
     50 C           3.8399  -17.7477  -49.1771 C.2       4 UNK         0.5000 
     51 O           3.4919  -17.0796  -48.2003 O.2       4 UNK        -0.5000 
     52 CA          2.9894  -17.7397  -50.4630 C.3       4 UNK         0.1400 
     53 CB          1.9560  -18.8777  -50.4207 C.3       4 UNK        -0.1800 
     54 N           2.2874  -16.4717  -50.6694 N.am      4 UNK        -0.5000 
     55 C           2.8831  -15.2887  -50.8748 C.2       3 UNK         0.5000 
     56 O           4.1048  -15.1475  -50.9626 O.2       3 UNK        -0.5000 
     57 CA          1.9823  -14.0516  -51.0234 C.3       3 UNK         0.1400 
     58 CB          0.4711  -14.3377  -50.9310 C.3       3 UNK        -0.1800 
     59 N           2.3401  -13.0847  -49.9937 N.am      3 UNK        -0.5000 
     60 C           2.4815  -11.7683  -50.1733 C.2       2 UNK         0.5000 
     61 O           2.3793  -11.2096  -51.2672 O.2       2 UNK        -0.5000 
     62 CA          2.7106  -10.9398  -48.8919 C.3       2 UNK         0.1400 
     63 CB          3.0107   -9.4582  -49.1832 C.3       2 UNK        -0.1800 
     64 N           1.5341  -11.0214  -48.0236 N.am      2 UNK        -0.5000 
     65 C           1.2567  -12.0420  -47.2032 C.2       1 UNK         0.5000 
     66 O           2.0180  -12.9978  -47.0291 O.2       1 UNK        -0.5000 
     67 C          -2.9042  -22.8702  -46.1890 C.2       11 UNK         0.5000 
     68 O          -3.1038  -23.2873  -47.3309 O.2       11 UNK        -0.5000 
     69 N          -3.5960  -23.2824  -45.1194 N.am      12 UNK        -0.5000 
     70 CA         -4.5976  -24.3480  -45.1582 C.3       12 UNK         0.1400 
     71 CB         -5.4891  -24.2483  -43.9116 C.3       12 UNK        -0.1800 
     72 C          -3.9620  -25.7485  -45.2610 C.2       12 UNK         0.5000 
     73 O          -4.5075  -26.6121  -45.9474 O.2       12 UNK        -0.5000 
     74 N          -2.8192  -25.9448  -44.5886 N.am      13 UNK        -0.5000 
     75 CA         -2.0719  -27.2039  -44.5600 C.3       13 UNK         0.1400 
     76 CB         -1.1919  -27.2426  -43.3006 C.3       13 UNK        -0.1800 
     77 C          -1.2190  -27.3939  -45.8253 C.2       13 UNK         0.5000 
     78 O          -1.1619  -28.4982  -46.3665 O.2       13 UNK        -0.5000 
     79 N          -0.5955  -26.3021  -46.2872 N.am      14 UNK        -0.5000 
     80 CA          0.2031  -26.2312  -47.5118 C.3       14 UNK         0.1400 
     81 CB          1.0569  -24.9528  -47.4623 C.3       14 UNK        -0.1800 
     82 C          -0.6493  -26.2511  -48.7963 C.2       14 UNK         0.5000 
     83 O          -0.0961  -26.4356  -49.8803 O.2       14 UNK        -0.5000 
     84 N          -1.9648  -26.0285  -48.6507 N.am      15 UNK        -0.5000 
     85 CA         -2.9850  -25.9126  -49.6985 C.3       15 UNK         0.1400 
     86 CB         -3.0889  -27.2038  -50.5356 C.3       15 UNK        -0.1800 
     87 C          -2.8318  -24.6484  -50.5693 C.2       15 UNK         0.5000 
     88 O          -3.4509  -24.5563  -51.6287 O.2       15 UNK        -0.5000 
     89 N          -2.0631  -23.6643  -50.0849 N.am      16 UNK        -0.5000 
     90 CA         -1.8926  -22.3484  -50.6973 C.3       16 UNK         0.1400 
     91 CB         -0.7612  -21.5995  -49.9779 C.3       16 UNK        -0.1800 
     92 C          -3.1967  -21.5302  -50.6865 C.2       16 UNK         0.5000 
     93 O          -3.4636  -20.8049  -51.6429 O.2       16 UNK        -0.5000 
     94 N          -4.0126  -21.7024  -49.6359 N.am      17 UNK        -0.5000 
     95 CA         -5.3498  -21.1164  -49.5330 C.3       17 UNK         0.1400 
     96 CB         -5.8514  -21.2328  -48.0859 C.3       17 UNK        -0.1800 
     97 C          -6.3496  -21.7535  -50.5160 C.2       17 UNK         0.5000 
     98 O          -7.1844  -21.0422  -51.0735 O.2       17 UNK        -0.5000 
     99 N          -6.2250  -23.0697  -50.7428 N.am      18 UNK        -0.5000 
    100 CA        -7.0291  -23.8236  -51.7094 C.3       18 UNK         0.1400 
    101 CB        -6.8968  -25.3283  -51.4295 C.3       18 UNK        -0.1800 
    102 C         -6.6455  -23.4949  -53.1646 C.2       18 UNK         0.5000 
    103 O         -7.5249  -23.3961  -54.0205 O.2       18 UNK        -0.5000 
    104 N         -5.3440  -23.2835  -53.4048 N.am      19 UNK        -0.5000 
    105 CA        -4.7789  -22.8059  -54.6697 C.3       19 UNK         0.1400 
    106 CB        -3.2640  -23.0643  -54.6584 C.3       19 UNK        -0.1800 
    107 C         -5.0649  -21.3145  -54.9501 C.2       19 UNK         0.5000 
    108 O         -4.8247  -20.8587  -56.0687 O.2       19 UNK        -0.5000 
    109 N         -5.5594  -20.5896  -53.9360 N.am      20 UNK        -0.5000 
    110 CA        -5.8801  -19.1614  -53.9190 C.3       20 UNK         0.1400 
    111 CB        -7.0107  -18.8293  -54.9148 C.3       20 UNK        -0.1800 
    112 C         -4.6390  -18.2606  -54.0816 C.2       20 UNK         0.5000 
    113 O         -4.7295  -17.1775  -54.6636 O.2       20 UNK        -0.5000 
    114 N         -3.5029  -18.6932  -53.5184 N.am      21 UNK        -0.5000 
    115 CA        -2.2559  -17.9332  -53.4218 C.3       21 UNK         0.1400 
    116 CB        -1.0757  -18.9176  -53.3478 C.3       21 UNK        -0.1800 
    117 C         -2.3112  -16.9680  -52.2192 C.2       21 UNK         0.5000 
    118 O         -1.4767  -17.0432  -51.3155 O.2       21 UNK        -0.5000 
    119 N         -3.3325  -16.1057  -52.2297 N.am      22 UNK        -0.5000 
    120 CA        -3.7083  -15.1904  -51.1420 C.3       22 UNK         0.1400 
    121 C         -3.2044  -13.7337  -51.3529 C.2       22 UNK         0.5000 
    122 N         -2.5583  -13.4066  -52.4661 N.am      22 UNK        -0.7600 
    123 O         -3.3984  -12.8815  -50.4919 O.2       22 UNK        -0.5000 
    124 C124       -5.2441  -15.2123  -50.8964 C.3       23 UNK        -0.0398 
    125 S125       -5.9264  -16.8952  -50.6578 S.3       23 UNK        -0.2404 
    126 C126       -6.0718  -17.0011  -48.8451 C.3       23 UNK        -0.0205 
    127 H127        1.4644  -12.1538  -42.3012 H         1 UNK         0.0600 
    128 H128        0.6253  -13.5806  -42.9047 H         1 UNK         0.0600 
    129 H129       -0.2825  -12.3083  -42.0826 H         1 UNK         0.0600 
    130 H130        0.0664  -13.5422  -45.0738 H         1 UNK         0.3000 
    131 H131       -0.4732  -10.9856  -46.4869 H         1 UNK         0.0600 
    132 H132       -1.1232  -12.5385  -48.3904 H         1 UNK         0.0800 
    133 H133       -0.8605  -13.9033  -47.3442 H         1 UNK         0.0800 
    134 H134       -2.3118  -14.3378  -45.1414 H         1 UNK         0.0800 
    135 H135       -4.0294  -14.0472  -45.2101 H         1 UNK         0.0800 
    136 H136       -5.3836  -14.9448  -47.1818 H         1 UNK         0.1150 
    137 H137       -3.8013  -18.5073  -48.9800 H         1 UNK         0.1150 
    138 H138       -1.3081  -16.0714  -46.5133 H         1 UNK         0.1150 
    139 H139       -0.3933  -17.7307  -48.2741 H         1 UNK         0.0800 
    140 H140       -1.4572  -19.0028  -48.8171 H         1 UNK         0.0800 
    141 H141       -2.7710  -20.4375  -47.3132 H         1 UNK         0.0800 
    142 H142       -2.9719  -20.0298  -45.6274 H         1 UNK         0.0800 
    143 H143       -0.9862  -22.1214  -46.6516 H         1 UNK         0.0600 
    144 H144       -1.2280  -21.0313  -44.0763 H         1 UNK         0.3000 
    145 H145       -0.1235  -23.5768  -42.1265 H         1 UNK         0.0600 
    146 H146        1.9622  -23.9094  -43.4608 H         1 UNK         0.0600 
    147 H147        2.2523  -22.9746  -42.0039 H         1 UNK         0.0600 
    148 H148        2.1782  -22.1669  -43.5638 H         1 UNK         0.0600 
    149 H149        0.5940  -20.7148  -42.4206 H         1 UNK         0.3000 
    150 H150       -2.0613  -19.6966  -40.2772 H         1 UNK         0.0600 
    151 H151        0.9543  -19.8029  -39.7369 H         1 UNK         0.0600 
    152 H152       -0.2900  -20.4725  -38.6882 H         1 UNK         0.0600 
    153 H153       -0.2093  -18.7377  -38.9471 H         1 UNK         0.0600 
    154 H154        0.0008  -18.1492  -41.3598 H         1 UNK         0.3000 
    155 H155       -1.7407  -17.1720  -44.3291 H         1 UNK         0.0600 
    156 H156       -0.8117  -15.8994  -41.6858 H         1 UNK         0.0600 
    157 H157       -2.4968  -16.0280  -42.1757 H         1 UNK         0.0600 
    158 H158       -1.3918  -15.0474  -43.1097 H         1 UNK         0.0600 
    159 H159        0.7750  -18.1070  -43.5749 H         1 UNK         0.3000 
    160 H160        2.6923  -15.8911  -45.6003 H         1 UNK         0.0600 
    161 H161        3.0647  -17.1107  -42.8169 H         1 UNK         0.0600 
    162 H162        3.1411  -15.3998  -43.2125 H         1 UNK         0.0600 
    163 H163        4.3414  -16.5027  -43.8690 H         1 UNK         0.0600 
    164 H164        3.0451  -17.8516  -46.4141 H         1 UNK         0.3000 
    165 H165        3.7577  -20.9347  -45.1146 H         1 UNK         0.0600 
    166 H166        2.4830  -22.1576  -46.7721 H         1 UNK         0.0600 
    167 H167        1.3142  -21.4690  -45.6624 H         1 UNK         0.0600 
    168 H168        1.5602  -20.7307  -47.2348 H         1 UNK         0.0600 
    169 H169        3.6454  -19.9687  -47.8228 H         1 UNK         0.3000 
    170 H170        6.2608  -17.7577  -47.8247 H         1 UNK         0.0600 
    171 H171        7.5175  -19.2077  -49.3980 H         1 UNK         0.0600 
    172 H172        6.6504  -20.6321  -48.8212 H         1 UNK         0.0600 
    173 H173        7.7481  -19.7690  -47.7509 H         1 UNK         0.0600 
    174 H174        5.1064  -19.0921  -50.0152 H         1 UNK         0.3000 
    175 H175        3.6494  -17.8972  -51.3184 H         1 UNK         0.0600 
    176 H176        2.4437  -19.8508  -50.3534 H         1 UNK         0.0600 
    177 H177        1.2915  -18.7867  -49.5618 H         1 UNK         0.0600 
    178 H178        1.3401  -18.8878  -51.3198 H         1 UNK         0.0600 
    179 H179        1.2798  -16.5000  -50.6002 H         1 UNK         0.3000 
    180 H180        2.1911  -13.6401  -52.0129 H         1 UNK         0.0600 
    181 H181       -0.1013  -13.4146  -51.0183 H         1 UNK         0.0600 
    182 H182        0.1932  -14.8044  -49.9849 H         1 UNK         0.0600 
    183 H183        0.1476  -14.9895  -51.7423 H         1 UNK         0.0600 
    184 H184        2.4506  -13.4526  -49.0546 H         1 UNK         0.3000 
    185 H185        3.5766  -11.3591  -48.3751 H         1 UNK         0.0600 
    186 H186        3.8901   -9.3563  -49.8205 H         1 UNK         0.0600 
    187 H187        2.1784   -8.9675  -49.6893 H         1 UNK         0.0600 
    188 H188        3.2129   -8.9099  -48.2630 H         1 UNK         0.0600 
    189 H189        0.8501  -10.2873  -48.1400 H         1 UNK         0.3000 
    190 H190       -3.3804  -22.8819  -44.2179 H         1 UNK         0.3000 
    191 H191       -5.2292  -24.2031  -46.0376 H         1 UNK         0.0600 
    192 H192       -5.9972  -23.2848  -43.8675 H         1 UNK         0.0600 
    193 H193       -6.2591  -25.0209  -43.9198 H         1 UNK         0.0600 
    194 H194       -4.9139  -24.3672  -42.9925 H         1 UNK         0.0600 
    195 H195       -2.3972  -25.1623  -44.1096 H         1 UNK         0.3000 
    196 H196       -2.7801  -28.0335  -44.5034 H         1 UNK         0.0600 
    197 H197       -0.6391  -28.1809  -43.2405 H         1 UNK         0.0600 
    198 H198       -1.7953  -27.1629  -42.3963 H         1 UNK         0.0600 
    199 H199       -0.4627  -26.4315  -43.2895 H         1 UNK         0.0600 
    200 H200       -0.6469  -25.4467  -45.7354 H         1 UNK         0.3000 
    201 H201        0.8709  -27.0945  -47.5424 H         1 UNK         0.0600 
    202 H202        1.7088  -24.8806  -48.3338 H         1 UNK         0.0600 
    203 H203        1.6945  -24.9378  -46.5780 H         1 UNK         0.0600 
    204 H204        0.4374  -24.0556  -47.4406 H         1 UNK         0.0600 
    205 H205       -2.2984  -25.8718  -47.7099 H         1 UNK         0.3000 
    206 H206       -3.9320  -25.7917  -49.1707 H         1 UNK         0.0600 
    207 H207       -3.1921  -28.0805  -49.8963 H         1 UNK         0.0600 
    208 H208       -3.9601  -27.1776  -51.1905 H         1 UNK         0.0600 
    209 H209       -2.2144  -27.3501  -51.1697 H         1 UNK         0.0600 
    210 H210       -1.6536  -23.8011  -49.1728 H         1 UNK         0.3000 
    211 H211       -1.5979  -22.4940  -51.7381 H         1 UNK         0.0600 
    212 H212       -0.9871  -21.4430  -48.9244 H         1 UNK         0.0600 
    213 H213       -0.5913  -20.6209  -50.4263 H         1 UNK         0.0600 
    214 H214        0.1778  -22.1499  -50.0395 H         1 UNK         0.0600 
    215 H215       -3.7231  -22.3301  -48.8913 H         1 UNK         0.3000 
    216 H216       -5.2828  -20.0569  -49.7860 H         1 UNK         0.0600 
    217 H217       -5.8866  -22.2707  -47.7530 H         1 UNK         0.0600 
    218 H218       -6.8564  -20.8207  -47.9868 H         1 UNK         0.0600 
    219 H219       -5.2094  -20.6812  -47.3998 H         1 UNK         0.0600 
    220 H220       -5.4916  -23.5744  -50.2698 H         1 UNK         0.3000 
    221 H221       -8.0765  -23.5468  -51.5708 H         1 UNK         0.0600 
    222 H222       -5.8750  -25.6792  -51.5700 H         1 UNK         0.0600 
    223 H223       -7.1982  -25.5691  -50.4099 H         1 UNK         0.0600 
    224 H224       -7.5339  -25.9048  -52.1012 H         1 UNK         0.0600 
    225 H225       -4.6780  -23.4829  -52.6638 H         1 UNK         0.3000 
    226 H226       -5.2208  -23.3844  -55.4834 H         1 UNK         0.0600 
    227 H227       -3.0431  -24.1183  -54.4884 H         1 UNK         0.0600 
    228 H228       -2.8114  -22.7866  -55.6110 H         1 UNK         0.0600 
    229 H229       -2.7664  -22.4871  -53.8789 H         1 UNK         0.0600 
    230 H230       -5.6884  -21.0660  -53.0543 H         1 UNK         0.3000 
    231 H231       -6.2631  -18.9598  -52.9180 H         1 UNK         0.0600 
    232 H232       -6.6848  -18.9320  -55.9501 H         1 UNK         0.0600 
    233 H233       -7.3570  -17.8037  -54.7826 H         1 UNK         0.0600 
    234 H234       -7.8706  -19.4824  -54.7659 H         1 UNK         0.0600 
    235 H235       -3.5338  -19.5542  -52.9751 H         1 UNK         0.3000 
    236 H236       -2.1288  -17.3300  -54.3229 H         1 UNK         0.0600 
    237 H237       -1.1286  -19.5416  -52.4564 H         1 UNK         0.0600 
    238 H238       -1.0575  -19.5767  -54.2159 H         1 UNK         0.0600 
    239 H239       -0.1245  -18.3850  -53.3228 H         1 UNK         0.0600 
    240 H240       -3.9663  -16.1407  -53.0195 H         1 UNK         0.3000 
    241 H241       -3.2237  -15.5267  -50.2246 H         1 UNK         0.0600 
    242 H242       -2.2407  -12.4592  -52.5945 H         1 UNK         0.3800 
    243 H243       -2.3912  -14.0948  -53.1818 H         1 UNK         0.3800 
    244 H244       -5.7641  -14.7671  -51.7462 H         1 UNK         0.0800 
    245 H245       -5.5029  -14.5977  -50.0325 H         1 UNK         0.0800 
    246 H246       -6.8249  -16.2882  -48.5060 H         1 UNK         0.0800 
    247 H247       -6.4409  -17.9912  -48.5748 H         1 UNK         0.0800 
@<TRIPOS>BOND
     1    1    2 1    
     2    1  127 1    
     3    1  128 1    
     4    1  129 1    
     5    2    3 2    
     6    2    4 am   BACKBONE|DICT|INTERRES
     7    4    5 1    
     8    4  130 1    
     9    5    6 1    
    10    5   65 1    
    11    5  131 1    
    12    6    7 1    
    13    6  132 1    
    14    6  133 1    
    15    7    8 1    
    16    8    9 1    
    17    8  134 1    
    18    8  135 1    
    19    9   10 ar   
    20    9   14 ar   
    21   10   11 ar   
    22   10  136 1    
    23   11   12 ar   
    24   11  126 1    
    25   12   13 ar   
    26   12  137 1    
    27   13   14 ar   
    28   13   15 1    
    29   14  138 1    
    30   15   16 1    
    31   15  139 1    
    32   15  140 1    
    33   16   17 1    
    34   17   18 1    
    35   17  141 1    
    36   17  142 1    
    37   18   19 1    
    38   18   67 1    
    39   18  143 1    
    40   19   20 am   BACKBONE|DICT|INTERRES
    41   19  144 1    
    42   20   21 2    
    43   20   22 1    
    44   22   23 1    
    45   22   24 1    
    46   22  145 1    
    47   23  146 1    
    48   23  147 1    
    49   23  148 1    
    50   24   25 am   BACKBONE|DICT|INTERRES
    51   24  149 1    
    52   25   26 2    
    53   25   27 1    
    54   27   28 1    
    55   27   29 1    
    56   27  150 1    
    57   28  151 1    
    58   28  152 1    
    59   28  153 1    
    60   29   30 am   BACKBONE|DICT|INTERRES
    61   29  154 1    
    62   30   31 2    
    63   30   32 1    
    64   32   33 1    
    65   32   34 1    
    66   32  155 1    
    67   33  156 1    
    68   33  157 1    
    69   33  158 1    
    70   34   35 am   BACKBONE|DICT|INTERRES
    71   34  159 1    
    72   35   36 2    
    73   35   37 1    
    74   37   38 1    
    75   37   39 1    
    76   37  160 1    
    77   38  161 1    
    78   38  162 1    
    79   38  163 1    
    80   39   40 am   BACKBONE|DICT|INTERRES
    81   39  164 1    
    82   40   41 2    
    83   40   42 1    
    84   42   43 1    
    85   42   44 1    
    86   42  165 1    
    87   43  166 1    
    88   43  167 1    
    89   43  168 1    
    90   44   45 am   BACKBONE|DICT|INTERRES
    91   44  169 1    
    92   45   46 2    
    93   45   47 1    
    94   47   48 1    
    95   47   49 1    
    96   47  170 1    
    97   48  171 1    
    98   48  172 1    
    99   48  173 1    
   100   49   50 am   BACKBONE|DICT|INTERRES
   101   49  174 1    
   102   50   51 2    
   103   50   52 1    
   104   52   53 1    
   105   52   54 1    
   106   52  175 1    
   107   53  176 1    
   108   53  177 1    
   109   53  178 1    
   110   54   55 am   BACKBONE|DICT|INTERRES
   111   54  179 1    
   112   55   56 2    
   113   55   57 1    
   114   57   58 1    
   115   57   59 1    
   116   57  180 1    
   117   58  181 1    
   118   58  182 1    
   119   58  183 1    
   120   59   60 am   BACKBONE|DICT|INTERRES
   121   59  184 1    
   122   60   61 2    
   123   60   62 1    
   124   62   63 1    
   125   62   64 1    
   126   62  185 1    
   127   63  186 1    
   128   63  187 1    
   129   63  188 1    
   130   64   65 am   BACKBONE|DICT|INTERRES
   131   64  189 1    
   132   65   66 2    
   133   67   68 2    
   134   67   69 am   BACKBONE|DICT|INTERRES
   135   69   70 1    
   136   69  190 1    
   137   70   71 1    
   138   70   72 1    
   139   70  191 1    
   140   71  192 1    
   141   71  193 1    
   142   71  194 1    
   143   72   73 2    
   144   72   74 am   BACKBONE|DICT|INTERRES
   145   74   75 1    
   146   74  195 1    
   147   75   76 1    
   148   75   77 1    
   149   75  196 1    
   150   76  197 1    
   151   76  198 1    
   152   76  199 1    
   153   77   78 2    
   154   77   79 am   BACKBONE|DICT|INTERRES
   155   79   80 1    
   156   79  200 1    
   157   80   81 1    
   158   80   82 1    
   159   80  201 1    
   160   81  202 1    
   161   81  203 1    
   162   81  204 1    
   163   82   83 2    
   164   82   84 am   BACKBONE|DICT|INTERRES
   165   84   85 1    
   166   84  205 1    
   167   85   86 1    
   168   85   87 1    
   169   85  206 1    
   170   86  207 1    
   171   86  208 1    
   172   86  209 1    
   173   87   88 2    
   174   87   89 am   BACKBONE|DICT|INTERRES
   175   89   90 1    
   176   89  210 1    
   177   90   91 1    
   178   90   92 1    
   179   90  211 1    
   180   91  212 1    
   181   91  213 1    
   182   91  214 1    
   183   92   93 2    
   184   92   94 am   BACKBONE|DICT|INTERRES
   185   94   95 1    
   186   94  215 1    
   187   95   96 1    
   188   95   97 1    
   189   95  216 1    
   190   96  217 1    
   191   96  218 1    
   192   96  219 1    
   193   97   98 2    
   194   97   99 am   BACKBONE|DICT|INTERRES
   195   99  100 1    
   196   99  220 1    
   197  100  101 1    
   198  100  102 1    
   199  100  221 1    
   200  101  222 1    
   201  101  223 1    
   202  101  224 1    
   203  102  103 2    
   204  102  104 am   BACKBONE|DICT|INTERRES
   205  104  105 1    
   206  104  225 1    
   207  105  106 1    
   208  105  107 1    
   209  105  226 1    
   210  106  227 1    
   211  106  228 1    
   212  106  229 1    
   213  107  108 2    
   214  107  109 am   BACKBONE|DICT|INTERRES
   215  109  110 1    
   216  109  230 1    
   217  110  111 1    
   218  110  112 1    
   219  110  231 1    
   220  111  232 1    
   221  111  233 1    
   222  111  234 1    
   223  112  113 2    
   224  112  114 am   BACKBONE|DICT|INTERRES
   225  114  115 1    
   226  114  235 1    
   227  115  116 1    
   228  115  117 1    
   229  115  236 1    
   230  116  237 1    
   231  116  238 1    
   232  116  239 1    
   233  117  118 2    
   234  117  119 am   BACKBONE|DICT|INTERRES
   235  119  120 1    
   236  119  240 1    
   237  120  121 1    
   238  120  124 1    
   239  120  241 1    
   240  121  122 am   BACKBONE|DICT|INTERRES
   241  121  123 2    
   242  122  242 1    
   243  122  243 1    
   244  124  125 1    
   245  124  244 1    
   246  124  245 1    
   247  125  126 1    
   248  126  246 1    
   249  126  247 1    
@<TRIPOS>SUBSTRUCTURE
     1 UNK         1 GROUP             0       ****    0 ROOT    
