@<TRIPOS>MOLECULE
3R540
247   249    1
SMALL
USER_CHARGES


@<TRIPOS>ATOM
      1 CA          6.0426  -10.6401  -48.5521 C.3       0 UNK        -0.1800 
      2 C           5.2997  -11.8351  -49.1330 C.2       0 UNK         0.5000 
      3 O           5.1365  -11.9185  -50.3501 O.2       0 UNK        -0.5000 
      4 N           4.8549  -12.7550  -48.2657 N.am      1 UNK        -0.5000 
      5 CA          4.0996  -13.9695  -48.6006 C.3       1 UNK         0.1400 
      6 C6          4.9271  -14.9889  -49.4303 C.3       23 UNK        -0.0398 
      7 S7          4.3524  -16.7072  -49.1955 S.3       23 UNK        -0.2404 
      8 C8          4.0320  -17.1931  -50.9220 C.3       23 UNK        -0.0205 
      9 C9          3.3315  -18.5412  -51.0429 C.ar      23 UNK        -0.0193 
     10 C10         2.1751  -18.6581  -51.8196 C.ar      23 UNK        -0.1150 
     11 C11         1.5519  -19.8976  -51.9859 C.ar      23 UNK        -0.0193 
     12 C12         2.0712  -21.0225  -51.3407 C.ar      23 UNK        -0.1150 
     13 C13         3.2249  -20.9235  -50.5582 C.ar      23 UNK        -0.0193 
     14 C14         3.8589  -19.6819  -50.4287 C.ar      23 UNK        -0.1150 
     15 C15         3.8016  -22.1752  -49.9056 C.3       23 UNK        -0.0205 
     16 S16         4.3247  -21.9272  -48.1779 S.3       23 UNK        -0.2404 
     17 C17         2.7374  -21.6327  -47.3318 C.3       23 UNK        -0.0398 
     18 CA          2.2519  -22.8949  -46.5715 C.3       11 UNK         0.1400 
     19 N           1.8211  -22.5826  -45.2091 N.am      11 UNK        -0.5000 
     20 C           1.6489  -23.4898  -44.2374 C.2       10 UNK         0.5000 
     21 O           1.9264  -24.6841  -44.3659 O.2       10 UNK        -0.5000 
     22 CA          1.0650  -22.9690  -42.9088 C.3       10 UNK         0.1400 
     23 CB          1.2117  -23.9656  -41.7403 C.3       10 UNK        -0.1800 
     24 N           1.5813  -21.6492  -42.5449 N.am      10 UNK        -0.5000 
     25 C           2.8475  -21.3065  -42.2649 C.2       9 UNK         0.5000 
     26 O           3.7849  -22.1049  -42.2342 O.2       9 UNK        -0.5000 
     27 CA          3.1254  -19.8147  -41.9817 C.3       9 UNK         0.1400 
     28 CB          3.9699  -19.2065  -43.1131 C.3       9 UNK        -0.1800 
     29 N           1.9095  -19.0136  -41.8179 N.am      9 UNK        -0.5000 
     30 C           1.0965  -19.0504  -40.7534 C.2       8 UNK         0.5000 
     31 O           1.3294  -19.7064  -39.7378 O.2       8 UNK        -0.5000 
     32 CA         -0.2203  -18.2580  -40.8621 C.3       8 UNK         0.1400 
     33 CB         -0.0095  -16.7984  -40.4327 C.3       8 UNK        -0.1800 
     34 N          -0.8078  -18.2992  -42.2058 N.am      8 UNK        -0.5000 
     35 C          -1.2768  -19.4066  -42.8013 C.2       7 UNK         0.5000 
     36 O          -1.2860  -20.5144  -42.2659 O.2       7 UNK        -0.5000 
     37 CA         -1.7707  -19.2729  -44.2540 C.3       7 UNK         0.1400 
     38 CB         -3.1925  -18.6963  -44.3072 C.3       7 UNK        -0.1800 
     39 N          -0.8739  -18.4611  -45.0755 N.am      7 UNK        -0.5000 
     40 C           0.3757  -18.8215  -45.4038 C.2       6 UNK         0.5000 
     41 O           0.8809  -19.8987  -45.0876 O.2       6 UNK        -0.5000 
     42 CA          1.2169  -17.7909  -46.1766 C.3       6 UNK         0.1400 
     43 CB          0.8922  -17.8261  -47.6773 C.3       6 UNK        -0.1800 
     44 N           1.0273  -16.4333  -45.6704 N.am      6 UNK        -0.5000 
     45 C           1.3549  -16.0204  -44.4392 C.2       5 UNK         0.5000 
     46 O           1.8928  -16.7364  -43.5966 O.2       5 UNK        -0.5000 
     47 CA          0.9688  -14.5789  -44.0717 C.3       5 UNK         0.1400 
     48 CB          1.9631  -13.5719  -44.6703 C.3       5 UNK        -0.1800 
     49 N          -0.3908  -14.2483  -44.4994 N.am      5 UNK        -0.5000 
     50 C          -1.5013  -14.7847  -43.9745 C.2       4 UNK         0.5000 
     51 O          -1.4963  -15.6178  -43.0699 O.2       4 UNK        -0.5000 
     52 CA         -2.8431  -14.3333  -44.5763 C.3       4 UNK         0.1400 
     53 CB         -3.3172  -13.0274  -43.9215 C.3       4 UNK        -0.1800 
     54 N          -2.7808  -14.1534  -46.0261 N.am      4 UNK        -0.5000 
     55 C          -2.6422  -15.1557  -46.9045 C.2       3 UNK         0.5000 
     56 O          -2.5450  -16.3413  -46.5859 O.2       3 UNK        -0.5000 
     57 CA         -2.5517  -14.7445  -48.3871 C.3       3 UNK         0.1400 
     58 CB         -3.9301  -14.2902  -48.8930 C.3       3 UNK        -0.1800 
     59 N          -1.5751  -13.6807  -48.6590 N.am      3 UNK        -0.5000 
     60 C          -0.2941  -13.6767  -48.2661 C.2       2 UNK         0.5000 
     61 O           0.2014  -14.5497  -47.5523 O.2       2 UNK        -0.5000 
     62 CA          0.5661  -12.4733  -48.7035 C.3       2 UNK         0.1400 
     63 CB          0.1878  -11.2221  -47.8945 C.3       2 UNK        -0.1800 
     64 N           1.9914  -12.7394  -48.5008 N.am      2 UNK        -0.5000 
     65 C           2.7089  -13.6362  -49.1923 C.2       1 UNK         0.5000 
     66 O           2.3103  -14.1722  -50.2281 O.2       1 UNK        -0.5000 
     67 C           1.1067  -23.6173  -47.3077 C.2       11 UNK         0.5000 
     68 O          -0.0322  -23.1536  -47.2336 O.2       11 UNK        -0.5000 
     69 N           1.4289  -24.7424  -47.9614 N.am      12 UNK        -0.5000 
     70 CA          0.5118  -25.7906  -48.4267 C.3       12 UNK         0.1400 
     71 CB          1.2677  -26.7435  -49.3670 C.3       12 UNK        -0.1800 
     72 C          -0.8064  -25.3188  -49.0677 C.2       12 UNK         0.5000 
     73 O          -1.8758  -25.6437  -48.5543 O.2       12 UNK        -0.5000 
     74 N          -0.7125  -24.5517  -50.1606 N.am      13 UNK        -0.5000 
     75 CA         -1.8721  -24.0785  -50.9216 C.3       13 UNK         0.1400 
     76 CB         -1.3965  -23.5397  -52.2760 C.3       13 UNK        -0.1800 
     77 C          -2.7172  -23.0288  -50.1742 C.2       13 UNK         0.5000 
     78 O          -3.9379  -23.0035  -50.3375 O.2       13 UNK        -0.5000 
     79 N          -2.0665  -22.2011  -49.3475 N.am      14 UNK        -0.5000 
     80 CA         -2.7277  -21.1996  -48.5134 C.3       14 UNK         0.1400 
     81 CB         -1.7055  -20.1531  -48.0561 C.3       14 UNK        -0.1800 
     82 C          -3.4352  -21.8510  -47.3134 C.2       14 UNK         0.5000 
     83 O          -4.5707  -21.4880  -47.0098 O.2       14 UNK        -0.5000 
     84 N          -2.7765  -22.8401  -46.6929 N.am      15 UNK        -0.5000 
     85 CA         -3.3102  -23.6669  -45.6091 C.3       15 UNK         0.1400 
     86 CB         -2.1799  -24.5282  -45.0274 C.3       15 UNK        -0.1800 
     87 C          -4.4909  -24.5480  -46.0592 C.2       15 UNK         0.5000 
     88 O          -5.4583  -24.6966  -45.3125 O.2       15 UNK        -0.5000 
     89 N          -4.4113  -25.0775  -47.2885 N.am      16 UNK        -0.5000 
     90 CA         -5.4853  -25.8113  -47.9647 C.3       16 UNK         0.1400 
     91 CB         -4.8918  -26.5808  -49.1552 C.3       16 UNK        -0.1800 
     92 C          -6.6452  -24.9101  -48.4384 C.2       16 UNK         0.5000 
     93 O          -7.6863  -25.4357  -48.8343 O.2       16 UNK        -0.5000 
     94 N          -6.4454  -23.5847  -48.3927 N.am      17 UNK        -0.5000 
     95 CA         -7.3713  -22.5237  -48.7848 C.3       17 UNK         0.1400 
     96 CB         -8.6105  -22.5017  -47.8662 C.3       17 UNK        -0.1800 
     97 C          -7.7202  -22.5645  -50.2844 C.2       17 UNK         0.5000 
     98 O          -8.8893  -22.4347  -50.6545 O.2       17 UNK        -0.5000 
     99 N          -6.6917  -22.7022  -51.1345 N.am      18 UNK        -0.5000 
    100 CA        -6.7824  -22.6079  -52.5945 C.3       18 UNK         0.1400 
    101 CB        -5.5388  -23.2654  -53.2184 C.3       18 UNK        -0.1800 
    102 C         -6.9520  -21.1356  -53.0239 C.2       18 UNK         0.5000 
    103 O         -6.0123  -20.5205  -53.5281 O.2       18 UNK        -0.5000 
    104 N         -8.1344  -20.5823  -52.7171 N.am      19 UNK        -0.5000 
    105 CA        -8.5473  -19.1752  -52.8170 C.3       19 UNK         0.1400 
    106 CB        -8.4225  -18.6527  -54.2633 C.3       19 UNK        -0.1800 
    107 C         -7.8451  -18.2418  -51.8052 C.2       19 UNK         0.5000 
    108 O         -8.0491  -17.0284  -51.8678 O.2       19 UNK        -0.5000 
    109 N         -7.0322  -18.8121  -50.9004 N.am      20 UNK        -0.5000 
    110 CA        -6.1471  -18.1881  -49.9052 C.3       20 UNK         0.1400 
    111 CB        -6.9313  -17.3417  -48.8856 C.3       20 UNK        -0.1800 
    112 C         -4.9935  -17.3916  -50.5430 C.2       20 UNK         0.5000 
    113 O         -3.8297  -17.6585  -50.2456 O.2       20 UNK        -0.5000 
    114 N         -5.3306  -16.4694  -51.4512 N.am      21 UNK        -0.5000 
    115 CA        -4.4224  -15.7768  -52.3599 C.3       21 UNK         0.1400 
    116 CB        -5.0896  -14.4695  -52.8230 C.3       21 UNK        -0.1800 
    117 C         -4.0560  -16.7079  -53.5316 C.2       21 UNK         0.5000 
    118 O         -4.4786  -16.4866  -54.6676 O.2       21 UNK        -0.5000 
    119 N         -3.3084  -17.7655  -53.2064 N.am      22 UNK        -0.5000 
    120 CA        -2.8879  -18.8441  -54.1107 C.3       22 UNK         0.1400 
    121 C         -1.8552  -18.4460  -55.2071 C.2       22 UNK         0.5000 
    122 N         -1.2362  -17.2730  -55.1507 N.am      22 UNK        -0.7600 
    123 O         -1.6145  -19.2177  -56.1313 O.2       22 UNK        -0.5000 
    124 C124       -2.4354  -20.0958  -53.3118 C.3       23 UNK        -0.0398 
    125 S125       -1.2062  -19.7507  -52.0012 S.3       23 UNK        -0.2404 
    126 C126        0.3467  -20.0290  -52.9005 C.3       23 UNK        -0.0205 
    127 H127        5.5250   -9.7159  -48.8091 H         1 UNK         0.0600 
    128 H128        7.0521  -10.5915  -48.9602 H         1 UNK         0.0600 
    129 H129        6.1176  -10.6968  -47.4659 H         1 UNK         0.0600 
    130 H130        5.0358  -12.6186  -47.2808 H         1 UNK         0.3000 
    131 H131        3.8943  -14.4348  -47.6347 H         1 UNK         0.0600 
    132 H132        5.9694  -14.9643  -49.1099 H         1 UNK         0.0800 
    133 H133        4.9390  -14.7191  -50.4876 H         1 UNK         0.0800 
    134 H134        4.9776  -17.2356  -51.4640 H         1 UNK         0.0800 
    135 H135        3.4335  -16.4152  -51.3988 H         1 UNK         0.0800 
    136 H136        1.7699  -17.7883  -52.3177 H         1 UNK         0.1150 
    137 H137        1.5889  -21.9806  -51.4704 H         1 UNK         0.1150 
    138 H138        4.7658  -19.6003  -49.8465 H         1 UNK         0.1150 
    139 H139        3.0847  -22.9969  -49.9398 H         1 UNK         0.0800 
    140 H140        4.6662  -22.4973  -50.4871 H         1 UNK         0.0800 
    141 H141        1.9913  -21.2469  -48.0294 H         1 UNK         0.0800 
    142 H142        2.9214  -20.8142  -46.6346 H         1 UNK         0.0800 
    143 H143        3.0858  -23.5935  -46.4719 H         1 UNK         0.0600 
    144 H144        1.5137  -21.6255  -45.0473 H         1 UNK         0.3000 
    145 H145       -0.0019  -22.8296  -43.0827 H         1 UNK         0.0600 
    146 H146        0.7796  -23.5633  -40.8240 H         1 UNK         0.0600 
    147 H147        0.6944  -24.9005  -41.9587 H         1 UNK         0.0600 
    148 H148        2.2556  -24.2092  -41.5413 H         1 UNK         0.0600 
    149 H149        0.8913  -20.9090  -42.5521 H         1 UNK         0.3000 
    150 H150        3.7019  -19.7594  -41.0562 H         1 UNK         0.0600 
    151 H151        4.9057  -19.7514  -43.2430 H         1 UNK         0.0600 
    152 H152        4.2265  -18.1687  -42.9000 H         1 UNK         0.0600 
    153 H153        3.4403  -19.2321  -44.0661 H         1 UNK         0.0600 
    154 H154        1.6842  -18.3795  -42.5796 H         1 UNK         0.3000 
    155 H155       -0.9352  -18.7127  -40.1734 H         1 UNK         0.0600 
    156 H156        0.4210  -16.7426  -39.4321 H         1 UNK         0.0600 
    157 H157       -0.9538  -16.2545  -40.4103 H         1 UNK         0.0600 
    158 H158        0.6637  -16.2729  -41.1106 H         1 UNK         0.0600 
    159 H159       -0.8801  -17.4096  -42.6920 H         1 UNK         0.3000 
    160 H160       -1.8012  -20.2759  -44.6861 H         1 UNK         0.0600 
    161 H161       -3.2280  -17.6740  -43.9299 H         1 UNK         0.0600 
    162 H162       -3.8792  -19.2943  -43.7071 H         1 UNK         0.0600 
    163 H163       -3.5756  -18.6899  -45.3279 H         1 UNK         0.0600 
    164 H164       -1.2352  -17.5747  -45.4096 H         1 UNK         0.3000 
    165 H165        2.2692  -18.0524  -46.0493 H         1 UNK         0.0600 
    166 H166        1.5118  -17.1216  -48.2318 H         1 UNK         0.0600 
    167 H167        1.0741  -18.8163  -48.0967 H         1 UNK         0.0600 
    168 H168       -0.1499  -17.5674  -47.8695 H         1 UNK         0.0600 
    169 H169        0.6095  -15.7632  -46.3154 H         1 UNK         0.3000 
    170 H170        1.0112  -14.4891  -42.9842 H         1 UNK         0.0600 
    171 H171        1.7151  -12.5510  -44.3795 H         1 UNK         0.0600 
    172 H172        2.9764  -13.7729  -44.3202 H         1 UNK         0.0600 
    173 H173        1.9792  -13.6174  -45.7583 H         1 UNK         0.0600 
    174 H174       -0.4818  -13.6254  -45.2873 H         1 UNK         0.3000 
    175 H175       -3.5811  -15.1091  -44.3609 H         1 UNK         0.0600 
    176 H176       -3.3901  -13.1385  -42.8388 H         1 UNK         0.0600 
    177 H177       -2.6320  -12.2027  -44.1215 H         1 UNK         0.0600 
    178 H178       -4.3041  -12.7401  -44.2846 H         1 UNK         0.0600 
    179 H179       -2.8394  -13.2080  -46.3745 H         1 UNK         0.3000 
    180 H180       -2.2463  -15.6255  -48.9556 H         1 UNK         0.0600 
    181 H181       -4.6846  -15.0576  -48.7197 H         1 UNK         0.0600 
    182 H182       -4.2682  -13.3832  -48.3907 H         1 UNK         0.0600 
    183 H183       -3.9104  -14.0863  -49.9620 H         1 UNK         0.0600 
    184 H184       -1.9056  -12.9138  -49.2262 H         1 UNK         0.3000 
    185 H185        0.3903  -12.2843  -49.7644 H         1 UNK         0.0600 
    186 H186       -0.8581  -10.9533  -48.0466 H         1 UNK         0.0600 
    187 H187        0.3354  -11.3739  -46.8243 H         1 UNK         0.0600 
    188 H188        0.7869  -10.3626  -48.1962 H         1 UNK         0.0600 
    189 H189        2.4060  -12.3333  -47.6762 H         1 UNK         0.3000 
    190 H190        2.4037  -25.0048  -47.9722 H         1 UNK         0.3000 
    191 H191        0.2332  -26.3619  -47.5390 H         1 UNK         0.0600 
    192 H192        2.0961  -27.2303  -48.8519 H         1 UNK         0.0600 
    193 H193        1.6746  -26.2199  -50.2327 H         1 UNK         0.0600 
    194 H194        0.6118  -27.5325  -49.7378 H         1 UNK         0.0600 
    195 H195        0.2019  -24.3147  -50.5147 H         1 UNK         0.3000 
    196 H196       -2.5214  -24.9349  -51.1153 H         1 UNK         0.0600 
    197 H197       -2.2327  -23.1680  -52.8684 H         1 UNK         0.0600 
    198 H198       -0.9062  -24.3182  -52.8605 H         1 UNK         0.0600 
    199 H199       -0.6901  -22.7218  -52.1482 H         1 UNK         0.0600 
    200 H200       -1.0748  -22.3305  -49.2063 H         1 UNK         0.3000 
    201 H201       -3.4816  -20.6877  -49.1159 H         1 UNK         0.0600 
    202 H202       -2.1888  -19.3690  -47.4723 H         1 UNK         0.0600 
    203 H203       -0.9220  -20.5943  -47.4400 H         1 UNK         0.0600 
    204 H204       -1.2307  -19.6712  -48.9106 H         1 UNK         0.0600 
    205 H205       -1.8256  -23.0484  -46.9938 H         1 UNK         0.3000 
    206 H206       -3.6704  -22.9978  -44.8250 H         1 UNK         0.0600 
    207 H207       -1.3627  -23.9060  -44.6674 H         1 UNK         0.0600 
    208 H208       -2.5337  -25.1248  -44.1858 H         1 UNK         0.0600 
    209 H209       -1.7712  -25.2136  -45.7708 H         1 UNK         0.0600 
    210 H210       -3.5393  -24.9852  -47.8025 H         1 UNK         0.3000 
    211 H211       -5.9011  -26.5362  -47.2621 H         1 UNK         0.0600 
    212 H212       -5.6550  -27.1734  -49.6611 H         1 UNK         0.0600 
    213 H213       -4.1109  -27.2689  -48.8312 H         1 UNK         0.0600 
    214 H214       -4.4598  -25.9038  -49.8927 H         1 UNK         0.0600 
    215 H215       -5.5482  -23.2630  -48.0545 H         1 UNK         0.3000 
    216 H216       -6.8376  -21.5855  -48.6280 H         1 UNK         0.0600 
    217 H217       -9.2334  -21.6307  -48.0729 H         1 UNK         0.0600 
    218 H218       -8.3202  -22.4502  -46.8167 H         1 UNK         0.0600 
    219 H219       -9.2331  -23.3868  -47.9994 H         1 UNK         0.0600 
    220 H220       -5.7519  -22.8115  -50.7570 H         1 UNK         0.3000 
    221 H221       -7.6594  -23.1631  -52.9336 H         1 UNK         0.0600 
    222 H222       -4.6238  -22.7435  -52.9390 H         1 UNK         0.0600 
    223 H223       -5.4402  -24.3040  -52.9021 H         1 UNK         0.0600 
    224 H224       -5.5997  -23.2588  -54.3072 H         1 UNK         0.0600 
    225 H225       -8.7915  -21.1833  -52.2274 H         1 UNK         0.3000 
    226 H226       -9.6056  -19.1585  -52.5530 H         1 UNK         0.0600 
    227 H227       -8.9027  -17.6793  -54.3684 H         1 UNK         0.0600 
    228 H228       -7.3816  -18.5316  -54.5650 H         1 UNK         0.0600 
    229 H229       -8.9029  -19.3280  -54.9712 H         1 UNK         0.0600 
    230 H230       -6.9246  -19.8110  -50.9888 H         1 UNK         0.3000 
    231 H231       -5.6909  -19.0143  -49.3569 H         1 UNK         0.0600 
    232 H232       -7.7193  -17.9275  -48.4124 H         1 UNK         0.0600 
    233 H233       -7.3931  -16.4669  -49.3437 H         1 UNK         0.0600 
    234 H234       -6.2726  -16.9840  -48.0933 H         1 UNK         0.0600 
    235 H235       -6.3226  -16.3833  -51.6596 H         1 UNK         0.3000 
    236 H236       -3.5006  -15.5237  -51.8325 H         1 UNK         0.0600 
    237 H237       -5.3102  -13.8171  -51.9783 H         1 UNK         0.0600 
    238 H238       -4.4371  -13.9166  -53.4996 H         1 UNK         0.0600 
    239 H239       -6.0264  -14.6594  -53.3487 H         1 UNK         0.0600 
    240 H240       -3.0388  -17.8818  -52.2358 H         1 UNK         0.3000 
    241 H241       -3.7803  -19.1379  -54.6668 H         1 UNK         0.0600 
    242 H242       -1.4256  -16.6307  -54.3991 H         1 UNK         0.3800 
    243 H243       -0.5766  -17.0241  -55.8707 H         1 UNK         0.3800 
    244 H244       -3.3062  -20.5285  -52.8173 H         1 UNK         0.0800 
    245 H245       -2.0661  -20.8789  -53.9760 H         1 UNK         0.0800 
    246 H246        0.4314  -19.3094  -53.7149 H         1 UNK         0.0800 
    247 H247        0.3373  -21.0141  -53.3677 H         1 UNK         0.0800 
@<TRIPOS>BOND
     1    1    2 1    
     2    1  127 1    
     3    1  128 1    
     4    1  129 1    
     5    2    3 2    
     6    2    4 am   BACKBONE|DICT|INTERRES
     7    4    5 1    
     8    4  130 1    
     9    5    6 1    
    10    5   65 1    
    11    5  131 1    
    12    6    7 1    
    13    6  132 1    
    14    6  133 1    
    15    7    8 1    
    16    8    9 1    
    17    8  134 1    
    18    8  135 1    
    19    9   10 ar   
    20    9   14 ar   
    21   10   11 ar   
    22   10  136 1    
    23   11   12 ar   
    24   11  126 1    
    25   12   13 ar   
    26   12  137 1    
    27   13   14 ar   
    28   13   15 1    
    29   14  138 1    
    30   15   16 1    
    31   15  139 1    
    32   15  140 1    
    33   16   17 1    
    34   17   18 1    
    35   17  141 1    
    36   17  142 1    
    37   18   19 1    
    38   18   67 1    
    39   18  143 1    
    40   19   20 am   BACKBONE|DICT|INTERRES
    41   19  144 1    
    42   20   21 2    
    43   20   22 1    
    44   22   23 1    
    45   22   24 1    
    46   22  145 1    
    47   23  146 1    
    48   23  147 1    
    49   23  148 1    
    50   24   25 am   BACKBONE|DICT|INTERRES
    51   24  149 1    
    52   25   26 2    
    53   25   27 1    
    54   27   28 1    
    55   27   29 1    
    56   27  150 1    
    57   28  151 1    
    58   28  152 1    
    59   28  153 1    
    60   29   30 am   BACKBONE|DICT|INTERRES
    61   29  154 1    
    62   30   31 2    
    63   30   32 1    
    64   32   33 1    
    65   32   34 1    
    66   32  155 1    
    67   33  156 1    
    68   33  157 1    
    69   33  158 1    
    70   34   35 am   BACKBONE|DICT|INTERRES
    71   34  159 1    
    72   35   36 2    
    73   35   37 1    
    74   37   38 1    
    75   37   39 1    
    76   37  160 1    
    77   38  161 1    
    78   38  162 1    
    79   38  163 1    
    80   39   40 am   BACKBONE|DICT|INTERRES
    81   39  164 1    
    82   40   41 2    
    83   40   42 1    
    84   42   43 1    
    85   42   44 1    
    86   42  165 1    
    87   43  166 1    
    88   43  167 1    
    89   43  168 1    
    90   44   45 am   BACKBONE|DICT|INTERRES
    91   44  169 1    
    92   45   46 2    
    93   45   47 1    
    94   47   48 1    
    95   47   49 1    
    96   47  170 1    
    97   48  171 1    
    98   48  172 1    
    99   48  173 1    
   100   49   50 am   BACKBONE|DICT|INTERRES
   101   49  174 1    
   102   50   51 2    
   103   50   52 1    
   104   52   53 1    
   105   52   54 1    
   106   52  175 1    
   107   53  176 1    
   108   53  177 1    
   109   53  178 1    
   110   54   55 am   BACKBONE|DICT|INTERRES
   111   54  179 1    
   112   55   56 2    
   113   55   57 1    
   114   57   58 1    
   115   57   59 1    
   116   57  180 1    
   117   58  181 1    
   118   58  182 1    
   119   58  183 1    
   120   59   60 am   BACKBONE|DICT|INTERRES
   121   59  184 1    
   122   60   61 2    
   123   60   62 1    
   124   62   63 1    
   125   62   64 1    
   126   62  185 1    
   127   63  186 1    
   128   63  187 1    
   129   63  188 1    
   130   64   65 am   BACKBONE|DICT|INTERRES
   131   64  189 1    
   132   65   66 2    
   133   67   68 2    
   134   67   69 am   BACKBONE|DICT|INTERRES
   135   69   70 1    
   136   69  190 1    
   137   70   71 1    
   138   70   72 1    
   139   70  191 1    
   140   71  192 1    
   141   71  193 1    
   142   71  194 1    
   143   72   73 2    
   144   72   74 am   BACKBONE|DICT|INTERRES
   145   74   75 1    
   146   74  195 1    
   147   75   76 1    
   148   75   77 1    
   149   75  196 1    
   150   76  197 1    
   151   76  198 1    
   152   76  199 1    
   153   77   78 2    
   154   77   79 am   BACKBONE|DICT|INTERRES
   155   79   80 1    
   156   79  200 1    
   157   80   81 1    
   158   80   82 1    
   159   80  201 1    
   160   81  202 1    
   161   81  203 1    
   162   81  204 1    
   163   82   83 2    
   164   82   84 am   BACKBONE|DICT|INTERRES
   165   84   85 1    
   166   84  205 1    
   167   85   86 1    
   168   85   87 1    
   169   85  206 1    
   170   86  207 1    
   171   86  208 1    
   172   86  209 1    
   173   87   88 2    
   174   87   89 am   BACKBONE|DICT|INTERRES
   175   89   90 1    
   176   89  210 1    
   177   90   91 1    
   178   90   92 1    
   179   90  211 1    
   180   91  212 1    
   181   91  213 1    
   182   91  214 1    
   183   92   93 2    
   184   92   94 am   BACKBONE|DICT|INTERRES
   185   94   95 1    
   186   94  215 1    
   187   95   96 1    
   188   95   97 1    
   189   95  216 1    
   190   96  217 1    
   191   96  218 1    
   192   96  219 1    
   193   97   98 2    
   194   97   99 am   BACKBONE|DICT|INTERRES
   195   99  100 1    
   196   99  220 1    
   197  100  101 1    
   198  100  102 1    
   199  100  221 1    
   200  101  222 1    
   201  101  223 1    
   202  101  224 1    
   203  102  103 2    
   204  102  104 am   BACKBONE|DICT|INTERRES
   205  104  105 1    
   206  104  225 1    
   207  105  106 1    
   208  105  107 1    
   209  105  226 1    
   210  106  227 1    
   211  106  228 1    
   212  106  229 1    
   213  107  108 2    
   214  107  109 am   BACKBONE|DICT|INTERRES
   215  109  110 1    
   216  109  230 1    
   217  110  111 1    
   218  110  112 1    
   219  110  231 1    
   220  111  232 1    
   221  111  233 1    
   222  111  234 1    
   223  112  113 2    
   224  112  114 am   BACKBONE|DICT|INTERRES
   225  114  115 1    
   226  114  235 1    
   227  115  116 1    
   228  115  117 1    
   229  115  236 1    
   230  116  237 1    
   231  116  238 1    
   232  116  239 1    
   233  117  118 2    
   234  117  119 am   BACKBONE|DICT|INTERRES
   235  119  120 1    
   236  119  240 1    
   237  120  121 1    
   238  120  124 1    
   239  120  241 1    
   240  121  122 am   BACKBONE|DICT|INTERRES
   241  121  123 2    
   242  122  242 1    
   243  122  243 1    
   244  124  125 1    
   245  124  244 1    
   246  124  245 1    
   247  125  126 1    
   248  126  246 1    
   249  126  247 1    
@<TRIPOS>SUBSTRUCTURE
     1 UNK         1 GROUP             0       ****    0 ROOT    
