@<TRIPOS>MOLECULE
3R540
247   249    1
SMALL
USER_CHARGES


@<TRIPOS>ATOM
      1 CA         -1.4397  -14.3258  -51.8440 C.3       0 UNK        -0.1800 
      2 C          -1.2087  -15.4045  -50.7958 C.2       0 UNK         0.5000 
      3 O          -0.2226  -16.1358  -50.8776 O.2       0 UNK        -0.5000 
      4 N          -2.1175  -15.5066  -49.8161 N.am      1 UNK        -0.5000 
      5 CA         -2.0461  -16.4766  -48.7160 C.3       1 UNK         0.1400 
      6 C6         -3.3884  -16.6115  -47.9544 C.3       23 UNK        -0.0398 
      7 S7         -4.7049  -17.3006  -49.0132 S.3       23 UNK        -0.2404 
      8 C8         -5.2976  -18.7104  -48.0112 C.3       23 UNK        -0.0205 
      9 C9         -6.0070  -19.8117  -48.7997 C.ar      23 UNK        -0.0193 
     10 C10        -6.6583  -19.5678  -50.0156 C.ar      23 UNK        -0.1150 
     11 C11        -7.2572  -20.6101  -50.7307 C.ar      23 UNK        -0.0193 
     12 C12        -7.2194  -21.9061  -50.2093 C.ar      23 UNK        -0.1150 
     13 C13        -6.5962  -22.1661  -48.9856 C.ar      23 UNK        -0.0193 
     14 C14        -6.0093  -21.1110  -48.2817 C.ar      23 UNK        -0.1150 
     15 C15        -6.5807  -23.5821  -48.4223 C.3       23 UNK        -0.0205 
     16 S16        -4.9248  -24.3488  -48.4949 S.3       23 UNK        -0.2404 
     17 C17        -4.2402  -23.9603  -46.8440 C.3       23 UNK        -0.0398 
     18 CA         -3.1786  -22.8340  -46.8872 C.3       11 UNK         0.1400 
     19 N          -3.2031  -22.0065  -45.6745 N.am      11 UNK        -0.5000 
     20 C          -2.7054  -20.7640  -45.6212 C.2       10 UNK         0.5000 
     21 O          -2.1569  -20.2146  -46.5715 O.2       10 UNK        -0.5000 
     22 CA         -2.8134  -20.0075  -44.2867 C.3       10 UNK         0.1400 
     23 CB         -4.2217  -19.4149  -44.1242 C.3       10 UNK        -0.1800 
     24 N          -2.4724  -20.7797  -43.0891 N.am      10 UNK        -0.5000 
     25 C          -1.3684  -21.5188  -42.9092 C.2       9 UNK         0.5000 
     26 O          -0.5721  -21.7994  -43.8060 O.2       9 UNK        -0.5000 
     27 CA         -1.1042  -21.9746  -41.4596 C.3       9 UNK         0.1400 
     28 CB          0.1949  -22.7942  -41.3168 C.3       9 UNK        -0.1800 
     29 N          -1.1023  -20.8501  -40.5124 N.am      9 UNK        -0.5000 
     30 C          -0.3374  -19.7464  -40.5655 C.2       8 UNK         0.5000 
     31 O           0.4539  -19.5005  -41.4782 O.2       8 UNK        -0.5000 
     32 CA         -0.4766  -18.7279  -39.4113 C.3       8 UNK         0.1400 
     33 CB         -1.2564  -19.2491  -38.1827 C.3       8 UNK        -0.1800 
     34 N           0.8318  -18.1971  -39.0183 N.am      8 UNK        -0.5000 
     35 C           1.8795  -18.8860  -38.5423 C.2       7 UNK         0.5000 
     36 O           1.8357  -20.0775  -38.2292 O.2       7 UNK        -0.5000 
     37 CA          3.2116  -18.1094  -38.4512 C.3       7 UNK         0.1400 
     38 CB          4.3414  -18.9334  -37.8068 C.3       7 UNK        -0.1800 
     39 N           3.6494  -17.6692  -39.7787 N.am      7 UNK        -0.5000 
     40 C           3.1622  -16.6070  -40.4302 C.2       6 UNK         0.5000 
     41 O           2.3322  -15.8396  -39.9363 O.2       6 UNK        -0.5000 
     42 CA          3.6481  -16.4094  -41.8799 C.3       6 UNK         0.1400 
     43 CB          2.9695  -17.4207  -42.8182 C.3       6 UNK        -0.1800 
     44 N           3.3541  -15.0659  -42.3698 N.am      6 UNK        -0.5000 
     45 C           3.9641  -13.9441  -41.9674 C.2       5 UNK         0.5000 
     46 O           4.9512  -13.9229  -41.2304 O.2       5 UNK        -0.5000 
     47 CA          3.3453  -12.6244  -42.4552 C.3       5 UNK         0.1400 
     48 CB          3.7871  -12.3087  -43.8931 C.3       5 UNK        -0.1800 
     49 N           1.8839  -12.6809  -42.3939 N.am      5 UNK        -0.5000 
     50 C           1.1587  -12.3702  -41.3095 C.2       4 UNK         0.5000 
     51 O           1.6464  -11.9364  -40.2649 O.2       4 UNK        -0.5000 
     52 CA         -0.3696  -12.5493  -41.4042 C.3       4 UNK         0.1400 
     53 CB         -1.0433  -11.2119  -41.7493 C.3       4 UNK        -0.1800 
     54 N          -0.7616  -13.5451  -42.4016 N.am      4 UNK        -0.5000 
     55 C          -0.7974  -14.8668  -42.1850 C.2       3 UNK         0.5000 
     56 O          -0.5934  -15.3886  -41.0899 O.2       3 UNK        -0.5000 
     57 CA         -1.1237  -15.7632  -43.3957 C.3       3 UNK         0.1400 
     58 CB         -2.5964  -16.1966  -43.3593 C.3       3 UNK        -0.1800 
     59 N          -0.8501  -15.1519  -44.7002 N.am      3 UNK        -0.5000 
     60 C           0.3609  -14.8056  -45.1591 C.2       2 UNK         0.5000 
     61 O           1.3731  -14.8191  -44.4573 O.2       2 UNK        -0.5000 
     62 CA          0.4479  -14.3470  -46.6343 C.3       2 UNK         0.1400 
     63 CB          1.8300  -14.6434  -47.2524 C.3       2 UNK        -0.1800 
     64 N          -0.6204  -14.8737  -47.4998 N.am      2 UNK        -0.5000 
     65 C          -0.9011  -16.1674  -47.7323 C.2       1 UNK         0.5000 
     66 O          -0.3098  -17.1008  -47.1983 O.2       1 UNK        -0.5000 
     67 C          -1.7680  -23.3708  -47.2110 C.2       11 UNK         0.5000 
     68 O          -1.4284  -23.5081  -48.3866 O.2       11 UNK        -0.5000 
     69 N          -0.9522  -23.6246  -46.1774 N.am      12 UNK        -0.5000 
     70 CA          0.4510  -24.0132  -46.3274 C.3       12 UNK         0.1400 
     71 CB          0.9743  -24.6213  -45.0175 C.3       12 UNK        -0.1800 
     72 C           1.3108  -22.8175  -46.7687 C.2       12 UNK         0.5000 
     73 O           2.1419  -22.9649  -47.6644 O.2       12 UNK        -0.5000 
     74 N           1.0469  -21.6417  -46.1816 N.am      13 UNK        -0.5000 
     75 CA          1.6395  -20.3585  -46.5642 C.3       13 UNK         0.1400 
     76 CB          1.2461  -19.2951  -45.5284 C.3       13 UNK        -0.1800 
     77 C           1.2648  -19.9361  -48.0023 C.2       13 UNK         0.5000 
     78 O           2.1110  -19.3978  -48.7164 O.2       13 UNK        -0.5000 
     79 N           0.0381  -20.2725  -48.4283 N.am      14 UNK        -0.5000 
     80 CA         -0.4646  -20.1384  -49.7971 C.3       14 UNK         0.1400 
     81 CB         -2.0003  -20.2308  -49.7845 C.3       14 UNK        -0.1800 
     82 C           0.1003  -21.1859  -50.7796 C.2       14 UNK         0.5000 
     83 O          -0.2982  -21.1692  -51.9447 O.2       14 UNK        -0.5000 
     84 N           0.9721  -22.0935  -50.3135 N.am      15 UNK        -0.5000 
     85 CA          1.6114  -23.1767  -51.0667 C.3       15 UNK         0.1400 
     86 CB          2.5642  -22.6045  -52.1381 C.3       15 UNK        -0.1800 
     87 C           0.5860  -24.1753  -51.6394 C.2       15 UNK         0.5000 
     88 O           0.6495  -24.5182  -52.8199 O.2       15 UNK        -0.5000 
     89 N          -0.3702  -24.5883  -50.7942 N.am      16 UNK        -0.5000 
     90 CA         -1.5343  -25.4201  -51.1197 C.3       16 UNK         0.1400 
     91 CB         -1.1116  -26.8345  -51.5703 C.3       16 UNK        -0.1800 
     92 C          -2.4783  -24.7109  -52.1116 C.2       16 UNK         0.5000 
     93 O          -2.9726  -25.3297  -53.0550 O.2       16 UNK        -0.5000 
     94 N          -2.6804  -23.4063  -51.8710 N.am      17 UNK        -0.5000 
     95 CA         -3.5110  -22.4615  -52.6273 C.3       17 UNK         0.1400 
     96 CB         -4.9690  -22.9520  -52.6915 C.3       17 UNK        -0.1800 
     97 C          -2.9561  -22.0870  -54.0202 C.2       17 UNK         0.5000 
     98 O          -3.6529  -21.4182  -54.7880 O.2       17 UNK        -0.5000 
     99 N          -1.7170  -22.4942  -54.3288 N.am      18 UNK        -0.5000 
    100 CA        -1.0479  -22.2253  -55.6004 C.3       18 UNK         0.1400 
    101 CB         0.0973  -23.2275  -55.8030 C.3       18 UNK        -0.1800 
    102 C         -0.5225  -20.7839  -55.7006 C.2       18 UNK         0.5000 
    103 O         -0.6491  -20.1725  -56.7613 O.2       18 UNK        -0.5000 
    104 N          0.0332  -20.2524  -54.6016 N.am      19 UNK        -0.5000 
    105 CA         0.5553  -18.8834  -54.5277 C.3       19 UNK         0.1400 
    106 CB         1.5346  -18.7594  -53.3504 C.3       19 UNK        -0.1800 
    107 C         -0.5750  -17.8475  -54.4051 C.2       19 UNK         0.5000 
    108 O         -0.4401  -16.7315  -54.9071 O.2       19 UNK        -0.5000 
    109 N         -1.6846  -18.2571  -53.7765 N.am      20 UNK        -0.5000 
    110 CA        -2.9296  -17.4936  -53.6991 C.3       20 UNK         0.1400 
    111 CB        -3.7389  -18.0019  -52.5000 C.3       20 UNK        -0.1800 
    112 C         -3.7530  -17.5512  -55.0037 C.2       20 UNK         0.5000 
    113 O         -4.6584  -16.7345  -55.1753 O.2       20 UNK        -0.5000 
    114 N         -3.4086  -18.4924  -55.8977 N.am      21 UNK        -0.5000 
    115 CA        -3.9986  -18.7478  -57.2147 C.3       21 UNK         0.1400 
    116 CB        -3.7081  -17.5773  -58.1769 C.3       21 UNK        -0.1800 
    117 C         -5.4933  -19.1174  -57.1336 C.2       21 UNK         0.5000 
    118 O         -6.3108  -18.5824  -57.8860 O.2       21 UNK        -0.5000 
    119 N         -5.8185  -20.0244  -56.2079 N.am      22 UNK        -0.5000 
    120 CA        -7.1890  -20.4604  -55.8959 C.3       22 UNK         0.1400 
    121 C         -7.3280  -21.9892  -55.6467 C.2       22 UNK         0.5000 
    122 N         -6.2818  -22.7889  -55.8144 N.am      22 UNK        -0.7600 
    123 O         -8.4140  -22.4680  -55.3313 O.2       22 UNK        -0.5000 
    124 C124       -7.8367  -19.5871  -54.7871 C.3       23 UNK        -0.0398 
    125 S125       -6.8537  -19.5174  -53.2505 S.3       23 UNK        -0.2404 
    126 C126       -7.9548  -20.3403  -52.0588 C.3       23 UNK        -0.0205 
    127 H127       -0.8232  -13.4540  -51.6253 H         1 UNK         0.0600 
    128 H128       -1.1675  -14.6937  -52.8334 H         1 UNK         0.0600 
    129 H129       -2.4834  -14.0119  -51.8743 H         1 UNK         0.0600 
    130 H130       -2.9237  -14.8980  -49.8176 H         1 UNK         0.3000 
    131 H131       -1.8099  -17.4432  -49.1596 H         1 UNK         0.0600 
    132 H132       -3.7191  -15.6427  -47.5767 H         1 UNK         0.0800 
    133 H133       -3.2647  -17.2508  -47.0780 H         1 UNK         0.0800 
    134 H134       -5.9667  -18.3396  -47.2340 H         1 UNK         0.0800 
    135 H135       -4.4412  -19.1540  -47.5047 H         1 UNK         0.0800 
    136 H136       -6.6920  -18.5685  -50.4245 H         1 UNK         0.1150 
    137 H137       -7.6797  -22.7161  -50.7576 H         1 UNK         0.1150 
    138 H138       -5.5433  -21.3038  -47.3269 H         1 UNK         0.1150 
    139 H139       -6.9658  -23.5785  -47.4022 H         1 UNK         0.0800 
    140 H140       -7.2652  -24.2141  -48.9901 H         1 UNK         0.0800 
    141 H141       -5.0641  -23.6754  -46.1895 H         1 UNK         0.0800 
    142 H142       -3.8347  -24.8743  -46.4061 H         1 UNK         0.0800 
    143 H143       -3.4374  -22.1710  -47.7142 H         1 UNK         0.0600 
    144 H144       -3.6202  -22.4036  -44.8452 H         1 UNK         0.3000 
    145 H145       -2.1016  -19.1811  -44.3333 H         1 UNK         0.0600 
    146 H146       -4.2914  -18.7961  -43.2297 H         1 UNK         0.0600 
    147 H147       -4.4817  -18.7826  -44.9739 H         1 UNK         0.0600 
    148 H148       -4.9809  -20.1945  -44.0503 H         1 UNK         0.0600 
    149 H149       -3.0581  -20.6174  -42.2832 H         1 UNK         0.3000 
    150 H150       -1.9359  -22.6224  -41.1796 H         1 UNK         0.0600 
    151 H151        0.1540  -23.6983  -41.9247 H         1 UNK         0.0600 
    152 H152        0.3530  -23.1054  -40.2842 H         1 UNK         0.0600 
    153 H153        1.0704  -22.2249  -41.6315 H         1 UNK         0.0600 
    154 H154       -1.7231  -20.9487  -39.7216 H         1 UNK         0.3000 
    155 H155       -1.0329  -17.8837  -39.8209 H         1 UNK         0.0600 
    156 H156       -1.2862  -18.4971  -37.3940 H         1 UNK         0.0600 
    157 H157       -0.8081  -20.1499  -37.7621 H         1 UNK         0.0600 
    158 H158       -2.2912  -19.4790  -38.4388 H         1 UNK         0.0600 
    159 H159        1.0118  -17.2393  -39.3055 H         1 UNK         0.3000 
    160 H160        3.0390  -17.2355  -37.8193 H         1 UNK         0.0600 
    161 H161        4.5780  -19.8229  -38.3921 H         1 UNK         0.0600 
    162 H162        4.0621  -19.2627  -36.8051 H         1 UNK         0.0600 
    163 H163        5.2530  -18.3435  -37.7103 H         1 UNK         0.0600 
    164 H164        4.2965  -18.2797  -40.2565 H         1 UNK         0.3000 
    165 H165        4.7285  -16.5641  -41.9102 H         1 UNK         0.0600 
    166 H166        1.8845  -17.3078  -42.8106 H         1 UNK         0.0600 
    167 H167        3.3093  -17.2962  -43.8466 H         1 UNK         0.0600 
    168 H168        3.1910  -18.4475  -42.5248 H         1 UNK         0.0600 
    169 H169        2.5622  -14.9847  -43.0011 H         1 UNK         0.3000 
    170 H170        3.7077  -11.8210  -41.8102 H         1 UNK         0.0600 
    171 H171        4.8731  -12.2307  -43.9572 H         1 UNK         0.0600 
    172 H172        3.4732  -13.0821  -44.5942 H         1 UNK         0.0600 
    173 H173        3.3722  -11.3598  -44.2331 H         1 UNK         0.0600 
    174 H174        1.4189  -13.1019  -43.1871 H         1 UNK         0.3000 
    175 H175       -0.7277  -12.8653  -40.4219 H         1 UNK         0.0600 
    176 H176       -0.7263  -10.8401  -42.7245 H         1 UNK         0.0600 
    177 H177       -2.1290  -11.3094  -41.7629 H         1 UNK         0.0600 
    178 H178       -0.7960  -10.4482  -41.0108 H         1 UNK         0.0600 
    179 H179       -0.9741  -13.2063  -43.3281 H         1 UNK         0.3000 
    180 H180       -0.5024  -16.6580  -43.3158 H         1 UNK         0.0600 
    181 H181       -2.8164  -16.7556  -42.4487 H         1 UNK         0.0600 
    182 H182       -3.2687  -15.3383  -43.3897 H         1 UNK         0.0600 
    183 H183       -2.8388  -16.8391  -44.2049 H         1 UNK         0.0600 
    184 H184       -1.6297  -15.0844  -45.3363 H         1 UNK         0.3000 
    185 H185        0.3208  -13.2638  -46.6179 H         1 UNK         0.0600 
    186 H186        2.6240  -14.1297  -46.7096 H         1 UNK         0.0600 
    187 H187        2.0592  -15.7096  -47.2344 H         1 UNK         0.0600 
    188 H188        1.8786  -14.3085  -48.2885 H         1 UNK         0.0600 
    189 H189       -1.1662  -14.1797  -47.9911 H         1 UNK         0.3000 
    190 H190       -1.2584  -23.3943  -45.2418 H         1 UNK         0.3000 
    191 H191        0.5164  -24.7804  -47.1022 H         1 UNK         0.0600 
    192 H192        1.9929  -24.9901  -45.1430 H         1 UNK         0.0600 
    193 H193        0.3600  -25.4635  -44.6989 H         1 UNK         0.0600 
    194 H194        0.9915  -23.8919  -44.2083 H         1 UNK         0.0600 
    195 H195        0.3713  -21.6230  -45.4210 H         1 UNK         0.3000 
    196 H196        2.7247  -20.4739  -46.5298 H         1 UNK         0.0600 
    197 H197        1.7008  -18.3320  -45.7632 H         1 UNK         0.0600 
    198 H198        1.5734  -19.5767  -44.5272 H         1 UNK         0.0600 
    199 H199        0.1666  -19.1491  -45.4939 H         1 UNK         0.0600 
    200 H200       -0.6280  -20.6091  -47.7405 H         1 UNK         0.3000 
    201 H201       -0.1820  -19.1508  -50.1670 H         1 UNK         0.0600 
    202 H202       -2.4469  -19.5685  -49.0467 H         1 UNK         0.0600 
    203 H203       -2.3431  -21.2414  -49.5676 H         1 UNK         0.0600 
    204 H204       -2.4109  -19.9490  -50.7524 H         1 UNK         0.0600 
    205 H205        1.2218  -22.0539  -49.3326 H         1 UNK         0.3000 
    206 H206        2.2169  -23.7353  -50.3519 H         1 UNK         0.0600 
    207 H207        3.2784  -21.9085  -51.6982 H         1 UNK         0.0600 
    208 H208        3.1375  -23.4005  -52.6144 H         1 UNK         0.0600 
    209 H209        2.0249  -22.0772  -52.9252 H         1 UNK         0.0600 
    210 H210       -0.3924  -24.1911  -49.8584 H         1 UNK         0.3000 
    211 H211       -2.0990  -25.5301  -50.1927 H         1 UNK         0.0600 
    212 H212       -0.6042  -26.8227  -52.5352 H         1 UNK         0.0600 
    213 H213       -1.9809  -27.4853  -51.6693 H         1 UNK         0.0600 
    214 H214       -0.4424  -27.2956  -50.8441 H         1 UNK         0.0600 
    215 H215       -2.1885  -23.0094  -51.0831 H         1 UNK         0.3000 
    216 H216       -3.5113  -21.5383  -52.0495 H         1 UNK         0.0600 
    217 H217       -5.0879  -23.7900  -53.3778 H         1 UNK         0.0600 
    218 H218       -5.6325  -22.1586  -53.0306 H         1 UNK         0.0600 
    219 H219       -5.3184  -23.2733  -51.7112 H         1 UNK         0.0600 
    220 H220       -1.1924  -23.0132  -53.6375 H         1 UNK         0.3000 
    221 H221       -1.7702  -22.3761  -56.4056 H         1 UNK         0.0600 
    222 H222        0.8873  -23.0915  -55.0639 H         1 UNK         0.0600 
    223 H223       -0.2581  -24.2555  -55.7287 H         1 UNK         0.0600 
    224 H224        0.5488  -23.1081  -56.7886 H         1 UNK         0.0600 
    225 H225        0.0360  -20.7871  -53.7354 H         1 UNK         0.3000 
    226 H226        1.1066  -18.6731  -55.4468 H         1 UNK         0.0600 
    227 H227        2.3129  -19.5211  -53.3969 H         1 UNK         0.0600 
    228 H228        2.0282  -17.7869  -53.3607 H         1 UNK         0.0600 
    229 H229        1.0284  -18.8508  -52.3899 H         1 UNK         0.0600 
    230 H230       -1.6929  -19.1888  -53.3883 H         1 UNK         0.3000 
    231 H231       -2.6890  -16.4447  -53.5204 H         1 UNK         0.0600 
    232 H232       -3.9738  -19.0624  -52.5918 H         1 UNK         0.0600 
    233 H233       -3.1889  -17.8565  -51.5711 H         1 UNK         0.0600 
    234 H234       -4.6810  -17.4611  -52.4026 H         1 UNK         0.0600 
    235 H235       -2.6610  -19.1202  -55.6400 H         1 UNK         0.3000 
    236 H236       -3.4895  -19.6287  -57.6085 H         1 UNK         0.0600 
    237 H237       -2.6398  -17.3656  -58.2260 H         1 UNK         0.0600 
    238 H238       -4.0385  -17.8129  -59.1891 H         1 UNK         0.0600 
    239 H239       -4.2176  -16.6632  -57.8708 H         1 UNK         0.0600 
    240 H240       -5.0869  -20.4064  -55.6141 H         1 UNK         0.3000 
    241 H241       -7.7928  -20.3129  -56.7931 H         1 UNK         0.0600 
    242 H242       -5.3730  -22.4130  -56.0379 H         1 UNK         0.3800 
    243 H243       -6.3929  -23.7794  -55.6701 H         1 UNK         0.3800 
    244 H244       -8.8536  -19.9184  -54.5711 H         1 UNK         0.0800 
    245 H245       -7.9372  -18.5645  -55.1530 H         1 UNK         0.0800 
    246 H246       -8.3144  -21.2724  -52.4979 H         1 UNK         0.0800 
    247 H247       -8.8310  -19.7149  -51.8836 H         1 UNK         0.0800 
@<TRIPOS>BOND
     1    1    2 1    
     2    1  127 1    
     3    1  128 1    
     4    1  129 1    
     5    2    3 2    
     6    2    4 am   BACKBONE|DICT|INTERRES
     7    4    5 1    
     8    4  130 1    
     9    5    6 1    
    10    5   65 1    
    11    5  131 1    
    12    6    7 1    
    13    6  132 1    
    14    6  133 1    
    15    7    8 1    
    16    8    9 1    
    17    8  134 1    
    18    8  135 1    
    19    9   10 ar   
    20    9   14 ar   
    21   10   11 ar   
    22   10  136 1    
    23   11   12 ar   
    24   11  126 1    
    25   12   13 ar   
    26   12  137 1    
    27   13   14 ar   
    28   13   15 1    
    29   14  138 1    
    30   15   16 1    
    31   15  139 1    
    32   15  140 1    
    33   16   17 1    
    34   17   18 1    
    35   17  141 1    
    36   17  142 1    
    37   18   19 1    
    38   18   67 1    
    39   18  143 1    
    40   19   20 am   BACKBONE|DICT|INTERRES
    41   19  144 1    
    42   20   21 2    
    43   20   22 1    
    44   22   23 1    
    45   22   24 1    
    46   22  145 1    
    47   23  146 1    
    48   23  147 1    
    49   23  148 1    
    50   24   25 am   BACKBONE|DICT|INTERRES
    51   24  149 1    
    52   25   26 2    
    53   25   27 1    
    54   27   28 1    
    55   27   29 1    
    56   27  150 1    
    57   28  151 1    
    58   28  152 1    
    59   28  153 1    
    60   29   30 am   BACKBONE|DICT|INTERRES
    61   29  154 1    
    62   30   31 2    
    63   30   32 1    
    64   32   33 1    
    65   32   34 1    
    66   32  155 1    
    67   33  156 1    
    68   33  157 1    
    69   33  158 1    
    70   34   35 am   BACKBONE|DICT|INTERRES
    71   34  159 1    
    72   35   36 2    
    73   35   37 1    
    74   37   38 1    
    75   37   39 1    
    76   37  160 1    
    77   38  161 1    
    78   38  162 1    
    79   38  163 1    
    80   39   40 am   BACKBONE|DICT|INTERRES
    81   39  164 1    
    82   40   41 2    
    83   40   42 1    
    84   42   43 1    
    85   42   44 1    
    86   42  165 1    
    87   43  166 1    
    88   43  167 1    
    89   43  168 1    
    90   44   45 am   BACKBONE|DICT|INTERRES
    91   44  169 1    
    92   45   46 2    
    93   45   47 1    
    94   47   48 1    
    95   47   49 1    
    96   47  170 1    
    97   48  171 1    
    98   48  172 1    
    99   48  173 1    
   100   49   50 am   BACKBONE|DICT|INTERRES
   101   49  174 1    
   102   50   51 2    
   103   50   52 1    
   104   52   53 1    
   105   52   54 1    
   106   52  175 1    
   107   53  176 1    
   108   53  177 1    
   109   53  178 1    
   110   54   55 am   BACKBONE|DICT|INTERRES
   111   54  179 1    
   112   55   56 2    
   113   55   57 1    
   114   57   58 1    
   115   57   59 1    
   116   57  180 1    
   117   58  181 1    
   118   58  182 1    
   119   58  183 1    
   120   59   60 am   BACKBONE|DICT|INTERRES
   121   59  184 1    
   122   60   61 2    
   123   60   62 1    
   124   62   63 1    
   125   62   64 1    
   126   62  185 1    
   127   63  186 1    
   128   63  187 1    
   129   63  188 1    
   130   64   65 am   BACKBONE|DICT|INTERRES
   131   64  189 1    
   132   65   66 2    
   133   67   68 2    
   134   67   69 am   BACKBONE|DICT|INTERRES
   135   69   70 1    
   136   69  190 1    
   137   70   71 1    
   138   70   72 1    
   139   70  191 1    
   140   71  192 1    
   141   71  193 1    
   142   71  194 1    
   143   72   73 2    
   144   72   74 am   BACKBONE|DICT|INTERRES
   145   74   75 1    
   146   74  195 1    
   147   75   76 1    
   148   75   77 1    
   149   75  196 1    
   150   76  197 1    
   151   76  198 1    
   152   76  199 1    
   153   77   78 2    
   154   77   79 am   BACKBONE|DICT|INTERRES
   155   79   80 1    
   156   79  200 1    
   157   80   81 1    
   158   80   82 1    
   159   80  201 1    
   160   81  202 1    
   161   81  203 1    
   162   81  204 1    
   163   82   83 2    
   164   82   84 am   BACKBONE|DICT|INTERRES
   165   84   85 1    
   166   84  205 1    
   167   85   86 1    
   168   85   87 1    
   169   85  206 1    
   170   86  207 1    
   171   86  208 1    
   172   86  209 1    
   173   87   88 2    
   174   87   89 am   BACKBONE|DICT|INTERRES
   175   89   90 1    
   176   89  210 1    
   177   90   91 1    
   178   90   92 1    
   179   90  211 1    
   180   91  212 1    
   181   91  213 1    
   182   91  214 1    
   183   92   93 2    
   184   92   94 am   BACKBONE|DICT|INTERRES
   185   94   95 1    
   186   94  215 1    
   187   95   96 1    
   188   95   97 1    
   189   95  216 1    
   190   96  217 1    
   191   96  218 1    
   192   96  219 1    
   193   97   98 2    
   194   97   99 am   BACKBONE|DICT|INTERRES
   195   99  100 1    
   196   99  220 1    
   197  100  101 1    
   198  100  102 1    
   199  100  221 1    
   200  101  222 1    
   201  101  223 1    
   202  101  224 1    
   203  102  103 2    
   204  102  104 am   BACKBONE|DICT|INTERRES
   205  104  105 1    
   206  104  225 1    
   207  105  106 1    
   208  105  107 1    
   209  105  226 1    
   210  106  227 1    
   211  106  228 1    
   212  106  229 1    
   213  107  108 2    
   214  107  109 am   BACKBONE|DICT|INTERRES
   215  109  110 1    
   216  109  230 1    
   217  110  111 1    
   218  110  112 1    
   219  110  231 1    
   220  111  232 1    
   221  111  233 1    
   222  111  234 1    
   223  112  113 2    
   224  112  114 am   BACKBONE|DICT|INTERRES
   225  114  115 1    
   226  114  235 1    
   227  115  116 1    
   228  115  117 1    
   229  115  236 1    
   230  116  237 1    
   231  116  238 1    
   232  116  239 1    
   233  117  118 2    
   234  117  119 am   BACKBONE|DICT|INTERRES
   235  119  120 1    
   236  119  240 1    
   237  120  121 1    
   238  120  124 1    
   239  120  241 1    
   240  121  122 am   BACKBONE|DICT|INTERRES
   241  121  123 2    
   242  122  242 1    
   243  122  243 1    
   244  124  125 1    
   245  124  244 1    
   246  124  245 1    
   247  125  126 1    
   248  126  246 1    
   249  126  247 1    
@<TRIPOS>SUBSTRUCTURE
     1 UNK         1 GROUP             0       ****    0 ROOT    
