@<TRIPOS>MOLECULE
3R540
247   249    1
SMALL
USER_CHARGES


@<TRIPOS>ATOM
      1 CA          7.2031  -16.1300  -46.2947 C.3       0 UNK        -0.1800 
      2 C           6.0672  -15.1245  -46.1833 C.2       0 UNK         0.5000 
      3 O           5.7456  -14.6856  -45.0794 O.2       0 UNK        -0.5000 
      4 N           5.4729  -14.7420  -47.3230 N.am      1 UNK        -0.5000 
      5 CA          4.3044  -13.8540  -47.4578 C.3       1 UNK         0.1400 
      6 C6          3.8298  -13.7579  -48.9286 C.3       23 UNK        -0.0398 
      7 S7          3.1268  -15.3339  -49.5291 S.3       23 UNK        -0.2404 
      8 C8          1.3566  -14.8857  -49.6050 C.3       23 UNK        -0.0205 
      9 C9          0.3837  -15.9874  -50.0329 C.ar      23 UNK        -0.0193 
     10 C10        -0.9813  -15.6877  -50.0080 C.ar      23 UNK        -0.1150 
     11 C11        -1.9379  -16.6432  -50.3580 C.ar      23 UNK        -0.0193 
     12 C12        -1.5187  -17.9182  -50.7463 C.ar      23 UNK        -0.1150 
     13 C13        -0.1597  -18.2451  -50.7784 C.ar      23 UNK        -0.0193 
     14 C14         0.7862  -17.2688  -50.4359 C.ar      23 UNK        -0.1150 
     15 C15         0.2552  -19.6602  -51.1840 C.3       23 UNK        -0.0205 
     16 S16         1.6630  -20.3471  -50.2406 S.3       23 UNK        -0.2404 
     17 C17         1.0878  -20.1709  -48.5168 C.3       23 UNK        -0.0398 
     18 CA          0.7091  -21.4951  -47.8137 C.3       11 UNK         0.1400 
     19 N           0.4845  -21.2723  -46.3849 N.am      11 UNK        -0.5000 
     20 C           0.2592  -22.2149  -45.4618 C.2       10 UNK         0.5000 
     21 O           0.2535  -23.4208  -45.7002 O.2       10 UNK        -0.5000 
     22 CA         -0.0574  -21.7237  -44.0374 C.3       10 UNK         0.1400 
     23 CB          1.2284  -21.3416  -43.2899 C.3       10 UNK        -0.1800 
     24 N          -0.9917  -20.5964  -44.0240 N.am      10 UNK        -0.5000 
     25 C          -2.2590  -20.6635  -44.4592 C.2       9 UNK         0.5000 
     26 O          -2.7813  -21.6913  -44.8905 O.2       9 UNK        -0.5000 
     27 CA         -3.0690  -19.3552  -44.4496 C.3       9 UNK         0.1400 
     28 CB         -3.5734  -19.0384  -43.0341 C.3       9 UNK        -0.1800 
     29 N          -2.3120  -18.2162  -44.9672 N.am      9 UNK        -0.5000 
     30 C          -1.8294  -18.1296  -46.2158 C.2       8 UNK         0.5000 
     31 O          -1.9847  -18.9996  -47.0729 O.2       8 UNK        -0.5000 
     32 CA         -0.9601  -16.8982  -46.5296 C.3       8 UNK         0.1400 
     33 CB         -1.8174  -15.6329  -46.6761 C.3       8 UNK        -0.1800 
     34 N           0.0661  -16.6680  -45.5130 N.am      8 UNK        -0.5000 
     35 C           1.0202  -17.5477  -45.1816 C.2       7 UNK         0.5000 
     36 O           1.1612  -18.6427  -45.7192 O.2       7 UNK        -0.5000 
     37 CA          1.9565  -17.1628  -44.0312 C.3       7 UNK         0.1400 
     38 CB          3.1138  -16.3016  -44.5421 C.3       7 UNK        -0.1800 
     39 N           1.2535  -16.4728  -42.9536 N.am      7 UNK        -0.5000 
     40 C           0.4168  -17.0783  -42.1009 C.2       6 UNK         0.5000 
     41 O           0.1782  -18.2868  -42.1127 O.2       6 UNK        -0.5000 
     42 CA         -0.3045  -16.1639  -41.0953 C.3       6 UNK         0.1400 
     43 CB          0.6368  -15.7633  -39.9489 C.3       6 UNK        -0.1800 
     44 N          -0.8425  -14.9572  -41.7249 N.am      6 UNK        -0.5000 
     45 C          -1.8094  -14.9569  -42.6530 C.2       5 UNK         0.5000 
     46 O          -2.3603  -15.9756  -43.0698 O.2       5 UNK        -0.5000 
     47 CA         -2.2130  -13.5922  -43.2389 C.3       5 UNK         0.1400 
     48 CB         -3.3062  -12.9443  -42.3762 C.3       5 UNK        -0.1800 
     49 N          -1.1120  -12.6408  -43.4105 N.am      5 UNK        -0.5000 
     50 C           0.0261  -12.8481  -44.0887 C.2       4 UNK         0.5000 
     51 O           0.3507  -13.9359  -44.5694 O.2       4 UNK        -0.5000 
     52 CA          0.9487  -11.6305  -44.2987 C.3       4 UNK         0.1400 
     53 CB          0.4460  -10.3210  -43.6478 C.3       4 UNK        -0.1800 
     54 N           2.3316  -11.8986  -43.9047 N.am      4 UNK        -0.5000 
     55 C           2.7902  -12.2077  -42.6823 C.2       3 UNK         0.5000 
     56 O           2.0572  -12.3870  -41.7081 O.2       3 UNK        -0.5000 
     57 CA          4.3218  -12.3265  -42.5019 C.3       3 UNK         0.1400 
     58 CB          4.7087  -13.6909  -41.9118 C.3       3 UNK        -0.1800 
     59 N           5.0758  -12.1103  -43.7415 N.am      3 UNK        -0.5000 
     60 C           5.3779  -10.9084  -44.2586 C.2       2 UNK         0.5000 
     61 O           5.1344   -9.8444  -43.6888 O.2       2 UNK        -0.5000 
     62 CA          6.0198  -10.8792  -45.6650 C.3       2 UNK         0.1400 
     63 CB          7.5458  -10.7416  -45.5560 C.3       2 UNK        -0.1800 
     64 N           5.7069  -12.0570  -46.4795 N.am      2 UNK        -0.5000 
     65 C           4.4756  -12.4442  -46.8425 C.2       1 UNK         0.5000 
     66 O           3.4754  -11.7521  -46.6520 O.2       1 UNK        -0.5000 
     67 C          -0.5006  -22.1856  -48.4744 C.2       11 UNK         0.5000 
     68 O          -0.3236  -23.2054  -49.1414 O.2       11 UNK        -0.5000 
     69 N          -1.7091  -21.6540  -48.2376 N.am      12 UNK        -0.5000 
     70 CA         -2.9663  -22.2231  -48.7234 C.3       12 UNK         0.1400 
     71 CB         -4.1260  -21.2714  -48.3994 C.3       12 UNK        -0.1800 
     72 C          -3.2390  -23.6342  -48.1711 C.2       12 UNK         0.5000 
     73 O          -3.6609  -24.5058  -48.9324 O.2       12 UNK        -0.5000 
     74 N          -2.9587  -23.8467  -46.8770 N.am      13 UNK        -0.5000 
     75 CA         -3.0643  -25.1439  -46.2089 C.3       13 UNK         0.1400 
     76 CB         -2.8986  -24.9675  -44.6922 C.3       13 UNK        -0.1800 
     77 C          -2.0621  -26.1759  -46.7555 C.2       13 UNK         0.5000 
     78 O          -2.4609  -27.3026  -47.0502 O.2       13 UNK        -0.5000 
     79 N          -0.7953  -25.7690  -46.9232 N.am      14 UNK        -0.5000 
     80 CA          0.2810  -26.5891  -47.4877 C.3       14 UNK         0.1400 
     81 CB          1.6201  -25.8492  -47.3500 C.3       14 UNK        -0.1800 
     82 C           0.0305  -26.9846  -48.9542 C.2       14 UNK         0.5000 
     83 O           0.3407  -28.1109  -49.3434 O.2       14 UNK        -0.5000 
     84 N          -0.5636  -26.0664  -49.7270 N.am      15 UNK        -0.5000 
     85 CA         -1.0093  -26.2906  -51.1016 C.3       15 UNK         0.1400 
     86 CB         -1.1956  -24.9279  -51.7887 C.3       15 UNK        -0.1800 
     87 C          -2.3080  -27.1162  -51.2020 C.2       15 UNK         0.5000 
     88 O          -2.6992  -27.4654  -52.3142 O.2       15 UNK        -0.5000 
     89 N          -2.9820  -27.3774  -50.0708 N.am      16 UNK        -0.5000 
     90 CA         -4.2883  -28.0375  -49.9541 C.3       16 UNK         0.1400 
     91 CB         -4.1770  -29.5331  -50.3149 C.3       16 UNK        -0.1800 
     92 C          -5.3880  -27.2992  -50.7488 C.2       16 UNK         0.5000 
     93 O          -6.2035  -27.9299  -51.4231 O.2       16 UNK        -0.5000 
     94 N          -5.3463  -25.9607  -50.6775 N.am      17 UNK        -0.5000 
     95 CA         -6.1851  -24.9787  -51.3704 C.3       17 UNK         0.1400 
     96 CB         -7.6748  -25.1608  -51.0160 C.3       17 UNK        -0.1800 
     97 C          -5.9588  -24.8835  -52.8952 C.2       17 UNK         0.5000 
     98 O          -6.6256  -24.0723  -53.5393 O.2       17 UNK        -0.5000 
     99 N          -5.0024  -25.6409  -53.4593 N.am      18 UNK        -0.5000 
    100 CA        -4.6734  -25.6283  -54.8928 C.3       18 UNK         0.1400 
    101 CB        -3.7666  -26.8205  -55.2303 C.3       18 UNK        -0.1800 
    102 C         -4.0278  -24.3109  -55.3688 C.2       18 UNK         0.5000 
    103 O         -4.0353  -24.0299  -56.5677 O.2       18 UNK        -0.5000 
    104 N         -3.5118  -23.5143  -54.4220 N.am      19 UNK        -0.5000 
    105 CA        -3.0308  -22.1486  -54.6355 C.3       19 UNK         0.1400 
    106 CB        -2.2541  -21.6974  -53.3863 C.3       19 UNK        -0.1800 
    107 C         -4.1599  -21.1446  -54.9546 C.2       19 UNK         0.5000 
    108 O         -3.8658  -20.0661  -55.4722 O.2       19 UNK        -0.5000 
    109 N         -5.4146  -21.5092  -54.6384 N.am      20 UNK        -0.5000 
    110 CA        -6.6291  -20.6969  -54.7418 C.3       20 UNK         0.1400 
    111 CB        -6.9820  -20.4272  -56.2221 C.3       20 UNK        -0.1800 
    112 C         -6.5332  -19.4293  -53.8655 C.2       20 UNK         0.5000 
    113 O         -5.9804  -19.5065  -52.7646 O.2       20 UNK        -0.5000 
    114 N         -7.0713  -18.3015  -54.3542 N.am      21 UNK        -0.5000 
    115 CA        -7.0435  -16.9666  -53.7482 C.3       21 UNK         0.1400 
    116 CB        -5.6228  -16.3680  -53.8547 C.3       21 UNK        -0.1800 
    117 C         -7.6171  -16.9585  -52.3157 C.2       21 UNK         0.5000 
    118 O         -8.8386  -16.9698  -52.1553 O.2       21 UNK        -0.5000 
    119 N         -6.7316  -16.9515  -51.3135 N.am      22 UNK        -0.5000 
    120 CA        -7.0608  -17.0496  -49.8860 C.3       22 UNK         0.1400 
    121 C         -7.4778  -18.4728  -49.4059 C.2       22 UNK         0.5000 
    122 N         -7.2612  -19.5302  -50.1796 N.am      22 UNK        -0.7600 
    123 O         -8.0260  -18.6146  -48.3161 O.2       22 UNK        -0.5000 
    124 C124       -5.9361  -16.4396  -49.0105 C.3       23 UNK        -0.0398 
    125 S125       -4.3326  -17.3116  -49.1232 S.3       23 UNK        -0.2404 
    126 C126       -3.4190  -16.2898  -50.3224 C.3       23 UNK        -0.0205 
    127 H127        8.1216  -15.7039  -45.8911 H         1 UNK         0.0600 
    128 H128        7.3874  -16.4217  -47.3289 H         1 UNK         0.0600 
    129 H129        6.9632  -17.0277  -45.7250 H         1 UNK         0.0600 
    130 H130        5.7978  -15.1430  -48.1914 H         1 UNK         0.3000 
    131 H131        3.4996  -14.3156  -46.8825 H         1 UNK         0.0600 
    132 H132        3.0787  -12.9748  -49.0495 H         1 UNK         0.0800 
    133 H133        4.6585  -13.4738  -49.5791 H         1 UNK         0.0800 
    134 H134        1.2428  -14.0455  -50.2915 H         1 UNK         0.0800 
    135 H135        1.0560  -14.5277  -48.6186 H         1 UNK         0.0800 
    136 H136       -1.3013  -14.7011  -49.7028 H         1 UNK         0.1150 
    137 H137       -2.2591  -18.6605  -51.0111 H         1 UNK         0.1150 
    138 H138        1.8345  -17.5234  -50.4713 H         1 UNK         0.1150 
    139 H139       -0.5873  -20.3452  -51.0752 H         1 UNK         0.0800 
    140 H140        0.5133  -19.6560  -52.2435 H         1 UNK         0.0800 
    141 H141        0.2628  -19.4612  -48.4574 H         1 UNK         0.0800 
    142 H142        1.9109  -19.7021  -47.9768 H         1 UNK         0.0800 
    143 H143        1.5588  -22.1757  -47.8975 H         1 UNK         0.0600 
    144 H144        0.5166  -20.3006  -46.0823 H         1 UNK         0.3000 
    145 H145       -0.5271  -22.5497  -43.4996 H         1 UNK         0.0600 
    146 H146        1.0157  -21.0596  -42.2586 H         1 UNK         0.0600 
    147 H147        1.9261  -22.1795  -43.2612 H         1 UNK         0.0600 
    148 H148        1.7396  -20.5051  -43.7662 H         1 UNK         0.0600 
    149 H149       -0.6396  -19.7152  -43.6706 H         1 UNK         0.3000 
    150 H150       -3.9364  -19.4978  -45.0974 H         1 UNK         0.0600 
    151 H151       -4.1429  -19.8738  -42.6248 H         1 UNK         0.0600 
    152 H152       -4.2291  -18.1675  -43.0364 H         1 UNK         0.0600 
    153 H153       -2.7490  -18.8331  -42.3497 H         1 UNK         0.0600 
    154 H154       -2.1518  -17.4481  -44.3211 H         1 UNK         0.3000 
    155 H155       -0.4498  -17.0833  -47.4761 H         1 UNK         0.0600 
    156 H156       -2.3887  -15.4293  -45.7726 H         1 UNK         0.0600 
    157 H157       -2.5326  -15.7371  -47.4895 H         1 UNK         0.0600 
    158 H158       -1.2028  -14.7593  -46.8936 H         1 UNK         0.0600 
    159 H159        0.0574  -15.7642  -45.0482 H         1 UNK         0.3000 
    160 H160        2.3809  -18.0871  -43.6335 H         1 UNK         0.0600 
    161 H161        2.8062  -15.2738  -44.7370 H         1 UNK         0.0600 
    162 H162        3.5272  -16.7045  -45.4678 H         1 UNK         0.0600 
    163 H163        3.9244  -16.2860  -43.8161 H         1 UNK         0.0600 
    164 H164        1.3298  -15.4657  -42.9284 H         1 UNK         0.3000 
    165 H165       -1.1396  -16.7267  -40.6728 H         1 UNK         0.0600 
    166 H166        0.1078  -15.1896  -39.1877 H         1 UNK         0.0600 
    167 H167        1.0536  -16.6446  -39.4597 H         1 UNK         0.0600 
    168 H168        1.4720  -15.1577  -40.3040 H         1 UNK         0.0600 
    169 H169       -0.4251  -14.0754  -41.4627 H         1 UNK         0.3000 
    170 H170       -2.6347  -13.7719  -44.2282 H         1 UNK         0.0600 
    171 H171       -4.1538  -13.6189  -42.2471 H         1 UNK         0.0600 
    172 H172       -2.9359  -12.6884  -41.3827 H         1 UNK         0.0600 
    173 H173       -3.6869  -12.0333  -42.8384 H         1 UNK         0.0600 
    174 H174       -1.2697  -11.7154  -43.0391 H         1 UNK         0.3000 
    175 H175        0.9729  -11.4660  -45.3767 H         1 UNK         0.0600 
    176 H176        0.3659  -10.4029  -42.5632 H         1 UNK         0.0600 
    177 H177        1.1259   -9.4967  -43.8641 H         1 UNK         0.0600 
    178 H178       -0.5315  -10.0335  -44.0368 H         1 UNK         0.0600 
    179 H179        3.0020  -11.8196  -44.6604 H         1 UNK         0.3000 
    180 H180        4.6127  -11.5617  -41.7790 H         1 UNK         0.0600 
    181 H181        4.4258  -14.5048  -42.5752 H         1 UNK         0.0600 
    182 H182        4.2165  -13.8619  -40.9535 H         1 UNK         0.0600 
    183 H183        5.7832  -13.7568  -41.7410 H         1 UNK         0.0600 
    184 H184        5.3221  -12.9465  -44.2654 H         1 UNK         0.3000 
    185 H185        5.6305  -10.0015  -46.1849 H         1 UNK         0.0600 
    186 H186        7.8184   -9.8577  -44.9778 H         1 UNK         0.0600 
    187 H187        7.9926  -11.6067  -45.0642 H         1 UNK         0.0600 
    188 H188        8.0046  -10.6390  -46.5396 H         1 UNK         0.0600 
    189 H189        6.4681  -12.6968  -46.6541 H         1 UNK         0.3000 
    190 H190       -1.7777  -20.7956  -47.6951 H         1 UNK         0.3000 
    191 H191       -2.8919  -22.3050  -49.8096 H         1 UNK         0.0600 
    192 H192       -4.2195  -21.0998  -47.3265 H         1 UNK         0.0600 
    193 H193       -5.0757  -21.6721  -48.7556 H         1 UNK         0.0600 
    194 H194       -3.9823  -20.3037  -48.8797 H         1 UNK         0.0600 
    195 H195       -2.6607  -23.0632  -46.3031 H         1 UNK         0.3000 
    196 H196       -4.0690  -25.5301  -46.3933 H         1 UNK         0.0600 
    197 H197       -2.9840  -25.9241  -44.1754 H         1 UNK         0.0600 
    198 H198       -3.6673  -24.3094  -44.2868 H         1 UNK         0.0600 
    199 H199       -1.9276  -24.5419  -44.4382 H         1 UNK         0.0600 
    200 H200       -0.5346  -24.8330  -46.6196 H         1 UNK         0.3000 
    201 H201        0.3389  -27.5093  -46.9028 H         1 UNK         0.0600 
    202 H202        1.8542  -25.6506  -46.3041 H         1 UNK         0.0600 
    203 H203        1.6072  -24.8944  -47.8770 H         1 UNK         0.0600 
    204 H204        2.4394  -26.4412  -47.7597 H         1 UNK         0.0600 
    205 H205       -0.7168  -25.1357  -49.3485 H         1 UNK         0.3000 
    206 H206       -0.2311  -26.8389  -51.6361 H         1 UNK         0.0600 
    207 H207       -0.2752  -24.3443  -51.7628 H         1 UNK         0.0600 
    208 H208       -1.4702  -25.0504  -52.8370 H         1 UNK         0.0600 
    209 H209       -1.9774  -24.3393  -51.3071 H         1 UNK         0.0600 
    210 H210       -2.5908  -27.0446  -49.1981 H         1 UNK         0.3000 
    211 H211       -4.5735  -27.9703  -48.9034 H         1 UNK         0.0600 
    212 H212       -3.9419  -29.6807  -51.3693 H         1 UNK         0.0600 
    213 H213       -5.1134  -30.0542  -50.1125 H         1 UNK         0.0600 
    214 H214       -3.4005  -30.0219  -49.7265 H         1 UNK         0.0600 
    215 H215       -4.6323  -25.5488  -50.0772 H         1 UNK         0.3000 
    216 H216       -5.8771  -24.0111  -50.9712 H         1 UNK         0.0600 
    217 H217       -8.2702  -24.3280  -51.3920 H         1 UNK         0.0600 
    218 H218       -7.8217  -25.2005  -49.9367 H         1 UNK         0.0600 
    219 H219       -8.0880  -26.0730  -51.4465 H         1 UNK         0.0600 
    220 H220       -4.4780  -26.2887  -52.8831 H         1 UNK         0.3000 
    221 H221       -5.6071  -25.7505  -55.4456 H         1 UNK         0.0600 
    222 H222       -2.7711  -26.7026  -54.8018 H         1 UNK         0.0600 
    223 H223       -4.1855  -27.7574  -54.8623 H         1 UNK         0.0600 
    224 H224       -3.6436  -26.9204  -56.3094 H         1 UNK         0.0600 
    225 H225       -3.5432  -23.8391  -53.4680 H         1 UNK         0.3000 
    226 H226       -2.3453  -22.1541  -55.4854 H         1 UNK         0.0600 
    227 H227       -1.8775  -20.6806  -53.5061 H         1 UNK         0.0600 
    228 H228       -2.8817  -21.7093  -52.4943 H         1 UNK         0.0600 
    229 H229       -1.3923  -22.3386  -53.2023 H         1 UNK         0.0600 
    230 H230       -5.5553  -22.4188  -54.2148 H         1 UNK         0.3000 
    231 H231       -7.4314  -21.2999  -54.3147 H         1 UNK         0.0600 
    232 H232       -6.9866  -21.3545  -56.7953 H         1 UNK         0.0600 
    233 H233       -6.2705  -19.7502  -56.6963 H         1 UNK         0.0600 
    234 H234       -7.9763  -19.9903  -56.3204 H         1 UNK         0.0600 
    235 H235       -7.5320  -18.3559  -55.2514 H         1 UNK         0.3000 
    236 H236       -7.7071  -16.3381  -54.3441 H         1 UNK         0.0600 
    237 H237       -5.5671  -15.3898  -53.3751 H         1 UNK         0.0600 
    238 H238       -4.8678  -17.0097  -53.4001 H         1 UNK         0.0600 
    239 H239       -5.3414  -16.2289  -54.8985 H         1 UNK         0.0600 
    240 H240       -5.7524  -17.0270  -51.5424 H         1 UNK         0.3000 
    241 H241       -7.9438  -16.4281  -49.7252 H         1 UNK         0.0600 
    242 H242       -6.7851  -19.4336  -51.0734 H         1 UNK         0.3800 
    243 H243       -7.5454  -20.4411  -49.8601 H         1 UNK         0.3800 
    244 H244       -6.2404  -16.4356  -47.9626 H         1 UNK         0.0800 
    245 H245       -5.7962  -15.3900  -49.2713 H         1 UNK         0.0800 
    246 H246       -3.8388  -16.4268  -51.3177 H         1 UNK         0.0800 
    247 H247       -3.5509  -15.2365  -50.0706 H         1 UNK         0.0800 
@<TRIPOS>BOND
     1    1    2 1    
     2    1  127 1    
     3    1  128 1    
     4    1  129 1    
     5    2    3 2    
     6    2    4 am   BACKBONE|DICT|INTERRES
     7    4    5 1    
     8    4  130 1    
     9    5    6 1    
    10    5   65 1    
    11    5  131 1    
    12    6    7 1    
    13    6  132 1    
    14    6  133 1    
    15    7    8 1    
    16    8    9 1    
    17    8  134 1    
    18    8  135 1    
    19    9   10 ar   
    20    9   14 ar   
    21   10   11 ar   
    22   10  136 1    
    23   11   12 ar   
    24   11  126 1    
    25   12   13 ar   
    26   12  137 1    
    27   13   14 ar   
    28   13   15 1    
    29   14  138 1    
    30   15   16 1    
    31   15  139 1    
    32   15  140 1    
    33   16   17 1    
    34   17   18 1    
    35   17  141 1    
    36   17  142 1    
    37   18   19 1    
    38   18   67 1    
    39   18  143 1    
    40   19   20 am   BACKBONE|DICT|INTERRES
    41   19  144 1    
    42   20   21 2    
    43   20   22 1    
    44   22   23 1    
    45   22   24 1    
    46   22  145 1    
    47   23  146 1    
    48   23  147 1    
    49   23  148 1    
    50   24   25 am   BACKBONE|DICT|INTERRES
    51   24  149 1    
    52   25   26 2    
    53   25   27 1    
    54   27   28 1    
    55   27   29 1    
    56   27  150 1    
    57   28  151 1    
    58   28  152 1    
    59   28  153 1    
    60   29   30 am   BACKBONE|DICT|INTERRES
    61   29  154 1    
    62   30   31 2    
    63   30   32 1    
    64   32   33 1    
    65   32   34 1    
    66   32  155 1    
    67   33  156 1    
    68   33  157 1    
    69   33  158 1    
    70   34   35 am   BACKBONE|DICT|INTERRES
    71   34  159 1    
    72   35   36 2    
    73   35   37 1    
    74   37   38 1    
    75   37   39 1    
    76   37  160 1    
    77   38  161 1    
    78   38  162 1    
    79   38  163 1    
    80   39   40 am   BACKBONE|DICT|INTERRES
    81   39  164 1    
    82   40   41 2    
    83   40   42 1    
    84   42   43 1    
    85   42   44 1    
    86   42  165 1    
    87   43  166 1    
    88   43  167 1    
    89   43  168 1    
    90   44   45 am   BACKBONE|DICT|INTERRES
    91   44  169 1    
    92   45   46 2    
    93   45   47 1    
    94   47   48 1    
    95   47   49 1    
    96   47  170 1    
    97   48  171 1    
    98   48  172 1    
    99   48  173 1    
   100   49   50 am   BACKBONE|DICT|INTERRES
   101   49  174 1    
   102   50   51 2    
   103   50   52 1    
   104   52   53 1    
   105   52   54 1    
   106   52  175 1    
   107   53  176 1    
   108   53  177 1    
   109   53  178 1    
   110   54   55 am   BACKBONE|DICT|INTERRES
   111   54  179 1    
   112   55   56 2    
   113   55   57 1    
   114   57   58 1    
   115   57   59 1    
   116   57  180 1    
   117   58  181 1    
   118   58  182 1    
   119   58  183 1    
   120   59   60 am   BACKBONE|DICT|INTERRES
   121   59  184 1    
   122   60   61 2    
   123   60   62 1    
   124   62   63 1    
   125   62   64 1    
   126   62  185 1    
   127   63  186 1    
   128   63  187 1    
   129   63  188 1    
   130   64   65 am   BACKBONE|DICT|INTERRES
   131   64  189 1    
   132   65   66 2    
   133   67   68 2    
   134   67   69 am   BACKBONE|DICT|INTERRES
   135   69   70 1    
   136   69  190 1    
   137   70   71 1    
   138   70   72 1    
   139   70  191 1    
   140   71  192 1    
   141   71  193 1    
   142   71  194 1    
   143   72   73 2    
   144   72   74 am   BACKBONE|DICT|INTERRES
   145   74   75 1    
   146   74  195 1    
   147   75   76 1    
   148   75   77 1    
   149   75  196 1    
   150   76  197 1    
   151   76  198 1    
   152   76  199 1    
   153   77   78 2    
   154   77   79 am   BACKBONE|DICT|INTERRES
   155   79   80 1    
   156   79  200 1    
   157   80   81 1    
   158   80   82 1    
   159   80  201 1    
   160   81  202 1    
   161   81  203 1    
   162   81  204 1    
   163   82   83 2    
   164   82   84 am   BACKBONE|DICT|INTERRES
   165   84   85 1    
   166   84  205 1    
   167   85   86 1    
   168   85   87 1    
   169   85  206 1    
   170   86  207 1    
   171   86  208 1    
   172   86  209 1    
   173   87   88 2    
   174   87   89 am   BACKBONE|DICT|INTERRES
   175   89   90 1    
   176   89  210 1    
   177   90   91 1    
   178   90   92 1    
   179   90  211 1    
   180   91  212 1    
   181   91  213 1    
   182   91  214 1    
   183   92   93 2    
   184   92   94 am   BACKBONE|DICT|INTERRES
   185   94   95 1    
   186   94  215 1    
   187   95   96 1    
   188   95   97 1    
   189   95  216 1    
   190   96  217 1    
   191   96  218 1    
   192   96  219 1    
   193   97   98 2    
   194   97   99 am   BACKBONE|DICT|INTERRES
   195   99  100 1    
   196   99  220 1    
   197  100  101 1    
   198  100  102 1    
   199  100  221 1    
   200  101  222 1    
   201  101  223 1    
   202  101  224 1    
   203  102  103 2    
   204  102  104 am   BACKBONE|DICT|INTERRES
   205  104  105 1    
   206  104  225 1    
   207  105  106 1    
   208  105  107 1    
   209  105  226 1    
   210  106  227 1    
   211  106  228 1    
   212  106  229 1    
   213  107  108 2    
   214  107  109 am   BACKBONE|DICT|INTERRES
   215  109  110 1    
   216  109  230 1    
   217  110  111 1    
   218  110  112 1    
   219  110  231 1    
   220  111  232 1    
   221  111  233 1    
   222  111  234 1    
   223  112  113 2    
   224  112  114 am   BACKBONE|DICT|INTERRES
   225  114  115 1    
   226  114  235 1    
   227  115  116 1    
   228  115  117 1    
   229  115  236 1    
   230  116  237 1    
   231  116  238 1    
   232  116  239 1    
   233  117  118 2    
   234  117  119 am   BACKBONE|DICT|INTERRES
   235  119  120 1    
   236  119  240 1    
   237  120  121 1    
   238  120  124 1    
   239  120  241 1    
   240  121  122 am   BACKBONE|DICT|INTERRES
   241  121  123 2    
   242  122  242 1    
   243  122  243 1    
   244  124  125 1    
   245  124  244 1    
   246  124  245 1    
   247  125  126 1    
   248  126  246 1    
   249  126  247 1    
@<TRIPOS>SUBSTRUCTURE
     1 UNK         1 GROUP             0       ****    0 ROOT    
