@<TRIPOS>MOLECULE
3R540
247   249    1
SMALL
USER_CHARGES


@<TRIPOS>ATOM
      1 CA          2.8363   -7.1847  -49.8859 C.3       0 UNK        -0.1800 
      2 C           2.3575   -8.5513  -50.3567 C.2       0 UNK         0.5000 
      3 O           1.6936   -8.6370  -51.3890 O.2       0 UNK        -0.5000 
      4 N           2.7096   -9.6049  -49.6066 N.am      1 UNK        -0.5000 
      5 CA          2.3303  -11.0097  -49.7974 C.3       1 UNK         0.1400 
      6 C6          2.6698  -11.5679  -51.2075 C.3       23 UNK        -0.0398 
      7 S7          2.8902  -13.3790  -51.1909 S.3       23 UNK        -0.2404 
      8 C8          1.2560  -13.9577  -51.7485 C.3       23 UNK        -0.0205 
      9 C9          0.8041  -15.1784  -50.9620 C.ar      23 UNK        -0.0193 
     10 C10         1.3408  -16.4340  -51.2562 C.ar      23 UNK        -0.1150 
     11 C11         0.9157  -17.5660  -50.5581 C.ar      23 UNK        -0.0193 
     12 C12        -0.0564  -17.4400  -49.5620 C.ar      23 UNK        -0.1150 
     13 C13        -0.6037  -16.1910  -49.2575 C.ar      23 UNK        -0.0193 
     14 C14        -0.1646  -15.0621  -49.9586 C.ar      23 UNK        -0.1150 
     15 C15        -1.7145  -16.0716  -48.2221 C.3       23 UNK        -0.0205 
     16 S16        -1.1073  -15.8903  -46.5094 S.3       23 UNK        -0.2404 
     17 C17        -0.3694  -17.5114  -46.0886 C.3       23 UNK        -0.0398 
     18 CA         -1.3544  -18.7044  -46.1171 C.3       11 UNK         0.1400 
     19 N          -0.6616  -19.9987  -46.1719 N.am      11 UNK        -0.5000 
     20 C          -1.2507  -21.1495  -46.5378 C.2       10 UNK         0.5000 
     21 O          -2.4255  -21.2054  -46.9078 O.2       10 UNK        -0.5000 
     22 CA         -0.4313  -22.4514  -46.4230 C.3       10 UNK         0.1400 
     23 CB         -0.8685  -23.5168  -47.4486 C.3       10 UNK        -0.1800 
     24 N           1.0166  -22.2362  -46.4615 N.am      10 UNK        -0.5000 
     25 C           1.7383  -21.7703  -47.4920 C.2       9 UNK         0.5000 
     26 O           1.2524  -21.5145  -48.5906 O.2       9 UNK        -0.5000 
     27 CA          3.2399  -21.5081  -47.2535 C.3       9 UNK         0.1400 
     28 CB          3.5839  -20.0353  -47.5349 C.3       9 UNK        -0.1800 
     29 N           3.6381  -21.8182  -45.8799 N.am      9 UNK        -0.5000 
     30 C           4.1526  -22.9852  -45.4683 C.2       8 UNK         0.5000 
     31 O           4.4356  -23.9146  -46.2242 O.2       8 UNK        -0.5000 
     32 CA          4.3590  -23.1532  -43.9484 C.3       8 UNK         0.1400 
     33 CB          5.8072  -22.8162  -43.5625 C.3       8 UNK        -0.1800 
     34 N           3.4483  -22.3327  -43.1438 N.am      8 UNK        -0.5000 
     35 C           2.1161  -22.4796  -43.0988 C.2       7 UNK         0.5000 
     36 O           1.5056  -23.3567  -43.7077 O.2       7 UNK        -0.5000 
     37 CA          1.3257  -21.4282  -42.3009 C.3       7 UNK         0.1400 
     38 CB          1.1110  -21.8921  -40.8534 C.3       7 UNK        -0.1800 
     39 N           1.9682  -20.1139  -42.2954 N.am      7 UNK        -0.5000 
     40 C           2.1501  -19.3247  -43.3610 C.2       6 UNK         0.5000 
     41 O           1.7535  -19.6177  -44.4925 O.2       6 UNK        -0.5000 
     42 CA          2.9041  -18.0019  -43.0978 C.3       6 UNK         0.1400 
     43 CB          3.1800  -17.1998  -44.3817 C.3       6 UNK        -0.1800 
     44 N           2.2007  -17.1522  -42.1327 N.am      6 UNK        -0.5000 
     45 C           2.1542  -17.3588  -40.8056 C.2       5 UNK         0.5000 
     46 O           2.7687  -18.2683  -40.2455 O.2       5 UNK        -0.5000 
     47 CA          1.2629  -16.4288  -39.9548 C.3       5 UNK         0.1400 
     48 CB          2.1191  -15.3678  -39.2468 C.3       5 UNK        -0.1800 
     49 N           0.2173  -15.7522  -40.7204 N.am      5 UNK        -0.5000 
     50 C          -0.7966  -16.3507  -41.3613 C.2       4 UNK         0.5000 
     51 O          -1.0438  -17.5503  -41.2647 O.2       4 UNK        -0.5000 
     52 CA         -1.6559  -15.4719  -42.2956 C.3       4 UNK         0.1400 
     53 CB         -3.0620  -15.2719  -41.7108 C.3       4 UNK        -0.1800 
     54 N          -1.0692  -14.1591  -42.5950 N.am      4 UNK        -0.5000 
     55 C           0.0804  -13.9642  -43.2545 C.2       3 UNK         0.5000 
     56 O           0.8002  -14.8804  -43.6593 O.2       3 UNK        -0.5000 
     57 CA          0.5463  -12.5065  -43.4046 C.3       3 UNK         0.1400 
     58 CB          1.5367  -12.1485  -42.2852 C.3       3 UNK        -0.1800 
     59 N           1.1955  -12.3069  -44.6969 N.am      3 UNK        -0.5000 
     60 C           0.5325  -12.2174  -45.8541 C.2       2 UNK         0.5000 
     61 O          -0.6986  -12.1603  -45.9376 O.2       2 UNK        -0.5000 
     62 CA          1.3899  -12.1968  -47.1278 C.3       2 UNK         0.1400 
     63 CB          1.9871  -13.5929  -47.3961 C.3       2 UNK        -0.1800 
     64 N           0.5291  -11.7844  -48.2327 N.am      2 UNK        -0.5000 
     65 C           0.8458  -11.2354  -49.4112 C.2       1 UNK         0.5000 
     66 O          -0.0397  -10.8973  -50.1962 O.2       1 UNK        -0.5000 
     67 C          -2.3864  -18.6648  -44.9677 C.2       11 UNK         0.5000 
     68 O          -3.4323  -18.0320  -45.1100 O.2       11 UNK        -0.5000 
     69 N          -2.1314  -19.4409  -43.9025 N.am      12 UNK        -0.5000 
     70 CA         -3.0760  -19.7379  -42.8192 C.3       12 UNK         0.1400 
     71 CB         -2.3669  -20.6020  -41.7641 C.3       12 UNK        -0.1800 
     72 C          -4.3541  -20.4588  -43.2992 C.2       12 UNK         0.5000 
     73 O          -5.3977  -20.3368  -42.6584 O.2       12 UNK        -0.5000 
     74 N          -4.2461  -21.1801  -44.4230 N.am      13 UNK        -0.5000 
     75 CA         -5.3298  -21.8837  -45.1032 C.3       13 UNK         0.1400 
     76 CB         -4.8556  -23.3119  -45.4289 C.3       13 UNK        -0.1800 
     77 C          -5.7782  -21.1314  -46.3726 C.2       13 UNK         0.5000 
     78 O          -6.3542  -21.7542  -47.2631 O.2       13 UNK        -0.5000 
     79 N          -5.4981  -19.8205  -46.4530 N.am      14 UNK        -0.5000 
     80 CA         -5.8457  -18.9093  -47.5491 C.3       14 UNK         0.1400 
     81 CB         -7.3751  -18.7192  -47.6355 C.3       14 UNK        -0.1800 
     82 C          -5.2123  -19.3226  -48.8933 C.2       14 UNK         0.5000 
     83 O          -5.9109  -19.4317  -49.9013 O.2       14 UNK        -0.5000 
     84 N          -3.8941  -19.5677  -48.8655 N.am      15 UNK        -0.5000 
     85 CA         -3.0533  -20.0110  -49.9850 C.3       15 UNK         0.1400 
     86 CB         -3.0425  -18.9687  -51.1244 C.3       15 UNK        -0.1800 
     87 C          -3.4399  -21.4245  -50.4593 C.2       15 UNK         0.5000 
     88 O          -3.5301  -21.6745  -51.6631 O.2       15 UNK        -0.5000 
     89 N          -3.6807  -22.3153  -49.4854 N.am      16 UNK        -0.5000 
     90 CA         -4.1873  -23.6825  -49.6481 C.3       16 UNK         0.1400 
     91 CB         -3.1358  -24.5724  -50.3421 C.3       16 UNK        -0.1800 
     92 C          -5.5639  -23.6960  -50.3492 C.2       16 UNK         0.5000 
     93 O          -5.7389  -24.3384  -51.3868 O.2       16 UNK        -0.5000 
     94 N          -6.5014  -22.9217  -49.7823 N.am      17 UNK        -0.5000 
     95 CA         -7.8663  -22.6632  -50.2548 C.3       17 UNK         0.1400 
     96 CB         -8.7273  -23.9366  -50.1273 C.3       17 UNK        -0.1800 
     97 C          -7.9247  -22.0473  -51.6694 C.2       17 UNK         0.5000 
     98 O          -8.9108  -22.2421  -52.3826 O.2       17 UNK        -0.5000 
     99 N          -6.8486  -21.3505  -52.0621 N.am      18 UNK        -0.5000 
    100 CA        -6.5267  -20.7600  -53.3657 C.3       18 UNK         0.1400 
    101 CB        -7.5306  -19.6549  -53.7400 C.3       18 UNK        -0.1800 
    102 C         -6.3654  -21.7784  -54.5137 C.2       18 UNK         0.5000 
    103 O         -5.4470  -21.6347  -55.3201 O.2       18 UNK        -0.5000 
    104 N         -7.2437  -22.7865  -54.5706 N.am      19 UNK        -0.5000 
    105 CA        -7.3306  -23.8140  -55.6073 C.3       19 UNK         0.1400 
    106 CB        -8.5658  -24.6871  -55.3393 C.3       19 UNK        -0.1800 
    107 C         -6.0717  -24.6890  -55.7391 C.2       19 UNK         0.5000 
    108 O         -5.7144  -25.0564  -56.8591 O.2       19 UNK        -0.5000 
    109 N         -5.4131  -24.9921  -54.6111 N.am      20 UNK        -0.5000 
    110 CA        -4.1588  -25.7502  -54.5805 C.3       20 UNK         0.1400 
    111 CB        -4.1441  -26.6724  -53.3526 C.3       20 UNK        -0.1800 
    112 C         -2.9098  -24.8465  -54.6485 C.2       20 UNK         0.5000 
    113 O         -1.7969  -25.3729  -54.6159 O.2       20 UNK        -0.5000 
    114 N         -3.1095  -23.5225  -54.7631 N.am      21 UNK        -0.5000 
    115 CA        -2.1253  -22.4770  -55.0656 C.3       21 UNK         0.1400 
    116 CB        -1.8303  -22.4817  -56.5789 C.3       21 UNK        -0.1800 
    117 C         -0.8448  -22.5528  -54.2107 C.2       21 UNK         0.5000 
    118 O          0.2519  -22.7173  -54.7492 O.2       21 UNK        -0.5000 
    119 N         -1.0250  -22.4653  -52.8879 N.am      22 UNK        -0.5000 
    120 CA         0.0292  -22.5536  -51.8582 C.3       22 UNK         0.1400 
    121 C          0.6113  -23.9860  -51.6450 C.2       22 UNK         0.5000 
    122 N          0.1098  -25.0268  -52.3006 N.am      22 UNK        -0.7600 
    123 O          1.5229  -24.1699  -50.8439 O.2       22 UNK        -0.5000 
    124 C124        1.1559  -21.4891  -52.0266 C.3       23 UNK        -0.0398 
    125 S125        0.5140  -19.7822  -52.1439 S.3       23 UNK        -0.2404 
    126 C126        1.4999  -18.9280  -50.8802 C.3       23 UNK        -0.0205 
    127 H127        1.9830   -6.5328  -49.6982 H         1 UNK         0.0600 
    128 H128        3.4585   -6.7209  -50.6514 H         1 UNK         0.0600 
    129 H129        3.4208   -7.2515  -48.9679 H         1 UNK         0.0600 
    130 H130        3.2571   -9.4294  -48.7755 H         1 UNK         0.3000 
    131 H131        2.9739  -11.5405  -49.0999 H         1 UNK         0.0600 
    132 H132        1.9319  -11.2763  -51.9568 H         1 UNK         0.0800 
    133 H133        3.6150  -11.1439  -51.5488 H         1 UNK         0.0800 
    134 H134        0.5130  -13.1649  -51.6591 H         1 UNK         0.0800 
    135 H135        1.3086  -14.2014  -52.8106 H         1 UNK         0.0800 
    136 H136        2.0871  -16.5296  -52.0324 H         1 UNK         0.1150 
    137 H137       -0.3953  -18.3205  -49.0356 H         1 UNK         0.1150 
    138 H138       -0.5894  -14.0940  -49.7336 H         1 UNK         0.1150 
    139 H139       -2.3206  -15.1934  -48.4496 H         1 UNK         0.0800 
    140 H140       -2.3997  -16.9141  -48.3044 H         1 UNK         0.0800 
    141 H141        0.0775  -17.4253  -45.0977 H         1 UNK         0.0800 
    142 H142        0.4617  -17.6875  -46.7723 H         1 UNK         0.0800 
    143 H143       -1.9242  -18.6373  -47.0416 H         1 UNK         0.0600 
    144 H144        0.2964  -20.0154  -45.8348 H         1 UNK         0.3000 
    145 H145       -0.6476  -22.8492  -45.4310 H         1 UNK         0.0600 
    146 H146       -0.2628  -24.4189  -47.3642 H         1 UNK         0.0600 
    147 H147       -1.9067  -23.8100  -47.2933 H         1 UNK         0.0600 
    148 H148       -0.7834  -23.1510  -48.4717 H         1 UNK         0.0600 
    149 H149        1.5024  -22.4563  -45.6009 H         1 UNK         0.3000 
    150 H150        3.7992  -22.1302  -47.9551 H         1 UNK         0.0600 
    151 H151        3.4356  -19.7939  -48.5871 H         1 UNK         0.0600 
    152 H152        4.6268  -19.8203  -47.3015 H         1 UNK         0.0600 
    153 H153        2.9617  -19.3557  -46.9516 H         1 UNK         0.0600 
    154 H154        3.4102  -21.1170  -45.1883 H         1 UNK         0.3000 
    155 H155        4.1730  -24.2014  -43.7049 H         1 UNK         0.0600 
    156 H156        6.5138  -23.4289  -44.1240 H         1 UNK         0.0600 
    157 H157        5.9875  -23.0035  -42.5037 H         1 UNK         0.0600 
    158 H158        6.0454  -21.7713  -43.7652 H         1 UNK         0.0600 
    159 H159        3.8647  -21.5847  -42.6089 H         1 UNK         0.3000 
    160 H160        0.3506  -21.3219  -42.7785 H         1 UNK         0.0600 
    161 H161        2.0575  -22.0142  -40.3254 H         1 UNK         0.0600 
    162 H162        0.5904  -22.8503  -40.8233 H         1 UNK         0.0600 
    163 H163        0.5073  -21.1770  -40.2944 H         1 UNK         0.0600 
    164 H164        2.2956  -19.7653  -41.3989 H         1 UNK         0.3000 
    165 H165        3.8742  -18.2721  -42.6757 H         1 UNK         0.0600 
    166 H166        3.7833  -16.3172  -44.1692 H         1 UNK         0.0600 
    167 H167        3.7293  -17.7990  -45.1085 H         1 UNK         0.0600 
    168 H168        2.2628  -16.8617  -44.8606 H         1 UNK         0.0600 
    169 H169        1.6598  -16.3896  -42.5274 H         1 UNK         0.3000 
    170 H170        0.7776  -17.0455  -39.1956 H         1 UNK         0.0600 
    171 H171        2.8964  -15.8338  -38.6395 H         1 UNK         0.0600 
    172 H172        2.6123  -14.7070  -39.9610 H         1 UNK         0.0600 
    173 H173        1.5145  -14.7522  -38.5805 H         1 UNK         0.0600 
    174 H174        0.3329  -14.7596  -40.8552 H         1 UNK         0.3000 
    175 H175       -1.7541  -16.0132  -43.2390 H         1 UNK         0.0600 
    176 H176       -3.7041  -14.7289  -42.4046 H         1 UNK         0.0600 
    177 H177       -3.5427  -16.2305  -41.5108 H         1 UNK         0.0600 
    178 H178       -3.0322  -14.7167  -40.7724 H         1 UNK         0.0600 
    179 H179       -1.5913  -13.3557  -42.2755 H         1 UNK         0.3000 
    180 H180       -0.3172  -11.8415  -43.3326 H         1 UNK         0.0600 
    181 H181        2.4176  -12.7919  -42.3038 H         1 UNK         0.0600 
    182 H182        1.0736  -12.2546  -41.3034 H         1 UNK         0.0600 
    183 H183        1.8742  -11.1156  -42.3732 H         1 UNK         0.0600 
    184 H184        2.2011  -12.3933  -44.7093 H         1 UNK         0.3000 
    185 H185        2.1841  -11.4629  -46.9810 H         1 UNK         0.0600 
    186 H186        2.6119  -13.9214  -46.5648 H         1 UNK         0.0600 
    187 H187        1.2061  -14.3414  -47.5245 H         1 UNK         0.0600 
    188 H188        2.6097  -13.6169  -48.2873 H         1 UNK         0.0600 
    189 H189       -0.4501  -11.8707  -47.9884 H         1 UNK         0.3000 
    190 H190       -1.2410  -19.9124  -43.8621 H         1 UNK         0.3000 
    191 H191       -3.3724  -18.7926  -42.3604 H         1 UNK         0.0600 
    192 H192       -2.0768  -21.5735  -42.1662 H         1 UNK         0.0600 
    193 H193       -1.4697  -20.1146  -41.3854 H         1 UNK         0.0600 
    194 H194       -3.0186  -20.7839  -40.9086 H         1 UNK         0.0600 
    195 H195       -3.3620  -21.1831  -44.9129 H         1 UNK         0.3000 
    196 H196       -6.2026  -21.9571  -44.4518 H         1 UNK         0.0600 
    197 H197       -4.5315  -23.8336  -44.5283 H         1 UNK         0.0600 
    198 H198       -4.0226  -23.3090  -46.1316 H         1 UNK         0.0600 
    199 H199       -5.6577  -23.9034  -45.8719 H         1 UNK         0.0600 
    200 H200       -4.9872  -19.3942  -45.6890 H         1 UNK         0.3000 
    201 H201       -5.4105  -17.9421  -47.2928 H         1 UNK         0.0600 
    202 H202       -7.6315  -17.9561  -48.3713 H         1 UNK         0.0600 
    203 H203       -7.7867  -18.3979  -46.6788 H         1 UNK         0.0600 
    204 H204       -7.8848  -19.6375  -47.9286 H         1 UNK         0.0600 
    205 H205       -3.4465  -19.5902  -47.9594 H         1 UNK         0.3000 
    206 H206       -2.0351  -20.0893  -49.6012 H         1 UNK         0.0600 
    207 H207       -2.7384  -17.9876  -50.7609 H         1 UNK         0.0600 
    208 H208       -4.0193  -18.8633  -51.5960 H         1 UNK         0.0600 
    209 H209       -2.3424  -19.2545  -51.9086 H         1 UNK         0.0600 
    210 H210       -3.5553  -22.0009  -48.5298 H         1 UNK         0.3000 
    211 H211       -4.3439  -24.0774  -48.6434 H         1 UNK         0.0600 
    212 H212       -2.1691  -24.5118  -49.8455 H         1 UNK         0.0600 
    213 H213       -3.4409  -25.6183  -50.3150 H         1 UNK         0.0600 
    214 H214       -2.9882  -24.2947  -51.3859 H         1 UNK         0.0600 
    215 H215       -6.2688  -22.4401  -48.9144 H         1 UNK         0.3000 
    216 H216       -8.2805  -21.9116  -49.5813 H         1 UNK         0.0600 
    217 H217       -9.7763  -23.7246  -50.3371 H         1 UNK         0.0600 
    218 H218       -8.4050  -24.7131  -50.8219 H         1 UNK         0.0600 
    219 H219       -8.6768  -24.3462  -49.1185 H         1 UNK         0.0600 
    220 H220       -6.1160  -21.2422  -51.3720 H         1 UNK         0.3000 
    221 H221       -5.5525  -20.2864  -53.2337 H         1 UNK         0.0600 
    222 H222       -8.5336  -20.0509  -53.9006 H         1 UNK         0.0600 
    223 H223       -7.5893  -18.8977  -52.9579 H         1 UNK         0.0600 
    224 H224       -7.2285  -19.1512  -54.6590 H         1 UNK         0.0600 
    225 H225       -7.9675  -22.7977  -53.8561 H         1 UNK         0.3000 
    226 H226       -7.4745  -23.3023  -56.5610 H         1 UNK         0.0600 
    227 H227       -9.4784  -24.0906  -55.3424 H         1 UNK         0.0600 
    228 H228       -8.6773  -25.4551  -56.1059 H         1 UNK         0.0600 
    229 H229       -8.4987  -25.1913  -54.3743 H         1 UNK         0.0600 
    230 H230       -5.7587  -24.6502  -53.7217 H         1 UNK         0.3000 
    231 H231       -4.1068  -26.3998  -55.4567 H         1 UNK         0.0600 
    232 H232       -3.2314  -27.2682  -53.3149 H         1 UNK         0.0600 
    233 H233       -4.9835  -27.3673  -53.3745 H         1 UNK         0.0600 
    234 H234       -4.2055  -26.1091  -52.4267 H         1 UNK         0.0600 
    235 H235       -4.0686  -23.1981  -54.7631 H         1 UNK         0.3000 
    236 H236       -2.6007  -21.5249  -54.8244 H         1 UNK         0.0600 
    237 H237       -2.7449  -22.3465  -57.1567 H         1 UNK         0.0600 
    238 H238       -1.1533  -21.6705  -56.8495 H         1 UNK         0.0600 
    239 H239       -1.3688  -23.4174  -56.8966 H         1 UNK         0.0600 
    240 H240       -1.9697  -22.3248  -52.5387 H         1 UNK         0.3000 
    241 H241       -0.4779  -22.3282  -50.9197 H         1 UNK         0.0600 
    242 H242        0.4990  -25.9409  -52.1356 H         1 UNK         0.3800 
    243 H243       -0.5984  -24.9109  -53.0163 H         1 UNK         0.3800 
    244 H244        1.8522  -21.5475  -51.1893 H         1 UNK         0.0800 
    245 H245        1.7541  -21.6921  -52.9151 H         1 UNK         0.0800 
    246 H246        1.5286  -19.5196  -49.9701 H         1 UNK         0.0800 
    247 H247        2.5315  -18.8333  -51.2224 H         1 UNK         0.0800 
@<TRIPOS>BOND
     1    1    2 1    
     2    1  127 1    
     3    1  128 1    
     4    1  129 1    
     5    2    3 2    
     6    2    4 am   BACKBONE|DICT|INTERRES
     7    4    5 1    
     8    4  130 1    
     9    5    6 1    
    10    5   65 1    
    11    5  131 1    
    12    6    7 1    
    13    6  132 1    
    14    6  133 1    
    15    7    8 1    
    16    8    9 1    
    17    8  134 1    
    18    8  135 1    
    19    9   10 ar   
    20    9   14 ar   
    21   10   11 ar   
    22   10  136 1    
    23   11   12 ar   
    24   11  126 1    
    25   12   13 ar   
    26   12  137 1    
    27   13   14 ar   
    28   13   15 1    
    29   14  138 1    
    30   15   16 1    
    31   15  139 1    
    32   15  140 1    
    33   16   17 1    
    34   17   18 1    
    35   17  141 1    
    36   17  142 1    
    37   18   19 1    
    38   18   67 1    
    39   18  143 1    
    40   19   20 am   BACKBONE|DICT|INTERRES
    41   19  144 1    
    42   20   21 2    
    43   20   22 1    
    44   22   23 1    
    45   22   24 1    
    46   22  145 1    
    47   23  146 1    
    48   23  147 1    
    49   23  148 1    
    50   24   25 am   BACKBONE|DICT|INTERRES
    51   24  149 1    
    52   25   26 2    
    53   25   27 1    
    54   27   28 1    
    55   27   29 1    
    56   27  150 1    
    57   28  151 1    
    58   28  152 1    
    59   28  153 1    
    60   29   30 am   BACKBONE|DICT|INTERRES
    61   29  154 1    
    62   30   31 2    
    63   30   32 1    
    64   32   33 1    
    65   32   34 1    
    66   32  155 1    
    67   33  156 1    
    68   33  157 1    
    69   33  158 1    
    70   34   35 am   BACKBONE|DICT|INTERRES
    71   34  159 1    
    72   35   36 2    
    73   35   37 1    
    74   37   38 1    
    75   37   39 1    
    76   37  160 1    
    77   38  161 1    
    78   38  162 1    
    79   38  163 1    
    80   39   40 am   BACKBONE|DICT|INTERRES
    81   39  164 1    
    82   40   41 2    
    83   40   42 1    
    84   42   43 1    
    85   42   44 1    
    86   42  165 1    
    87   43  166 1    
    88   43  167 1    
    89   43  168 1    
    90   44   45 am   BACKBONE|DICT|INTERRES
    91   44  169 1    
    92   45   46 2    
    93   45   47 1    
    94   47   48 1    
    95   47   49 1    
    96   47  170 1    
    97   48  171 1    
    98   48  172 1    
    99   48  173 1    
   100   49   50 am   BACKBONE|DICT|INTERRES
   101   49  174 1    
   102   50   51 2    
   103   50   52 1    
   104   52   53 1    
   105   52   54 1    
   106   52  175 1    
   107   53  176 1    
   108   53  177 1    
   109   53  178 1    
   110   54   55 am   BACKBONE|DICT|INTERRES
   111   54  179 1    
   112   55   56 2    
   113   55   57 1    
   114   57   58 1    
   115   57   59 1    
   116   57  180 1    
   117   58  181 1    
   118   58  182 1    
   119   58  183 1    
   120   59   60 am   BACKBONE|DICT|INTERRES
   121   59  184 1    
   122   60   61 2    
   123   60   62 1    
   124   62   63 1    
   125   62   64 1    
   126   62  185 1    
   127   63  186 1    
   128   63  187 1    
   129   63  188 1    
   130   64   65 am   BACKBONE|DICT|INTERRES
   131   64  189 1    
   132   65   66 2    
   133   67   68 2    
   134   67   69 am   BACKBONE|DICT|INTERRES
   135   69   70 1    
   136   69  190 1    
   137   70   71 1    
   138   70   72 1    
   139   70  191 1    
   140   71  192 1    
   141   71  193 1    
   142   71  194 1    
   143   72   73 2    
   144   72   74 am   BACKBONE|DICT|INTERRES
   145   74   75 1    
   146   74  195 1    
   147   75   76 1    
   148   75   77 1    
   149   75  196 1    
   150   76  197 1    
   151   76  198 1    
   152   76  199 1    
   153   77   78 2    
   154   77   79 am   BACKBONE|DICT|INTERRES
   155   79   80 1    
   156   79  200 1    
   157   80   81 1    
   158   80   82 1    
   159   80  201 1    
   160   81  202 1    
   161   81  203 1    
   162   81  204 1    
   163   82   83 2    
   164   82   84 am   BACKBONE|DICT|INTERRES
   165   84   85 1    
   166   84  205 1    
   167   85   86 1    
   168   85   87 1    
   169   85  206 1    
   170   86  207 1    
   171   86  208 1    
   172   86  209 1    
   173   87   88 2    
   174   87   89 am   BACKBONE|DICT|INTERRES
   175   89   90 1    
   176   89  210 1    
   177   90   91 1    
   178   90   92 1    
   179   90  211 1    
   180   91  212 1    
   181   91  213 1    
   182   91  214 1    
   183   92   93 2    
   184   92   94 am   BACKBONE|DICT|INTERRES
   185   94   95 1    
   186   94  215 1    
   187   95   96 1    
   188   95   97 1    
   189   95  216 1    
   190   96  217 1    
   191   96  218 1    
   192   96  219 1    
   193   97   98 2    
   194   97   99 am   BACKBONE|DICT|INTERRES
   195   99  100 1    
   196   99  220 1    
   197  100  101 1    
   198  100  102 1    
   199  100  221 1    
   200  101  222 1    
   201  101  223 1    
   202  101  224 1    
   203  102  103 2    
   204  102  104 am   BACKBONE|DICT|INTERRES
   205  104  105 1    
   206  104  225 1    
   207  105  106 1    
   208  105  107 1    
   209  105  226 1    
   210  106  227 1    
   211  106  228 1    
   212  106  229 1    
   213  107  108 2    
   214  107  109 am   BACKBONE|DICT|INTERRES
   215  109  110 1    
   216  109  230 1    
   217  110  111 1    
   218  110  112 1    
   219  110  231 1    
   220  111  232 1    
   221  111  233 1    
   222  111  234 1    
   223  112  113 2    
   224  112  114 am   BACKBONE|DICT|INTERRES
   225  114  115 1    
   226  114  235 1    
   227  115  116 1    
   228  115  117 1    
   229  115  236 1    
   230  116  237 1    
   231  116  238 1    
   232  116  239 1    
   233  117  118 2    
   234  117  119 am   BACKBONE|DICT|INTERRES
   235  119  120 1    
   236  119  240 1    
   237  120  121 1    
   238  120  124 1    
   239  120  241 1    
   240  121  122 am   BACKBONE|DICT|INTERRES
   241  121  123 2    
   242  122  242 1    
   243  122  243 1    
   244  124  125 1    
   245  124  244 1    
   246  124  245 1    
   247  125  126 1    
   248  126  246 1    
   249  126  247 1    
@<TRIPOS>SUBSTRUCTURE
     1 UNK         1 GROUP             0       ****    0 ROOT    
