@<TRIPOS>MOLECULE
3R540
247   249    1
SMALL
USER_CHARGES


@<TRIPOS>ATOM
      1 CA         -6.7921  -10.7471  -47.8528 C.3       0 UNK        -0.1800 
      2 C          -5.3244  -10.6441  -48.2415 C.2       0 UNK         0.5000 
      3 O          -4.8301   -9.5453  -48.4940 O.2       0 UNK        -0.5000 
      4 N          -4.6162  -11.7789  -48.2718 N.am      1 UNK        -0.5000 
      5 CA         -3.1985  -11.9190  -48.6329 C.3       1 UNK         0.1400 
      6 C6         -2.8848  -13.3479  -49.1559 C.3       23 UNK        -0.0398 
      7 S7         -3.3505  -14.6923  -48.0034 S.3       23 UNK        -0.2404 
      8 C8         -3.2972  -16.1418  -49.1037 C.3       23 UNK        -0.0205 
      9 C9         -1.8706  -16.5849  -49.3945 C.ar      23 UNK        -0.0193 
     10 C10        -1.1679  -16.0398  -50.4731 C.ar      23 UNK        -0.1150 
     11 C11         0.1518  -16.4201  -50.7345 C.ar      23 UNK        -0.0193 
     12 C12         0.7571  -17.3783  -49.9120 C.ar      23 UNK        -0.1150 
     13 C13         0.0576  -17.9514  -48.8449 C.ar      23 UNK        -0.0193 
     14 C14        -1.2541  -17.5447  -48.5865 C.ar      23 UNK        -0.1150 
     15 C15         0.7344  -18.9893  -47.9616 C.3       23 UNK        -0.0205 
     16 S16         0.4353  -20.6842  -48.5584 S.3       23 UNK        -0.2404 
     17 C17        -1.1528  -21.1218  -47.7672 C.3       23 UNK        -0.0398 
     18 CA         -1.1168  -22.5371  -47.1430 C.3       11 UNK         0.1400 
     19 N          -0.0735  -22.6952  -46.1237 N.am      11 UNK        -0.5000 
     20 C           0.4217  -23.8849  -45.7562 C.2       10 UNK         0.5000 
     21 O           0.0272  -24.9578  -46.2123 O.2       10 UNK        -0.5000 
     22 CA          1.5020  -23.8724  -44.6620 C.3       10 UNK         0.1400 
     23 CB          2.8551  -23.4235  -45.2346 C.3       10 UNK        -0.1800 
     24 N           1.1540  -23.0263  -43.5185 N.am      10 UNK        -0.5000 
     25 C           0.1009  -23.2164  -42.7107 C.2       9 UNK         0.5000 
     26 O          -0.7501  -24.0823  -42.9115 O.2       9 UNK        -0.5000 
     27 CA         -0.0578  -22.2698  -41.5017 C.3       9 UNK         0.1400 
     28 CB         -0.5252  -23.0148  -40.2350 C.3       9 UNK        -0.1800 
     29 N           1.1183  -21.4334  -41.2257 N.am      9 UNK        -0.5000 
     30 C           2.3368  -21.8191  -40.8109 C.2       8 UNK         0.5000 
     31 O           2.6370  -22.9886  -40.5713 O.2       8 UNK        -0.5000 
     32 CA          3.4234  -20.7284  -40.6857 C.3       8 UNK         0.1400 
     33 CB          4.5570  -20.9839  -41.6933 C.3       8 UNK        -0.1800 
     34 N           2.9090  -19.3752  -40.9070 N.am      8 UNK        -0.5000 
     35 C           2.3001  -18.6197  -39.9833 C.2       7 UNK         0.5000 
     36 O           2.1700  -18.9504  -38.8045 O.2       7 UNK        -0.5000 
     37 CA          1.7038  -17.2844  -40.4734 C.3       7 UNK         0.1400 
     38 CB          2.7089  -16.1389  -40.2812 C.3       7 UNK        -0.1800 
     39 N           1.2734  -17.3112  -41.8761 N.am      7 UNK        -0.5000 
     40 C           0.3036  -18.0859  -42.3783 C.2       6 UNK         0.5000 
     41 O          -0.3237  -18.8980  -41.6982 O.2       6 UNK        -0.5000 
     42 CA         -0.0005  -17.9416  -43.8859 C.3       6 UNK         0.1400 
     43 CB         -1.1883  -18.8181  -44.3281 C.3       6 UNK        -0.1800 
     44 N          -0.2724  -16.5580  -44.2793 N.am      6 UNK        -0.5000 
     45 C           0.6396  -15.5904  -44.4328 C.2       5 UNK         0.5000 
     46 O           1.8428  -15.7393  -44.2006 O.2       5 UNK        -0.5000 
     47 CA          0.0969  -14.2157  -44.8626 C.3       5 UNK         0.1400 
     48 CB         -0.2617  -13.3752  -43.6277 C.3       5 UNK        -0.1800 
     49 N           1.0310  -13.4565  -45.6927 N.am      5 UNK        -0.5000 
     50 C           1.4855  -13.8402  -46.8941 C.2       4 UNK         0.5000 
     51 O           1.2393  -14.9328  -47.4050 O.2       4 UNK        -0.5000 
     52 CA          2.3121  -12.7963  -47.6641 C.3       4 UNK         0.1400 
     53 CB          2.5130  -13.1581  -49.1490 C.3       4 UNK        -0.1800 
     54 N           1.6675  -11.4872  -47.5637 N.am      4 UNK        -0.5000 
     55 C           2.3065  -10.3110  -47.5297 C.2       3 UNK         0.5000 
     56 O           3.5338  -10.2070  -47.5485 O.2       3 UNK        -0.5000 
     57 CA          1.4502   -9.0266  -47.4820 C.3       3 UNK         0.1400 
     58 CB          1.4596   -8.3280  -48.8510 C.3       3 UNK        -0.1800 
     59 N           0.0592   -9.2493  -47.0836 N.am      3 UNK        -0.5000 
     60 C          -0.3483   -9.5492  -45.8435 C.2       2 UNK         0.5000 
     61 O           0.4115   -9.6376  -44.8786 O.2       2 UNK        -0.5000 
     62 CA         -1.8548   -9.8235  -45.6516 C.3       2 UNK         0.1400 
     63 CB         -2.5748   -8.5522  -45.1776 C.3       2 UNK        -0.1800 
     64 N          -2.5508  -10.3489  -46.8330 N.am      2 UNK        -0.5000 
     65 C          -2.2346  -11.4619  -47.5094 C.2       1 UNK         0.5000 
     66 O          -1.2171  -12.1104  -47.2759 O.2       1 UNK        -0.5000 
     67 C          -2.5055  -22.9685  -46.6258 C.2       11 UNK         0.5000 
     68 O          -3.3344  -23.4079  -47.4242 O.2       11 UNK        -0.5000 
     69 N          -2.7218  -22.8826  -45.3046 N.am      12 UNK        -0.5000 
     70 CA         -3.9205  -23.3844  -44.6319 C.3       12 UNK         0.1400 
     71 CB         -4.0161  -22.7880  -43.2190 C.3       12 UNK        -0.1800 
     72 C          -3.9429  -24.9230  -44.5946 C.2       12 UNK         0.5000 
     73 O          -4.9721  -25.5212  -44.9070 O.2       12 UNK        -0.5000 
     74 N          -2.7929  -25.5384  -44.2805 N.am      13 UNK        -0.5000 
     75 CA         -2.5747  -26.9878  -44.3215 C.3       13 UNK         0.1400 
     76 CB         -1.2005  -27.3143  -43.7180 C.3       13 UNK        -0.1800 
     77 C          -2.7031  -27.5749  -45.7414 C.2       13 UNK         0.5000 
     78 O          -3.1785  -28.7001  -45.8947 O.2       13 UNK        -0.5000 
     79 N          -2.3328  -26.7793  -46.7542 N.am      14 UNK        -0.5000 
     80 CA         -2.5309  -27.0625  -48.1776 C.3       14 UNK         0.1400 
     81 CB         -1.5444  -26.2121  -48.9948 C.3       14 UNK        -0.1800 
     82 C          -3.9796  -26.8293  -48.6636 C.2       14 UNK         0.5000 
     83 O          -4.2285  -26.9491  -49.8632 O.2       14 UNK        -0.5000 
     84 N          -4.9032  -26.4717  -47.7568 N.am      15 UNK        -0.5000 
     85 CA         -6.3310  -26.2254  -47.9921 C.3       15 UNK         0.1400 
     86 CB         -7.0511  -27.5370  -48.3688 C.3       15 UNK        -0.1800 
     87 C          -6.5913  -25.0841  -48.9972 C.2       15 UNK         0.5000 
     88 O          -7.5320  -25.1584  -49.7891 O.2       15 UNK        -0.5000 
     89 N          -5.7279  -24.0587  -48.9543 N.am      16 UNK        -0.5000 
     90 CA         -5.6961  -22.8708  -49.8105 C.3       16 UNK         0.1400 
     91 CB         -6.9987  -22.0526  -49.6970 C.3       16 UNK        -0.1800 
     92 C          -5.2996  -23.1412  -51.2771 C.2       16 UNK         0.5000 
     93 O          -5.3202  -22.2046  -52.0758 O.2       16 UNK        -0.5000 
     94 N          -4.8813  -24.3705  -51.6186 N.am      17 UNK        -0.5000 
     95 CA         -4.3767  -24.7111  -52.9535 C.3       17 UNK         0.1400 
     96 CB         -4.2290  -26.2335  -53.0859 C.3       17 UNK        -0.1800 
     97 C          -3.0434  -24.0049  -53.2582 C.2       17 UNK         0.5000 
     98 O          -2.8466  -23.5129  -54.3696 O.2       17 UNK        -0.5000 
     99 N          -2.1774  -23.9154  -52.2386 N.am      18 UNK        -0.5000 
    100 CA        -0.9247  -23.1643  -52.2897 C.3       18 UNK         0.1400 
    101 CB        -0.0574  -23.5239  -51.0774 C.3       18 UNK        -0.1800 
    102 C         -1.1601  -21.6456  -52.3640 C.2       18 UNK         0.5000 
    103 O         -0.4414  -20.9675  -53.0935 O.2       18 UNK        -0.5000 
    104 N         -2.1877  -21.1454  -51.6599 N.am      19 UNK        -0.5000 
    105 CA        -2.6122  -19.7431  -51.7098 C.3       19 UNK         0.1400 
    106 CB        -3.6687  -19.4643  -50.6297 C.3       19 UNK        -0.1800 
    107 C         -3.1451  -19.3466  -53.0977 C.2       19 UNK         0.5000 
    108 O         -2.7981  -18.2770  -53.5975 O.2       19 UNK        -0.5000 
    109 N         -3.9440  -20.2325  -53.7094 N.am      20 UNK        -0.5000 
    110 CA        -4.4735  -20.0813  -55.0651 C.3       20 UNK         0.1400 
    111 CB        -5.5096  -21.1830  -55.3345 C.3       20 UNK        -0.1800 
    112 C         -3.3747  -20.0854  -56.1451 C.2       20 UNK         0.5000 
    113 O         -3.4744  -19.3255  -57.1090 O.2       20 UNK        -0.5000 
    114 N         -2.3419  -20.9198  -55.9577 N.am      21 UNK        -0.5000 
    115 CA        -1.1516  -20.9621  -56.8090 C.3       21 UNK         0.1400 
    116 CB        -0.3617  -22.2477  -56.5186 C.3       21 UNK        -0.1800 
    117 C         -0.2608  -19.7161  -56.6331 C.2       21 UNK         0.5000 
    118 O          0.2294  -19.1726  -57.6236 O.2       21 UNK        -0.5000 
    119 N         -0.0750  -19.2927  -55.3773 N.am      22 UNK        -0.5000 
    120 CA         0.6609  -18.0888  -54.9696 C.3       22 UNK         0.1400 
    121 C         -0.0016  -16.7694  -55.4602 C.2       22 UNK         0.5000 
    122 N         -1.3015  -16.5870  -55.2673 N.am      22 UNK        -0.7600 
    123 O          0.6651  -15.9114  -56.0325 O.2       22 UNK        -0.5000 
    124 C124        0.8775  -18.1050  -53.4362 C.3       23 UNK        -0.0398 
    125 S125        2.0404  -16.8526  -52.8021 S.3       23 UNK        -0.2404 
    126 C126        0.9074  -15.7524  -51.8849 C.3       23 UNK        -0.0205 
    127 H127       -7.0863  -11.7773  -47.6508 H         1 UNK         0.0600 
    128 H128       -7.4205  -10.3653  -48.6574 H         1 UNK         0.0600 
    129 H129       -6.9854  -10.1560  -46.9576 H         1 UNK         0.0600 
    130 H130       -5.0677  -12.6455  -48.0135 H         1 UNK         0.3000 
    131 H131       -3.0062  -11.2386  -49.4651 H         1 UNK         0.0600 
    132 H132       -1.8270  -13.4461  -49.4063 H         1 UNK         0.0800 
    133 H133       -3.4217  -13.5033  -50.0925 H         1 UNK         0.0800 
    134 H134       -3.8259  -15.9247  -50.0330 H         1 UNK         0.0800 
    135 H135       -3.8453  -16.9564  -48.6281 H         1 UNK         0.0800 
    136 H136       -1.6457  -15.3006  -51.1001 H         1 UNK         0.1150 
    137 H137        1.7789  -17.6767  -50.0963 H         1 UNK         0.1150 
    138 H138       -1.7947  -17.9702  -47.7538 H         1 UNK         0.1150 
    139 H139        1.8108  -18.8120  -47.9539 H         1 UNK         0.0800 
    140 H140        0.4117  -18.8829  -46.9265 H         1 UNK         0.0800 
    141 H141       -1.9219  -21.0736  -48.5377 H         1 UNK         0.0800 
    142 H142       -1.4206  -20.3785  -47.0172 H         1 UNK         0.0800 
    143 H143       -0.8749  -23.2302  -47.9480 H         1 UNK         0.0600 
    144 H144        0.3124  -21.8547  -45.7212 H         1 UNK         0.3000 
    145 H145        1.6101  -24.8954  -44.2955 H         1 UNK         0.0600 
    146 H146        3.6446  -23.5023  -44.4869 H         1 UNK         0.0600 
    147 H147        3.1470  -24.0477  -46.0804 H         1 UNK         0.0600 
    148 H148        2.8258  -22.3907  -45.5839 H         1 UNK         0.0600 
    149 H149        1.8044  -22.2936  -43.2811 H         1 UNK         0.3000 
    150 H150       -0.8542  -21.5779  -41.7784 H         1 UNK         0.0600 
    151 H151       -1.4899  -23.4970  -40.3981 H         1 UNK         0.0600 
    152 H152       -0.6455  -22.3289  -39.3965 H         1 UNK         0.0600 
    153 H153        0.1785  -23.7920  -39.9364 H         1 UNK         0.0600 
    154 H154        0.9552  -20.4412  -41.3560 H         1 UNK         0.3000 
    155 H155        3.8398  -20.7950  -39.6784 H         1 UNK         0.0600 
    156 H156        4.1997  -20.9438  -42.7230 H         1 UNK         0.0600 
    157 H157        5.0058  -21.9663  -41.5401 H         1 UNK         0.0600 
    158 H158        5.3532  -20.2470  -41.5854 H         1 UNK         0.0600 
    159 H159        2.9834  -19.0096  -41.8451 H         1 UNK         0.3000 
    160 H160        0.8247  -17.0748  -39.8606 H         1 UNK         0.0600 
    161 H161        3.5999  -16.2788  -40.8946 H         1 UNK         0.0600 
    162 H162        3.0319  -16.0718  -39.2414 H         1 UNK         0.0600 
    163 H163        2.2668  -15.1782  -40.5462 H         1 UNK         0.0600 
    164 H164        1.7338  -16.6683  -42.5148 H         1 UNK         0.3000 
    165 H165        0.8848  -18.2837  -44.4259 H         1 UNK         0.0600 
    166 H166       -1.4150  -18.6755  -45.3834 H         1 UNK         0.0600 
    167 H167       -0.9736  -19.8769  -44.1783 H         1 UNK         0.0600 
    168 H168       -2.0926  -18.5831  -43.7651 H         1 UNK         0.0600 
    169 H169       -1.2429  -16.3331  -44.4443 H         1 UNK         0.3000 
    170 H170       -0.8083  -14.3699  -45.4544 H         1 UNK         0.0600 
    171 H171        0.6160  -13.1700  -43.0133 H         1 UNK         0.0600 
    172 H172       -0.7002  -12.4200  -43.9150 H         1 UNK         0.0600 
    173 H173       -0.9898  -13.8898  -42.9994 H         1 UNK         0.0600 
    174 H174        1.2878  -12.5405  -45.3563 H         1 UNK         0.3000 
    175 H175        3.2903  -12.7640  -47.1801 H         1 UNK         0.0600 
    176 H176        1.5591  -13.2103  -49.6751 H         1 UNK         0.0600 
    177 H177        3.1362  -12.4214  -49.6558 H         1 UNK         0.0600 
    178 H178        3.0036  -14.1263  -49.2567 H         1 UNK         0.0600 
    179 H179        0.6526  -11.5108  -47.5015 H         1 UNK         0.3000 
    180 H180        1.9113   -8.3557  -46.7542 H         1 UNK         0.0600 
    181 H181        0.9206   -7.3812  -48.8152 H         1 UNK         0.0600 
    182 H182        1.0006   -8.9485  -49.6218 H         1 UNK         0.0600 
    183 H183        2.4787   -8.1073  -49.1715 H         1 UNK         0.0600 
    184 H184       -0.6353   -9.2058  -47.8147 H         1 UNK         0.3000 
    185 H185       -1.9459  -10.5757  -44.8664 H         1 UNK         0.0600 
    186 H186       -3.6169   -8.7570  -44.9315 H         1 UNK         0.0600 
    187 H187       -2.1044   -8.1458  -44.2811 H         1 UNK         0.0600 
    188 H188       -2.5567   -7.7731  -45.9408 H         1 UNK         0.0600 
    189 H189       -3.3798   -9.8482  -47.1350 H         1 UNK         0.3000 
    190 H190       -1.9724  -22.5581  -44.7132 H         1 UNK         0.3000 
    191 H191       -4.7944  -23.0512  -45.1962 H         1 UNK         0.0600 
    192 H192       -4.9335  -23.1098  -42.7247 H         1 UNK         0.0600 
    193 H193       -4.0301  -21.6984  -43.2513 H         1 UNK         0.0600 
    194 H194       -3.1827  -23.0936  -42.5871 H         1 UNK         0.0600 
    195 H195       -2.0030  -24.9752  -43.9742 H         1 UNK         0.3000 
    196 H196       -3.3401  -27.4571  -43.7002 H         1 UNK         0.0600 
    197 H197       -0.3918  -26.8501  -44.2831 H         1 UNK         0.0600 
    198 H198       -1.1302  -26.9649  -42.6877 H         1 UNK         0.0600 
    199 H199       -1.0219  -28.3901  -43.7104 H         1 UNK         0.0600 
    200 H200       -1.8759  -25.9039  -46.5277 H         1 UNK         0.3000 
    201 H201       -2.2976  -28.1141  -48.3553 H         1 UNK         0.0600 
    202 H202       -1.7848  -25.1521  -48.9295 H         1 UNK         0.0600 
    203 H203       -1.5673  -26.4885  -50.0497 H         1 UNK         0.0600 
    204 H204       -0.5196  -26.3478  -48.6486 H         1 UNK         0.0600 
    205 H205       -4.6070  -26.3484  -46.7958 H         1 UNK         0.3000 
    206 H206       -6.7429  -25.8869  -47.0406 H         1 UNK         0.0600 
    207 H207       -6.8569  -28.3176  -47.6333 H         1 UNK         0.0600 
    208 H208       -8.1314  -27.3931  -48.4095 H         1 UNK         0.0600 
    209 H209       -6.7338  -27.9082  -49.3438 H         1 UNK         0.0600 
    210 H210       -4.9683  -24.1027  -48.2798 H         1 UNK         0.3000 
    211 H211       -4.8958  -22.2506  -49.4053 H         1 UNK         0.0600 
    212 H212       -6.8987  -21.0872  -50.1943 H         1 UNK         0.0600 
    213 H213       -7.2502  -21.8539  -48.6553 H         1 UNK         0.0600 
    214 H214       -7.8439  -22.5651  -50.1565 H         1 UNK         0.0600 
    215 H215       -4.8837  -25.1100  -50.9259 H         1 UNK         0.3000 
    216 H216       -5.1106  -24.3757  -53.6894 H         1 UNK         0.0600 
    217 H217       -3.4679  -26.6268  -52.4113 H         1 UNK         0.0600 
    218 H218       -3.9389  -26.5082  -54.1007 H         1 UNK         0.0600 
    219 H219       -5.1675  -26.7425  -52.8656 H         1 UNK         0.0600 
    220 H220       -2.4180  -24.3559  -51.3638 H         1 UNK         0.3000 
    221 H221       -0.3854  -23.4621  -53.1915 H         1 UNK         0.0600 
    222 H222        0.1744  -24.5888  -51.0561 H         1 UNK         0.0600 
    223 H223       -0.5568  -23.2675  -50.1460 H         1 UNK         0.0600 
    224 H224        0.8901  -22.9838  -51.1000 H         1 UNK         0.0600 
    225 H225       -2.7567  -21.7773  -51.1207 H         1 UNK         0.3000 
    226 H226       -1.7415  -19.1195  -51.4955 H         1 UNK         0.0600 
    227 H227       -4.5383  -20.1113  -50.7280 H         1 UNK         0.0600 
    228 H228       -3.2622  -19.5914  -49.6283 H         1 UNK         0.0600 
    229 H229       -4.0279  -18.4378  -50.7014 H         1 UNK         0.0600 
    230 H230       -4.2386  -21.0596  -53.1983 H         1 UNK         0.3000 
    231 H231       -4.9830  -19.1169  -55.1161 H         1 UNK         0.0600 
    232 H232       -5.0659  -22.1771  -55.2747 H         1 UNK         0.0600 
    233 H233       -5.9443  -21.0760  -56.3290 H         1 UNK         0.0600 
    234 H234       -6.3273  -21.1391  -54.6148 H         1 UNK         0.0600 
    235 H235       -2.3686  -21.5592  -55.1722 H         1 UNK         0.3000 
    236 H236       -1.4781  -20.9956  -57.8505 H         1 UNK         0.0600 
    237 H237       -0.9722  -23.1333  -56.6959 H         1 UNK         0.0600 
    238 H238        0.5147  -22.3209  -57.1637 H         1 UNK         0.0600 
    239 H239       -0.0135  -22.2844  -55.4862 H         1 UNK         0.0600 
    240 H240       -0.4659  -19.8446  -54.6193 H         1 UNK         0.3000 
    241 H241        1.6438  -18.1484  -55.4407 H         1 UNK         0.0600 
    242 H242       -1.7372  -15.7406  -55.5951 H         1 UNK         0.3800 
    243 H243       -1.8548  -17.2682  -54.7490 H         1 UNK         0.3800 
    244 H244        1.2943  -19.0681  -53.1409 H         1 UNK         0.0800 
    245 H245       -0.0799  -18.0287  -52.9207 H         1 UNK         0.0800 
    246 H246        1.4864  -14.9227  -51.4792 H         1 UNK         0.0800 
    247 H247        0.2044  -15.3179  -52.5976 H         1 UNK         0.0800 
@<TRIPOS>BOND
     1    1    2 1    
     2    1  127 1    
     3    1  128 1    
     4    1  129 1    
     5    2    3 2    
     6    2    4 am   BACKBONE|DICT|INTERRES
     7    4    5 1    
     8    4  130 1    
     9    5    6 1    
    10    5   65 1    
    11    5  131 1    
    12    6    7 1    
    13    6  132 1    
    14    6  133 1    
    15    7    8 1    
    16    8    9 1    
    17    8  134 1    
    18    8  135 1    
    19    9   10 ar   
    20    9   14 ar   
    21   10   11 ar   
    22   10  136 1    
    23   11   12 ar   
    24   11  126 1    
    25   12   13 ar   
    26   12  137 1    
    27   13   14 ar   
    28   13   15 1    
    29   14  138 1    
    30   15   16 1    
    31   15  139 1    
    32   15  140 1    
    33   16   17 1    
    34   17   18 1    
    35   17  141 1    
    36   17  142 1    
    37   18   19 1    
    38   18   67 1    
    39   18  143 1    
    40   19   20 am   BACKBONE|DICT|INTERRES
    41   19  144 1    
    42   20   21 2    
    43   20   22 1    
    44   22   23 1    
    45   22   24 1    
    46   22  145 1    
    47   23  146 1    
    48   23  147 1    
    49   23  148 1    
    50   24   25 am   BACKBONE|DICT|INTERRES
    51   24  149 1    
    52   25   26 2    
    53   25   27 1    
    54   27   28 1    
    55   27   29 1    
    56   27  150 1    
    57   28  151 1    
    58   28  152 1    
    59   28  153 1    
    60   29   30 am   BACKBONE|DICT|INTERRES
    61   29  154 1    
    62   30   31 2    
    63   30   32 1    
    64   32   33 1    
    65   32   34 1    
    66   32  155 1    
    67   33  156 1    
    68   33  157 1    
    69   33  158 1    
    70   34   35 am   BACKBONE|DICT|INTERRES
    71   34  159 1    
    72   35   36 2    
    73   35   37 1    
    74   37   38 1    
    75   37   39 1    
    76   37  160 1    
    77   38  161 1    
    78   38  162 1    
    79   38  163 1    
    80   39   40 am   BACKBONE|DICT|INTERRES
    81   39  164 1    
    82   40   41 2    
    83   40   42 1    
    84   42   43 1    
    85   42   44 1    
    86   42  165 1    
    87   43  166 1    
    88   43  167 1    
    89   43  168 1    
    90   44   45 am   BACKBONE|DICT|INTERRES
    91   44  169 1    
    92   45   46 2    
    93   45   47 1    
    94   47   48 1    
    95   47   49 1    
    96   47  170 1    
    97   48  171 1    
    98   48  172 1    
    99   48  173 1    
   100   49   50 am   BACKBONE|DICT|INTERRES
   101   49  174 1    
   102   50   51 2    
   103   50   52 1    
   104   52   53 1    
   105   52   54 1    
   106   52  175 1    
   107   53  176 1    
   108   53  177 1    
   109   53  178 1    
   110   54   55 am   BACKBONE|DICT|INTERRES
   111   54  179 1    
   112   55   56 2    
   113   55   57 1    
   114   57   58 1    
   115   57   59 1    
   116   57  180 1    
   117   58  181 1    
   118   58  182 1    
   119   58  183 1    
   120   59   60 am   BACKBONE|DICT|INTERRES
   121   59  184 1    
   122   60   61 2    
   123   60   62 1    
   124   62   63 1    
   125   62   64 1    
   126   62  185 1    
   127   63  186 1    
   128   63  187 1    
   129   63  188 1    
   130   64   65 am   BACKBONE|DICT|INTERRES
   131   64  189 1    
   132   65   66 2    
   133   67   68 2    
   134   67   69 am   BACKBONE|DICT|INTERRES
   135   69   70 1    
   136   69  190 1    
   137   70   71 1    
   138   70   72 1    
   139   70  191 1    
   140   71  192 1    
   141   71  193 1    
   142   71  194 1    
   143   72   73 2    
   144   72   74 am   BACKBONE|DICT|INTERRES
   145   74   75 1    
   146   74  195 1    
   147   75   76 1    
   148   75   77 1    
   149   75  196 1    
   150   76  197 1    
   151   76  198 1    
   152   76  199 1    
   153   77   78 2    
   154   77   79 am   BACKBONE|DICT|INTERRES
   155   79   80 1    
   156   79  200 1    
   157   80   81 1    
   158   80   82 1    
   159   80  201 1    
   160   81  202 1    
   161   81  203 1    
   162   81  204 1    
   163   82   83 2    
   164   82   84 am   BACKBONE|DICT|INTERRES
   165   84   85 1    
   166   84  205 1    
   167   85   86 1    
   168   85   87 1    
   169   85  206 1    
   170   86  207 1    
   171   86  208 1    
   172   86  209 1    
   173   87   88 2    
   174   87   89 am   BACKBONE|DICT|INTERRES
   175   89   90 1    
   176   89  210 1    
   177   90   91 1    
   178   90   92 1    
   179   90  211 1    
   180   91  212 1    
   181   91  213 1    
   182   91  214 1    
   183   92   93 2    
   184   92   94 am   BACKBONE|DICT|INTERRES
   185   94   95 1    
   186   94  215 1    
   187   95   96 1    
   188   95   97 1    
   189   95  216 1    
   190   96  217 1    
   191   96  218 1    
   192   96  219 1    
   193   97   98 2    
   194   97   99 am   BACKBONE|DICT|INTERRES
   195   99  100 1    
   196   99  220 1    
   197  100  101 1    
   198  100  102 1    
   199  100  221 1    
   200  101  222 1    
   201  101  223 1    
   202  101  224 1    
   203  102  103 2    
   204  102  104 am   BACKBONE|DICT|INTERRES
   205  104  105 1    
   206  104  225 1    
   207  105  106 1    
   208  105  107 1    
   209  105  226 1    
   210  106  227 1    
   211  106  228 1    
   212  106  229 1    
   213  107  108 2    
   214  107  109 am   BACKBONE|DICT|INTERRES
   215  109  110 1    
   216  109  230 1    
   217  110  111 1    
   218  110  112 1    
   219  110  231 1    
   220  111  232 1    
   221  111  233 1    
   222  111  234 1    
   223  112  113 2    
   224  112  114 am   BACKBONE|DICT|INTERRES
   225  114  115 1    
   226  114  235 1    
   227  115  116 1    
   228  115  117 1    
   229  115  236 1    
   230  116  237 1    
   231  116  238 1    
   232  116  239 1    
   233  117  118 2    
   234  117  119 am   BACKBONE|DICT|INTERRES
   235  119  120 1    
   236  119  240 1    
   237  120  121 1    
   238  120  124 1    
   239  120  241 1    
   240  121  122 am   BACKBONE|DICT|INTERRES
   241  121  123 2    
   242  122  242 1    
   243  122  243 1    
   244  124  125 1    
   245  124  244 1    
   246  124  245 1    
   247  125  126 1    
   248  126  246 1    
   249  126  247 1    
@<TRIPOS>SUBSTRUCTURE
     1 UNK         1 GROUP             0       ****    0 ROOT    
