@<TRIPOS>MOLECULE
3R540
247   249    1
SMALL
USER_CHARGES


@<TRIPOS>ATOM
      1 CA          3.3912  -14.9808  -50.5519 C.3       0 UNK        -0.1800 
      2 C           2.0547  -14.5763  -49.9458 C.2       0 UNK         0.5000 
      3 O           1.0679  -14.4633  -50.6702 O.2       0 UNK        -0.5000 
      4 N           2.0349  -14.3585  -48.6280 N.am      1 UNK        -0.5000 
      5 CA          0.8942  -14.0332  -47.7714 C.3       1 UNK         0.1400 
      6 C6          0.2046  -12.6845  -48.1381 C.3       23 UNK        -0.0398 
      7 S7         -1.4720  -12.4596  -47.4315 S.3       23 UNK        -0.2404 
      8 C8         -2.5788  -12.9893  -48.7828 C.3       23 UNK        -0.0205 
      9 C9         -2.8974  -14.4733  -48.6868 C.ar      23 UNK        -0.0193 
     10 C10        -4.0583  -14.9153  -48.0445 C.ar      23 UNK        -0.1150 
     11 C11        -4.3221  -16.2835  -47.9178 C.ar      23 UNK        -0.0193 
     12 C12        -3.3989  -17.2096  -48.4130 C.ar      23 UNK        -0.1150 
     13 C13        -2.2356  -16.7769  -49.0556 C.ar      23 UNK        -0.0193 
     14 C14        -2.0145  -15.4103  -49.2221 C.ar      23 UNK        -0.1150 
     15 C15        -1.2071  -17.7750  -49.5641 C.3       23 UNK        -0.0205 
     16 S16         0.2893  -17.8254  -48.5190 S.3       23 UNK        -0.2404 
     17 C17        -0.3656  -18.3518  -46.8981 C.3       23 UNK        -0.0398 
     18 CA         -0.2942  -19.8820  -46.6858 C.3       11 UNK         0.1400 
     19 N          -0.3440  -20.2382  -45.2673 N.am      11 UNK        -0.5000 
     20 C          -0.1706  -21.4768  -44.7835 C.2       10 UNK         0.5000 
     21 O           0.1446  -22.4473  -45.4724 O.2       10 UNK        -0.5000 
     22 CA         -0.4623  -21.6696  -43.2857 C.3       10 UNK         0.1400 
     23 CB          0.7473  -21.2615  -42.4305 C.3       10 UNK        -0.1800 
     24 N          -1.6469  -20.9165  -42.8676 N.am      10 UNK        -0.5000 
     25 C          -2.8991  -21.2159  -43.2448 C.2       9 UNK         0.5000 
     26 O          -3.1865  -22.1882  -43.9415 O.2       9 UNK        -0.5000 
     27 CA         -4.0115  -20.2461  -42.8040 C.3       9 UNK         0.1400 
     28 CB         -4.5019  -20.5949  -41.3910 C.3       9 UNK        -0.1800 
     29 N          -3.5907  -18.8447  -42.8370 N.am      9 UNK        -0.5000 
     30 C          -3.2676  -18.1695  -43.9499 C.2       8 UNK         0.5000 
     31 O          -3.3246  -18.6488  -45.0795 O.2       8 UNK        -0.5000 
     32 CA         -2.7219  -16.7420  -43.7569 C.3       8 UNK         0.1400 
     33 CB         -3.8756  -15.7307  -43.6790 C.3       8 UNK        -0.1800 
     34 N          -1.8814  -16.6315  -42.5596 N.am      8 UNK        -0.5000 
     35 C          -0.7332  -17.3004  -42.3934 C.2       7 UNK         0.5000 
     36 O          -0.2238  -18.0085  -43.2688 O.2       7 UNK        -0.5000 
     37 CA         -0.0906  -17.2284  -41.0019 C.3       7 UNK         0.1400 
     38 CB         -0.9016  -18.0697  -39.9952 C.3       7 UNK        -0.1800 
     39 N           1.2674  -17.7422  -41.1142 N.am      7 UNK        -0.5000 
     40 C           2.2367  -17.6826  -40.1947 C.2       6 UNK         0.5000 
     41 O           2.0958  -17.1870  -39.0762 O.2       6 UNK        -0.5000 
     42 CA          3.6052  -18.2694  -40.6014 C.3       6 UNK         0.1400 
     43 CB          3.7254  -19.7269  -40.1298 C.3       6 UNK        -0.1800 
     44 N           3.8568  -18.2116  -42.0461 N.am      6 UNK        -0.5000 
     45 C           4.0150  -17.0740  -42.7355 C.2       5 UNK         0.5000 
     46 O           4.0086  -15.9585  -42.2115 O.2       5 UNK        -0.5000 
     47 CA          4.1622  -17.2176  -44.2622 C.3       5 UNK         0.1400 
     48 CB          2.8224  -17.6305  -44.8966 C.3       5 UNK        -0.1800 
     49 N           4.5978  -15.9672  -44.8802 N.am      5 UNK        -0.5000 
     50 C           5.8392  -15.4677  -44.8273 C.2       4 UNK         0.5000 
     51 O           6.7945  -16.0602  -44.3231 O.2       4 UNK        -0.5000 
     52 CA          6.0474  -14.0701  -45.4338 C.3       4 UNK         0.1400 
     53 CB          6.1472  -14.1592  -46.9656 C.3       4 UNK        -0.1800 
     54 N           4.9499  -13.1682  -45.0797 N.am      4 UNK        -0.5000 
     55 C           5.0476  -12.1156  -44.2554 C.2       3 UNK         0.5000 
     56 O           6.0919  -11.7800  -43.6950 O.2       3 UNK        -0.5000 
     57 CA          3.7724  -11.2757  -44.0256 C.3       3 UNK         0.1400 
     58 CB          3.7708  -10.0454  -44.9461 C.3       3 UNK        -0.1800 
     59 N           2.5410  -12.0324  -44.2521 N.am      3 UNK        -0.5000 
     60 C           2.0415  -12.9443  -43.4077 C.2       2 UNK         0.5000 
     61 O           2.4866  -13.1306  -42.2760 O.2       2 UNK        -0.5000 
     62 CA          0.8456  -13.7920  -43.8974 C.3       2 UNK         0.1400 
     63 CB         -0.4341  -13.3831  -43.1537 C.3       2 UNK        -0.1800 
     64 N           0.5766  -13.7419  -45.3415 N.am      2 UNK        -0.5000 
     65 C           1.4159  -14.1005  -46.3200 C.2       1 UNK         0.5000 
     66 O           2.5776  -14.4617  -46.1054 O.2       1 UNK        -0.5000 
     67 C          -1.3852  -20.6222  -47.4877 C.2       11 UNK         0.5000 
     68 O          -1.0749  -21.2318  -48.5093 O.2       11 UNK        -0.5000 
     69 N          -2.6313  -20.5937  -46.9936 N.am      12 UNK        -0.5000 
     70 CA         -3.7821  -21.2736  -47.5897 C.3       12 UNK         0.1400 
     71 CB         -5.0554  -20.9173  -46.8101 C.3       12 UNK        -0.1800 
     72 C          -3.6040  -22.7994  -47.6677 C.2       12 UNK         0.5000 
     73 O          -3.9320  -23.3905  -48.6943 O.2       12 UNK        -0.5000 
     74 N          -3.0494  -23.4028  -46.6068 N.am      13 UNK        -0.5000 
     75 CA         -2.7136  -24.8260  -46.5453 C.3       13 UNK         0.1400 
     76 CB         -2.2937  -25.1936  -45.1143 C.3       13 UNK        -0.1800 
     77 C          -1.6245  -25.2353  -47.5552 C.2       13 UNK         0.5000 
     78 O          -1.7066  -26.3261  -48.1196 O.2       13 UNK        -0.5000 
     79 N          -0.6399  -24.3549  -47.7818 N.am      14 UNK        -0.5000 
     80 CA          0.4088  -24.5367  -48.7857 C.3       14 UNK         0.1400 
     81 CB          1.5755  -23.5831  -48.4846 C.3       14 UNK        -0.1800 
     82 C          -0.1112  -24.3342  -50.2221 C.2       14 UNK         0.5000 
     83 O           0.2855  -25.0752  -51.1219 O.2       14 UNK        -0.5000 
     84 N          -0.9864  -23.3376  -50.4111 N.am      15 UNK        -0.5000 
     85 CA         -1.5885  -22.9806  -51.6958 C.3       15 UNK         0.1400 
     86 CB         -2.1598  -21.5573  -51.6038 C.3       15 UNK        -0.1800 
     87 C          -2.6742  -23.9642  -52.1717 C.2       15 UNK         0.5000 
     88 O          -2.9638  -23.9908  -53.3693 O.2       15 UNK        -0.5000 
     89 N          -3.2697  -24.7317  -51.2485 N.am      16 UNK        -0.5000 
     90 CA         -4.3178  -25.7214  -51.5035 C.3       16 UNK         0.1400 
     91 CB         -4.7072  -26.4086  -50.1855 C.3       16 UNK        -0.1800 
     92 C          -3.9033  -26.7660  -52.5571 C.2       16 UNK         0.5000 
     93 O          -2.8551  -27.3982  -52.4125 O.2       16 UNK        -0.5000 
     94 N          -4.7335  -26.8996  -53.6016 N.am      17 UNK        -0.5000 
     95 CA         -4.5442  -27.7453  -54.7888 C.3       17 UNK         0.1400 
     96 CB         -4.5172  -29.2407  -54.4071 C.3       17 UNK        -0.1800 
     97 C          -3.3446  -27.3343  -55.6751 C.2       17 UNK         0.5000 
     98 O          -2.8967  -28.1337  -56.4996 O.2       17 UNK        -0.5000 
     99 N          -2.8609  -26.0971  -55.5123 N.am      18 UNK        -0.5000 
    100 CA        -1.7705  -25.5008  -56.2723 C.3       18 UNK         0.1400 
    101 CB        -0.4810  -25.5351  -55.4252 C.3       18 UNK        -0.1800 
    102 C         -2.2105  -24.0934  -56.7069 C.2       18 UNK         0.5000 
    103 O         -3.0323  -23.9753  -57.6170 O.2       18 UNK        -0.5000 
    104 N         -1.6719  -23.0548  -56.0555 N.am      19 UNK        -0.5000 
    105 CA        -1.9549  -21.6447  -56.3307 C.3       19 UNK         0.1400 
    106 CB        -0.8967  -20.7859  -55.6200 C.3       19 UNK        -0.1800 
    107 C         -3.3685  -21.1877  -55.9179 C.2       19 UNK         0.5000 
    108 O         -3.8417  -20.1751  -56.4352 O.2       19 UNK        -0.5000 
    109 N         -3.9952  -21.9028  -54.9715 N.am      20 UNK        -0.5000 
    110 CA        -5.2999  -21.6721  -54.3327 C.3       20 UNK         0.1400 
    111 CB        -6.4456  -21.6786  -55.3613 C.3       20 UNK        -0.1800 
    112 C         -5.3632  -20.4224  -53.4302 C.2       20 UNK         0.5000 
    113 O         -5.9529  -20.4929  -52.3506 O.2       20 UNK        -0.5000 
    114 N         -4.7392  -19.3207  -53.8683 N.am      21 UNK        -0.5000 
    115 CA        -4.5979  -18.0324  -53.1881 C.3       21 UNK         0.1400 
    116 CB        -3.5894  -18.1575  -52.0275 C.3       21 UNK        -0.1800 
    117 C         -5.9636  -17.4421  -52.7798 C.2       21 UNK         0.5000 
    118 O         -6.7548  -17.1015  -53.6611 O.2       21 UNK        -0.5000 
    119 N         -6.2215  -17.3423  -51.4704 N.am      22 UNK        -0.5000 
    120 CA        -7.5047  -16.9198  -50.8912 C.3       22 UNK         0.1400 
    121 C         -8.6689  -17.9480  -51.0377 C.2       22 UNK         0.5000 
    122 N         -8.4294  -19.1850  -51.4591 N.am      22 UNK        -0.7600 
    123 O         -9.8200  -17.6087  -50.7760 O.2       22 UNK        -0.5000 
    124 C124       -7.3348  -16.4387  -49.4260 C.3       23 UNK        -0.0398 
    125 S125       -6.6785  -17.7249  -48.3037 S.3       23 UNK        -0.2404 
    126 C126       -5.5831  -16.7623  -47.2121 C.3       23 UNK        -0.0205 
    127 H127        3.3073  -15.9612  -51.0208 H         1 UNK         0.0600 
    128 H128        4.1802  -15.0299  -49.8010 H         1 UNK         0.0600 
    129 H129        3.6912  -14.2613  -51.3137 H         1 UNK         0.0600 
    130 H130        2.8782  -14.5002  -48.0844 H         1 UNK         0.3000 
    131 H131        0.1805  -14.8483  -47.8667 H         1 UNK         0.0600 
    132 H132        0.8267  -11.8448  -47.8241 H         1 UNK         0.0800 
    133 H133        0.1177  -12.5785  -49.2185 H         1 UNK         0.0800 
    134 H134       -2.1409  -12.7554  -49.7542 H         1 UNK         0.0800 
    135 H135       -3.5018  -12.4108  -48.7223 H         1 UNK         0.0800 
    136 H136       -4.7501  -14.1932  -47.6344 H         1 UNK         0.1150 
    137 H137       -3.5868  -18.2662  -48.2881 H         1 UNK         0.1150 
    138 H138       -1.1271  -15.0750  -49.7344 H         1 UNK         0.1150 
    139 H139       -1.6422  -18.7709  -49.6460 H         1 UNK         0.0800 
    140 H140       -0.9096  -17.4953  -50.5757 H         1 UNK         0.0800 
    141 H141       -1.3725  -17.9685  -46.7408 H         1 UNK         0.0800 
    142 H142        0.2453  -17.8519  -46.1465 H         1 UNK         0.0800 
    143 H143        0.6736  -20.2295  -47.0545 H         1 UNK         0.0600 
    144 H144       -0.5626  -19.4915  -44.6167 H         1 UNK         0.3000 
    145 H145       -0.6559  -22.7307  -43.1143 H         1 UNK         0.0600 
    146 H146        0.5414  -21.3852  -41.3672 H         1 UNK         0.0600 
    147 H147        1.6139  -21.8798  -42.6678 H         1 UNK         0.0600 
    148 H148        1.0343  -20.2247  -42.5991 H         1 UNK         0.0600 
    149 H149       -1.4887  -20.0784  -42.3308 H         1 UNK         0.3000 
    150 H150       -4.8486  -20.3629  -43.4951 H         1 UNK         0.0600 
    151 H151       -4.8390  -21.6312  -41.3402 H         1 UNK         0.0600 
    152 H152       -5.3436  -19.9665  -41.0996 H         1 UNK         0.0600 
    153 H153       -3.7143  -20.4687  -40.6469 H         1 UNK         0.0600 
    154 H154       -3.5211  -18.3705  -41.9494 H         1 UNK         0.3000 
    155 H155       -2.1093  -16.4975  -44.6277 H         1 UNK         0.0600 
    156 H156       -4.5217  -15.9195  -42.8208 H         1 UNK         0.0600 
    157 H157       -3.5075  -14.7084  -43.6019 H         1 UNK         0.0600 
    158 H158       -4.4964  -15.7794  -44.5740 H         1 UNK         0.0600 
    159 H159       -2.2448  -16.0726  -41.8009 H         1 UNK         0.3000 
    160 H160       -0.0544  -16.1848  -40.6834 H         1 UNK         0.0600 
    161 H161       -0.9202  -19.1237  -40.2749 H         1 UNK         0.0600 
    162 H162       -1.9347  -17.7269  -39.9305 H         1 UNK         0.0600 
    163 H163       -0.4847  -18.0022  -38.9906 H         1 UNK         0.0600 
    164 H164        1.4725  -18.1347  -42.0241 H         1 UNK         0.3000 
    165 H165        4.3772  -17.6828  -40.0988 H         1 UNK         0.0600 
    166 H166        4.7157  -20.1303  -40.3417 H         1 UNK         0.0600 
    167 H167        3.5690  -19.8025  -39.0529 H         1 UNK         0.0600 
    168 H168        2.9893  -20.3697  -40.6134 H         1 UNK         0.0600 
    169 H169        3.8851  -19.0944  -42.5352 H         1 UNK         0.3000 
    170 H170        4.9056  -17.9901  -44.4692 H         1 UNK         0.0600 
    171 H171        2.4854  -18.5997  -44.5269 H         1 UNK         0.0600 
    172 H172        2.0364  -16.9069  -44.6779 H         1 UNK         0.0600 
    173 H173        2.9066  -17.7115  -45.9807 H         1 UNK         0.0600 
    174 H174        3.8639  -15.4075  -45.3060 H         1 UNK         0.3000 
    175 H175        6.9972  -13.6851  -45.0572 H         1 UNK         0.0600 
    176 H176        6.9589  -14.8228  -47.2662 H         1 UNK         0.0600 
    177 H177        5.2277  -14.5419  -47.4098 H         1 UNK         0.0600 
    178 H178        6.3477  -13.1811  -47.4033 H         1 UNK         0.0600 
    179 H179        4.0384  -13.4078  -45.4545 H         1 UNK         0.3000 
    180 H180        3.7857  -10.9273  -42.9906 H         1 UNK         0.0600 
    181 H181        3.7515  -10.3298  -45.9991 H         1 UNK         0.0600 
    182 H182        4.6623   -9.4373  -44.7868 H         1 UNK         0.0600 
    183 H183        2.9067   -9.4092  -44.7533 H         1 UNK         0.0600 
    184 H184        2.0961  -11.9202  -45.1502 H         1 UNK         0.3000 
    185 H185        1.0704  -14.8302  -43.6452 H         1 UNK         0.0600 
    186 H186       -0.3150  -13.4922  -42.0749 H         1 UNK         0.0600 
    187 H187       -0.6987  -12.3440  -43.3536 H         1 UNK         0.0600 
    188 H188       -1.2764  -14.0043  -43.4517 H         1 UNK         0.0600 
    189 H189       -0.3454  -13.4206  -45.6087 H         1 UNK         0.3000 
    190 H190       -2.8214  -20.0242  -46.1715 H         1 UNK         0.3000 
    191 H191       -3.8925  -20.8972  -48.6087 H         1 UNK         0.0600 
    192 H192       -5.0219  -21.2937  -45.7880 H         1 UNK         0.0600 
    193 H193       -5.9375  -21.3433  -47.2894 H         1 UNK         0.0600 
    194 H194       -5.2001  -19.8393  -46.7625 H         1 UNK         0.0600 
    195 H195       -2.8647  -22.8544  -45.7722 H         1 UNK         0.3000 
    196 H196       -3.6163  -25.3902  -46.7890 H         1 UNK         0.0600 
    197 H197       -2.0554  -26.2551  -45.0370 H         1 UNK         0.0600 
    198 H198       -3.0943  -24.9876  -44.4037 H         1 UNK         0.0600 
    199 H199       -1.4130  -24.6347  -44.7971 H         1 UNK         0.0600 
    200 H200       -0.6196  -23.4933  -47.2485 H         1 UNK         0.3000 
    201 H201        0.7845  -25.5593  -48.7088 H         1 UNK         0.0600 
    202 H202        1.9822  -23.7613  -47.4890 H         1 UNK         0.0600 
    203 H203        1.2695  -22.5380  -48.5365 H         1 UNK         0.0600 
    204 H204        2.3877  -23.7230  -49.1989 H         1 UNK         0.0600 
    205 H205       -1.1974  -22.7238  -49.6275 H         1 UNK         0.3000 
    206 H206       -0.7999  -22.9783  -52.4509 H         1 UNK         0.0600 
    207 H207       -2.5538  -21.2290  -52.5650 H         1 UNK         0.0600 
    208 H208       -2.9708  -21.4959  -50.8772 H         1 UNK         0.0600 
    209 H209       -1.3921  -20.8412  -51.3102 H         1 UNK         0.0600 
    210 H210       -3.0199  -24.5840  -50.2789 H         1 UNK         0.3000 
    211 H211       -5.1892  -25.1752  -51.8700 H         1 UNK         0.0600 
    212 H212       -3.8574  -26.9235  -49.7362 H         1 UNK         0.0600 
    213 H213       -5.4912  -27.1493  -50.3476 H         1 UNK         0.0600 
    214 H214       -5.0869  -25.6903  -49.4593 H         1 UNK         0.0600 
    215 H215       -5.5644  -26.3245  -53.6211 H         1 UNK         0.3000 
    216 H216       -5.4292  -27.5873  -55.4066 H         1 UNK         0.0600 
    217 H217       -4.5556  -29.8722  -55.2954 H         1 UNK         0.0600 
    218 H218       -5.3735  -29.5056  -53.7869 H         1 UNK         0.0600 
    219 H219       -3.6115  -29.5048  -53.8607 H         1 UNK         0.0600 
    220 H220       -3.2711  -25.4980  -54.8046 H         1 UNK         0.3000 
    221 H221       -1.5902  -26.0639  -57.1903 H         1 UNK         0.0600 
    222 H222       -0.6099  -25.0516  -54.4562 H         1 UNK         0.0600 
    223 H223       -0.1742  -26.5636  -55.2344 H         1 UNK         0.0600 
    224 H224        0.3453  -25.0451  -55.9418 H         1 UNK         0.0600 
    225 H225       -1.0228  -23.2477  -55.3073 H         1 UNK         0.3000 
    226 H226       -1.8615  -21.4828  -57.4066 H         1 UNK         0.0600 
    227 H227        0.1080  -21.0336  -55.9629 H         1 UNK         0.0600 
    228 H228       -1.0534  -19.7250  -55.8201 H         1 UNK         0.0600 
    229 H229       -0.9261  -20.9229  -54.5384 H         1 UNK         0.0600 
    230 H230       -3.4884  -22.6951  -54.5837 H         1 UNK         0.3000 
    231 H231       -5.4512  -22.5303  -53.6759 H         1 UNK         0.0600 
    232 H232       -7.4140  -21.6291  -54.8620 H         1 UNK         0.0600 
    233 H233       -6.4329  -22.5905  -55.9584 H         1 UNK         0.0600 
    234 H234       -6.3893  -20.8295  -56.0428 H         1 UNK         0.0600 
    235 H235       -4.3445  -19.3727  -54.8034 H         1 UNK         0.3000 
    236 H236       -4.1736  -17.3422  -53.9187 H         1 UNK         0.0600 
    237 H237       -2.6209  -18.5015  -52.3904 H         1 UNK         0.0600 
    238 H238       -3.4279  -17.1885  -51.5552 H         1 UNK         0.0600 
    239 H239       -3.9204  -18.8584  -51.2600 H         1 UNK         0.0600 
    240 H240       -5.5328  -17.6713  -50.8097 H         1 UNK         0.3000 
    241 H241       -7.8295  -16.0484  -51.4629 H         1 UNK         0.0600 
    242 H242       -9.1970  -19.8306  -51.5494 H         1 UNK         0.3800 
    243 H243       -7.4881  -19.4951  -51.6819 H         1 UNK         0.3800 
    244 H244       -6.6674  -15.5765  -49.4116 H         1 UNK         0.0800 
    245 H245       -8.2839  -16.0793  -49.0248 H         1 UNK         0.0800 
    246 H246       -6.1416  -15.9243  -46.7927 H         1 UNK         0.0800 
    247 H247       -5.2964  -17.3898  -46.3685 H         1 UNK         0.0800 
@<TRIPOS>BOND
     1    1    2 1    
     2    1  127 1    
     3    1  128 1    
     4    1  129 1    
     5    2    3 2    
     6    2    4 am   BACKBONE|DICT|INTERRES
     7    4    5 1    
     8    4  130 1    
     9    5    6 1    
    10    5   65 1    
    11    5  131 1    
    12    6    7 1    
    13    6  132 1    
    14    6  133 1    
    15    7    8 1    
    16    8    9 1    
    17    8  134 1    
    18    8  135 1    
    19    9   10 ar   
    20    9   14 ar   
    21   10   11 ar   
    22   10  136 1    
    23   11   12 ar   
    24   11  126 1    
    25   12   13 ar   
    26   12  137 1    
    27   13   14 ar   
    28   13   15 1    
    29   14  138 1    
    30   15   16 1    
    31   15  139 1    
    32   15  140 1    
    33   16   17 1    
    34   17   18 1    
    35   17  141 1    
    36   17  142 1    
    37   18   19 1    
    38   18   67 1    
    39   18  143 1    
    40   19   20 am   BACKBONE|DICT|INTERRES
    41   19  144 1    
    42   20   21 2    
    43   20   22 1    
    44   22   23 1    
    45   22   24 1    
    46   22  145 1    
    47   23  146 1    
    48   23  147 1    
    49   23  148 1    
    50   24   25 am   BACKBONE|DICT|INTERRES
    51   24  149 1    
    52   25   26 2    
    53   25   27 1    
    54   27   28 1    
    55   27   29 1    
    56   27  150 1    
    57   28  151 1    
    58   28  152 1    
    59   28  153 1    
    60   29   30 am   BACKBONE|DICT|INTERRES
    61   29  154 1    
    62   30   31 2    
    63   30   32 1    
    64   32   33 1    
    65   32   34 1    
    66   32  155 1    
    67   33  156 1    
    68   33  157 1    
    69   33  158 1    
    70   34   35 am   BACKBONE|DICT|INTERRES
    71   34  159 1    
    72   35   36 2    
    73   35   37 1    
    74   37   38 1    
    75   37   39 1    
    76   37  160 1    
    77   38  161 1    
    78   38  162 1    
    79   38  163 1    
    80   39   40 am   BACKBONE|DICT|INTERRES
    81   39  164 1    
    82   40   41 2    
    83   40   42 1    
    84   42   43 1    
    85   42   44 1    
    86   42  165 1    
    87   43  166 1    
    88   43  167 1    
    89   43  168 1    
    90   44   45 am   BACKBONE|DICT|INTERRES
    91   44  169 1    
    92   45   46 2    
    93   45   47 1    
    94   47   48 1    
    95   47   49 1    
    96   47  170 1    
    97   48  171 1    
    98   48  172 1    
    99   48  173 1    
   100   49   50 am   BACKBONE|DICT|INTERRES
   101   49  174 1    
   102   50   51 2    
   103   50   52 1    
   104   52   53 1    
   105   52   54 1    
   106   52  175 1    
   107   53  176 1    
   108   53  177 1    
   109   53  178 1    
   110   54   55 am   BACKBONE|DICT|INTERRES
   111   54  179 1    
   112   55   56 2    
   113   55   57 1    
   114   57   58 1    
   115   57   59 1    
   116   57  180 1    
   117   58  181 1    
   118   58  182 1    
   119   58  183 1    
   120   59   60 am   BACKBONE|DICT|INTERRES
   121   59  184 1    
   122   60   61 2    
   123   60   62 1    
   124   62   63 1    
   125   62   64 1    
   126   62  185 1    
   127   63  186 1    
   128   63  187 1    
   129   63  188 1    
   130   64   65 am   BACKBONE|DICT|INTERRES
   131   64  189 1    
   132   65   66 2    
   133   67   68 2    
   134   67   69 am   BACKBONE|DICT|INTERRES
   135   69   70 1    
   136   69  190 1    
   137   70   71 1    
   138   70   72 1    
   139   70  191 1    
   140   71  192 1    
   141   71  193 1    
   142   71  194 1    
   143   72   73 2    
   144   72   74 am   BACKBONE|DICT|INTERRES
   145   74   75 1    
   146   74  195 1    
   147   75   76 1    
   148   75   77 1    
   149   75  196 1    
   150   76  197 1    
   151   76  198 1    
   152   76  199 1    
   153   77   78 2    
   154   77   79 am   BACKBONE|DICT|INTERRES
   155   79   80 1    
   156   79  200 1    
   157   80   81 1    
   158   80   82 1    
   159   80  201 1    
   160   81  202 1    
   161   81  203 1    
   162   81  204 1    
   163   82   83 2    
   164   82   84 am   BACKBONE|DICT|INTERRES
   165   84   85 1    
   166   84  205 1    
   167   85   86 1    
   168   85   87 1    
   169   85  206 1    
   170   86  207 1    
   171   86  208 1    
   172   86  209 1    
   173   87   88 2    
   174   87   89 am   BACKBONE|DICT|INTERRES
   175   89   90 1    
   176   89  210 1    
   177   90   91 1    
   178   90   92 1    
   179   90  211 1    
   180   91  212 1    
   181   91  213 1    
   182   91  214 1    
   183   92   93 2    
   184   92   94 am   BACKBONE|DICT|INTERRES
   185   94   95 1    
   186   94  215 1    
   187   95   96 1    
   188   95   97 1    
   189   95  216 1    
   190   96  217 1    
   191   96  218 1    
   192   96  219 1    
   193   97   98 2    
   194   97   99 am   BACKBONE|DICT|INTERRES
   195   99  100 1    
   196   99  220 1    
   197  100  101 1    
   198  100  102 1    
   199  100  221 1    
   200  101  222 1    
   201  101  223 1    
   202  101  224 1    
   203  102  103 2    
   204  102  104 am   BACKBONE|DICT|INTERRES
   205  104  105 1    
   206  104  225 1    
   207  105  106 1    
   208  105  107 1    
   209  105  226 1    
   210  106  227 1    
   211  106  228 1    
   212  106  229 1    
   213  107  108 2    
   214  107  109 am   BACKBONE|DICT|INTERRES
   215  109  110 1    
   216  109  230 1    
   217  110  111 1    
   218  110  112 1    
   219  110  231 1    
   220  111  232 1    
   221  111  233 1    
   222  111  234 1    
   223  112  113 2    
   224  112  114 am   BACKBONE|DICT|INTERRES
   225  114  115 1    
   226  114  235 1    
   227  115  116 1    
   228  115  117 1    
   229  115  236 1    
   230  116  237 1    
   231  116  238 1    
   232  116  239 1    
   233  117  118 2    
   234  117  119 am   BACKBONE|DICT|INTERRES
   235  119  120 1    
   236  119  240 1    
   237  120  121 1    
   238  120  124 1    
   239  120  241 1    
   240  121  122 am   BACKBONE|DICT|INTERRES
   241  121  123 2    
   242  122  242 1    
   243  122  243 1    
   244  124  125 1    
   245  124  244 1    
   246  124  245 1    
   247  125  126 1    
   248  126  246 1    
   249  126  247 1    
@<TRIPOS>SUBSTRUCTURE
     1 UNK         1 GROUP             0       ****    0 ROOT    
