@<TRIPOS>MOLECULE
3R540
247   249    1
SMALL
USER_CHARGES


@<TRIPOS>ATOM
      1 CA          6.9197  -13.4377  -45.8443 C.3       0 UNK        -0.1800 
      2 C           5.4034  -13.4206  -45.9595 C.2       0 UNK         0.5000 
      3 O           4.7595  -12.5165  -45.4275 O.2       0 UNK        -0.5000 
      4 N           4.8301  -14.4003  -46.6709 N.am      1 UNK        -0.5000 
      5 CA          3.3863  -14.6140  -46.8662 C.3       1 UNK         0.1400 
      6 C6          3.0962  -15.9569  -47.5799 C.3       23 UNK        -0.0398 
      7 S7          3.9510  -16.1470  -49.1854 S.3       23 UNK        -0.2404 
      8 C8          2.5717  -16.0086  -50.3714 C.3       23 UNK        -0.0205 
      9 C9          1.5903  -17.1694  -50.2658 C.ar      23 UNK        -0.0193 
     10 C10         0.2391  -16.9313  -49.9933 C.ar      23 UNK        -0.1150 
     11 C11        -0.6622  -17.9954  -49.8849 C.ar      23 UNK        -0.0193 
     12 C12        -0.1973  -19.3055  -50.0301 C.ar      23 UNK        -0.1150 
     13 C13         1.1469  -19.5561  -50.3164 C.ar      23 UNK        -0.0193 
     14 C14         2.0321  -18.4833  -50.4475 C.ar      23 UNK        -0.1150 
     15 C15         1.6427  -20.9876  -50.4630 C.3       23 UNK        -0.0205 
     16 S16         2.8434  -21.4533  -49.1704 S.3       23 UNK        -0.2404 
     17 C17         1.9547  -21.0368  -47.6296 C.3       23 UNK        -0.0398 
     18 CA          1.2681  -22.2425  -46.9519 C.3       11 UNK         0.1400 
     19 N           0.9095  -21.9326  -45.5682 N.am      11 UNK        -0.5000 
     20 C           0.4866  -22.8245  -44.6641 C.2       10 UNK         0.5000 
     21 O           0.3899  -24.0309  -44.8877 O.2       10 UNK        -0.5000 
     22 CA          0.0577  -22.2662  -43.2950 C.3       10 UNK         0.1400 
     23 CB          1.2817  -21.9910  -42.4092 C.3       10 UNK        -0.1800 
     24 N          -0.7505  -21.0504  -43.4114 N.am      10 UNK        -0.5000 
     25 C          -1.9548  -20.9993  -43.9993 C.2       9 UNK         0.5000 
     26 O          -2.5273  -21.9825  -44.4686 O.2       9 UNK        -0.5000 
     27 CA         -2.6128  -19.6140  -44.1267 C.3       9 UNK         0.1400 
     28 CB         -3.2583  -19.1911  -42.7989 C.3       9 UNK        -0.1800 
     29 N          -1.6804  -18.5795  -44.5755 N.am      9 UNK        -0.5000 
     30 C          -1.0446  -18.5877  -45.7557 C.2       8 UNK         0.5000 
     31 O          -1.1930  -19.4631  -46.6057 O.2       8 UNK        -0.5000 
     32 CA         -0.0277  -17.4613  -46.0075 C.3       8 UNK         0.1400 
     33 CB         -0.7382  -16.1443  -46.3502 C.3       8 UNK        -0.1800 
     34 N           0.8671  -17.2553  -44.8686 N.am      8 UNK        -0.5000 
     35 C           1.6985  -18.1868  -44.3789 C.2       7 UNK         0.5000 
     36 O           1.8538  -19.2996  -44.8784 O.2       7 UNK        -0.5000 
     37 CA          2.4387  -17.8359  -43.0797 C.3       7 UNK         0.1400 
     38 CB          3.6928  -16.9997  -43.3747 C.3       7 UNK        -0.1800 
     39 N           1.5669  -17.1285  -42.1410 N.am      7 UNK        -0.5000 
     40 C           0.5363  -17.6999  -41.4996 C.2       6 UNK         0.5000 
     41 O           0.2425  -18.8910  -41.6036 O.2       6 UNK        -0.5000 
     42 CA         -0.3374  -16.7762  -40.6307 C.3       6 UNK         0.1400 
     43 CB          0.2961  -16.5758  -39.2461 C.3       6 UNK        -0.1800 
     44 N          -0.5678  -15.4716  -41.2533 N.am      6 UNK        -0.5000 
     45 C          -1.2741  -15.2830  -42.3774 C.2       5 UNK         0.5000 
     46 O          -1.8511  -16.1884  -42.9773 O.2       5 UNK        -0.5000 
     47 CA         -1.3013  -13.8541  -42.9547 C.3       5 UNK         0.1400 
     48 CB         -2.4955  -13.0689  -42.3933 C.3       5 UNK        -0.1800 
     49 N          -0.0678  -13.1011  -42.7100 N.am      5 UNK        -0.5000 
     50 C           1.1444  -13.4577  -43.1526 C.2       4 UNK         0.5000 
     51 O           1.3535  -14.4639  -43.8340 O.2       4 UNK        -0.5000 
     52 CA          2.3140  -12.5508  -42.7393 C.3       4 UNK         0.1400 
     53 CB          3.5601  -13.3680  -42.3600 C.3       4 UNK        -0.1800 
     54 N           2.6569  -11.6265  -43.8145 N.am      4 UNK        -0.5000 
     55 C           2.0110  -10.4822  -44.0736 C.2       3 UNK         0.5000 
     56 O           1.0316  -10.0960  -43.4340 O.2       3 UNK        -0.5000 
     57 CA          2.5481   -9.6167  -45.2252 C.3       3 UNK         0.1400 
     58 CB          3.7849   -8.8242  -44.7722 C.3       3 UNK        -0.1800 
     59 N           2.9004  -10.4284  -46.3897 N.am      3 UNK        -0.5000 
     60 C           2.3750  -10.2847  -47.6151 C.2       2 UNK         0.5000 
     61 O           1.5444   -9.4232  -47.9073 O.2       2 UNK        -0.5000 
     62 CA          2.8520  -11.2627  -48.7112 C.3       2 UNK         0.1400 
     63 CB          3.9373  -10.6092  -49.5800 C.3       2 UNK        -0.1800 
     64 N           3.3708  -12.5223  -48.1786 N.am      2 UNK        -0.5000 
     65 C           2.6351  -13.4421  -47.5404 C.2       1 UNK         0.5000 
     66 O           1.4098  -13.3774  -47.4499 O.2       1 UNK        -0.5000 
     67 C           0.0534  -22.7562  -47.7538 C.2       11 UNK         0.5000 
     68 O           0.1739  -23.7652  -48.4469 O.2       11 UNK        -0.5000 
     69 N          -1.1053  -22.0954  -47.6147 N.am      12 UNK        -0.5000 
     70 CA         -2.3692  -22.5070  -48.2284 C.3       12 UNK         0.1400 
     71 CB         -3.4379  -21.4282  -48.0040 C.3       12 UNK        -0.1800 
     72 C          -2.8603  -23.8762  -47.7253 C.2       12 UNK         0.5000 
     73 O          -3.3388  -24.6761  -48.5296 O.2       12 UNK        -0.5000 
     74 N          -2.6985  -24.1400  -46.4209 N.am      13 UNK        -0.5000 
     75 CA         -2.9845  -25.4317  -45.7970 C.3       13 UNK         0.1400 
     76 CB         -2.9173  -25.3022  -44.2681 C.3       13 UNK        -0.1800 
     77 C          -2.0498  -26.5462  -46.3011 C.2       13 UNK         0.5000 
     78 O          -2.5296  -27.6337  -46.6205 O.2       13 UNK        -0.5000 
     79 N          -0.7472  -26.2476  -46.4176 N.am      14 UNK        -0.5000 
     80 CA          0.2671  -27.1451  -46.9810 C.3       14 UNK         0.1400 
     81 CB          1.6648  -26.5481  -46.7588 C.3       14 UNK        -0.1800 
     82 C           0.0334  -27.4560  -48.4732 C.2       14 UNK         0.5000 
     83 O           0.2550  -28.5887  -48.9020 O.2       14 UNK        -0.5000 
     84 N          -0.4567  -26.4597  -49.2228 N.am      15 UNK        -0.5000 
     85 CA         -0.8924  -26.5743  -50.6166 C.3       15 UNK         0.1400 
     86 CB         -0.9283  -25.1684  -51.2390 C.3       15 UNK        -0.1800 
     87 C          -2.2573  -27.2784  -50.7855 C.2       15 UNK         0.5000 
     88 O          -2.6707  -27.5077  -51.9224 O.2       15 UNK        -0.5000 
     89 N          -2.9328  -27.5971  -49.6704 N.am      16 UNK        -0.5000 
     90 CA         -4.2410  -28.2492  -49.5671 C.3       16 UNK         0.1400 
     91 CB         -4.1801  -29.6932  -50.1086 C.3       16 UNK        -0.1800 
     92 C          -5.3831  -27.4126  -50.1799 C.2       16 UNK         0.5000 
     93 O          -6.2838  -27.9710  -50.8092 O.2       16 UNK        -0.5000 
     94 N          -5.3237  -26.0880  -49.9673 N.am      17 UNK        -0.5000 
     95 CA         -6.2695  -25.0674  -50.4292 C.3       17 UNK         0.1400 
     96 CB         -7.6263  -25.2146  -49.7096 C.3       17 UNK        -0.1800 
     97 C          -6.3917  -25.0434  -51.9662 C.2       17 UNK         0.5000 
     98 O          -7.4853  -25.2061  -52.5109 O.2       17 UNK        -0.5000 
     99 N          -5.2418  -24.8630  -52.6323 N.am      18 UNK        -0.5000 
    100 CA        -5.0870  -24.8843  -54.0907 C.3       18 UNK         0.1400 
    101 CB        -3.5942  -24.7646  -54.4349 C.3       18 UNK        -0.1800 
    102 C         -5.9038  -23.8127  -54.8433 C.2       18 UNK         0.5000 
    103 O         -6.3209  -24.0714  -55.9735 O.2       18 UNK        -0.5000 
    104 N         -6.1321  -22.6605  -54.1895 N.am      19 UNK        -0.5000 
    105 CA        -6.9163  -21.4967  -54.6320 C.3       19 UNK         0.1400 
    106 CB        -8.3578  -21.9360  -54.9818 C.3       19 UNK        -0.1800 
    107 C         -6.2492  -20.7032  -55.7873 C.2       19 UNK         0.5000 
    108 O         -5.3117  -21.1990  -56.4127 O.2       19 UNK        -0.5000 
    109 N         -6.6817  -19.4731  -56.1032 N.am      20 UNK        -0.5000 
    110 CA        -7.6980  -18.6460  -55.4390 C.3       20 UNK         0.1400 
    111 CB        -8.8600  -18.4164  -56.4206 C.3       20 UNK        -0.1800 
    112 C         -7.1237  -17.2988  -54.9576 C.2       20 UNK         0.5000 
    113 O         -7.8562  -16.5184  -54.3472 O.2       20 UNK        -0.5000 
    114 N         -5.8296  -17.0462  -55.2113 N.am      21 UNK        -0.5000 
    115 CA        -5.1214  -15.8034  -54.8774 C.3       21 UNK         0.1400 
    116 CB        -3.7020  -15.8673  -55.4623 C.3       21 UNK        -0.1800 
    117 C         -5.0670  -15.4898  -53.3684 C.2       21 UNK         0.5000 
    118 O         -4.9561  -14.3217  -52.9939 O.2       21 UNK        -0.5000 
    119 N         -5.1664  -16.5341  -52.5381 N.am      22 UNK        -0.5000 
    120 CA        -5.2562  -16.4499  -51.0728 C.3       22 UNK         0.1400 
    121 C         -6.6436  -15.9771  -50.5425 C.2       22 UNK         0.5000 
    122 N         -7.6765  -15.8527  -51.3696 N.am      22 UNK        -0.7600 
    123 O         -6.7845  -15.7110  -49.3522 O.2       22 UNK        -0.5000 
    124 C124       -4.8336  -17.7801  -50.3958 C.3       23 UNK        -0.0398 
    125 S125       -3.1930  -18.3625  -50.9436 S.3       23 UNK        -0.2404 
    126 C126       -2.1349  -17.7356  -49.6031 C.3       23 UNK        -0.0205 
    127 H127        7.2131  -13.5058  -44.7969 H         1 UNK         0.0600 
    128 H128        7.3576  -14.2821  -46.3770 H         1 UNK         0.0600 
    129 H129        7.3369  -12.5195  -46.2576 H         1 UNK         0.0600 
    130 H130        5.4211  -15.0890  -47.1154 H         1 UNK         0.3000 
    131 H131        2.9578  -14.6887  -45.8664 H         1 UNK         0.0600 
    132 H132        2.0234  -16.0952  -47.7127 H         1 UNK         0.0800 
    133 H133        3.4137  -16.7810  -46.9395 H         1 UNK         0.0800 
    134 H134        2.0667  -15.0529  -50.2221 H         1 UNK         0.0800 
    135 H135        2.9792  -15.9859  -51.3828 H         1 UNK         0.0800 
    136 H136       -0.1111  -15.9166  -49.8654 H         1 UNK         0.1150 
    137 H137       -0.8898  -20.1289  -49.9248 H         1 UNK         0.1150 
    138 H138        3.0745  -18.6740  -50.6620 H         1 UNK         0.1150 
    139 H139        0.8091  -21.6912  -50.4461 H         1 UNK         0.0800 
    140 H140        2.1152  -21.1014  -51.4394 H         1 UNK         0.0800 
    141 H141        1.2499  -20.2192  -47.7777 H         1 UNK         0.0800 
    142 H142        2.7148  -20.6371  -46.9577 H         1 UNK         0.0800 
    143 H143        1.9944  -23.0570  -46.9097 H         1 UNK         0.0600 
    144 H144        1.0010  -20.9595  -45.2886 H         1 UNK         0.3000 
    145 H145       -0.5527  -23.0266  -42.8035 H         1 UNK         0.0600 
    146 H146        0.9812  -21.6717  -41.4112 H         1 UNK         0.0600 
    147 H147        1.8908  -22.8885  -42.2946 H         1 UNK         0.0600 
    148 H148        1.9181  -21.2127  -42.8309 H         1 UNK         0.0600 
    149 H149       -0.3618  -20.2030  -43.0096 H         1 UNK         0.3000 
    150 H150       -3.4028  -19.6922  -44.8763 H         1 UNK         0.0600 
    151 H151       -3.9667  -19.9440  -42.4510 H         1 UNK         0.0600 
    152 H152       -3.8062  -18.2551  -42.9085 H         1 UNK         0.0600 
    153 H153       -2.5138  -19.0520  -42.0146 H         1 UNK         0.0600 
    154 H154       -1.5413  -17.7922  -43.9477 H         1 UNK         0.3000 
    155 H155        0.5838  -17.7559  -46.8625 H         1 UNK         0.0600 
    156 H156       -1.4377  -15.8441  -45.5715 H         1 UNK         0.0600 
    157 H157       -1.3048  -16.2358  -47.2756 H         1 UNK         0.0600 
    158 H158       -0.0252  -15.3327  -46.4839 H         1 UNK         0.0600 
    159 H159        0.8292  -16.3510  -44.4095 H         1 UNK         0.3000 
    160 H160        2.7577  -18.7688  -42.6101 H         1 UNK         0.0600 
    161 H161        4.2120  -16.7236  -42.4569 H         1 UNK         0.0600 
    162 H162        3.4520  -16.0856  -43.9150 H         1 UNK         0.0600 
    163 H163        4.3957  -17.5621  -43.9904 H         1 UNK         0.0600 
    164 H164        1.7047  -16.1327  -42.0548 H         1 UNK         0.3000 
    165 H165       -1.3054  -17.2637  -40.4961 H         1 UNK         0.0600 
    166 H166       -0.3526  -15.9867  -38.5975 H         1 UNK         0.0600 
    167 H167        0.4639  -17.5339  -38.7522 H         1 UNK         0.0600 
    168 H168        1.2585  -16.0668  -39.3111 H         1 UNK         0.0600 
    169 H169       -0.1326  -14.6719  -40.8183 H         1 UNK         0.3000 
    170 H170       -1.4265  -13.9383  -44.0358 H         1 UNK         0.0600 
    171 H171       -3.4322  -13.5948  -42.5829 H         1 UNK         0.0600 
    172 H172       -2.4121  -12.9241  -41.3154 H         1 UNK         0.0600 
    173 H173       -2.5759  -12.0866  -42.8595 H         1 UNK         0.0600 
    174 H174       -0.1602  -12.2378  -42.1930 H         1 UNK         0.3000 
    175 H175        2.0186  -11.9801  -41.8561 H         1 UNK         0.0600 
    176 H176        3.9611  -13.9152  -43.2124 H         1 UNK         0.0600 
    177 H177        4.3520  -12.7212  -41.9823 H         1 UNK         0.0600 
    178 H178        3.3322  -14.0941  -41.5788 H         1 UNK         0.0600 
    179 H179        3.4485  -11.8984  -44.3937 H         1 UNK         0.3000 
    180 H180        1.7641   -8.9002  -45.4784 H         1 UNK         0.0600 
    181 H181        4.6145   -9.4839  -44.5141 H         1 UNK         0.0600 
    182 H182        3.5608   -8.2163  -43.8946 H         1 UNK         0.0600 
    183 H183        4.1268   -8.1492  -45.5568 H         1 UNK         0.0600 
    184 H184        3.5675  -11.1766  -46.2307 H         1 UNK         0.3000 
    185 H185        1.9937  -11.4902  -49.3468 H         1 UNK         0.0600 
    186 H186        3.5770   -9.6789  -50.0213 H         1 UNK         0.0600 
    187 H187        4.8295  -10.3728  -48.9986 H         1 UNK         0.0600 
    188 H188        4.2333  -11.2632  -50.4006 H         1 UNK         0.0600 
    189 H189        4.3709  -12.6548  -48.2133 H         1 UNK         0.3000 
    190 H190       -1.1260  -21.2379  -47.0658 H         1 UNK         0.3000 
    191 H191       -2.2006  -22.5925  -49.3035 H         1 UNK         0.0600 
    192 H192       -3.6167  -21.2525  -46.9430 H         1 UNK         0.0600 
    193 H193       -4.3875  -21.7167  -48.4562 H         1 UNK         0.0600 
    194 H194       -3.1394  -20.4824  -48.4540 H         1 UNK         0.0600 
    195 H195       -2.3595  -23.4026  -45.8099 H         1 UNK         0.3000 
    196 H196       -4.0057  -25.7107  -46.0652 H         1 UNK         0.0600 
    197 H197       -1.9275  -24.9964  -43.9299 H         1 UNK         0.0600 
    198 H198       -3.1506  -26.2519  -43.7853 H         1 UNK         0.0600 
    199 H199       -3.6354  -24.5671  -43.9042 H         1 UNK         0.0600 
    200 H200       -0.4209  -25.3438  -46.0868 H         1 UNK         0.3000 
    201 H201        0.2126  -28.0894  -46.4357 H         1 UNK         0.0600 
    202 H202        1.7809  -25.5913  -47.2677 H         1 UNK         0.0600 
    203 H203        2.4394  -27.2166  -47.1364 H         1 UNK         0.0600 
    204 H204        1.8611  -26.3883  -45.6985 H         1 UNK         0.0600 
    205 H205       -0.5215  -25.5342  -48.8075 H         1 UNK         0.3000 
    206 H206       -0.1536  -27.1670  -51.1596 H         1 UNK         0.0600 
    207 H207        0.0391  -24.6732  -51.1525 H         1 UNK         0.0600 
    208 H208       -1.1738  -25.2137  -52.3004 H         1 UNK         0.0600 
    209 H209       -1.6723  -24.5350  -50.7561 H         1 UNK         0.0600 
    210 H210       -2.5132  -27.3488  -48.7832 H         1 UNK         0.3000 
    211 H211       -4.4606  -28.3130  -48.5007 H         1 UNK         0.0600 
    212 H212       -4.0276  -29.7169  -51.1879 H         1 UNK         0.0600 
    213 H213       -5.1067  -30.2284  -49.8983 H         1 UNK         0.0600 
    214 H214       -3.3701  -30.2541  -49.6423 H         1 UNK         0.0600 
    215 H215       -4.5284  -25.7250  -49.4434 H         1 UNK         0.3000 
    216 H216       -5.8490  -24.1040  -50.1367 H         1 UNK         0.0600 
    217 H217       -7.5019  -25.1853  -48.6271 H         1 UNK         0.0600 
    218 H218       -8.3007  -24.4017  -49.9810 H         1 UNK         0.0600 
    219 H219       -8.1244  -26.1505  -49.9643 H         1 UNK         0.0600 
    220 H220       -4.3910  -24.7774  -52.0961 H         1 UNK         0.3000 
    221 H221       -5.4368  -25.8586  -54.4381 H         1 UNK         0.0600 
    222 H222       -3.1671  -23.8344  -54.0581 H         1 UNK         0.0600 
    223 H223       -3.0253  -25.5930  -54.0126 H         1 UNK         0.0600 
    224 H224       -3.4386  -24.7838  -55.5144 H         1 UNK         0.0600 
    225 H225       -5.7074  -22.5680  -53.2785 H         1 UNK         0.3000 
    226 H226       -6.9522  -20.8452  -53.7588 H         1 UNK         0.0600 
    227 H227       -8.7637  -22.5979  -54.2163 H         1 UNK         0.0600 
    228 H228       -9.0402  -21.0921  -55.0585 H         1 UNK         0.0600 
    229 H229       -8.4007  -22.4647  -55.9343 H         1 UNK         0.0600 
    230 H230       -6.2460  -19.0312  -56.8996 H         1 UNK         0.3000 
    231 H231       -8.0935  -19.1258  -54.5458 H         1 UNK         0.0600 
    232 H232       -9.2916  -19.3601  -56.7541 H         1 UNK         0.0600 
    233 H233       -8.5350  -17.8689  -57.3063 H         1 UNK         0.0600 
    234 H234       -9.6616  -17.8415  -55.9549 H         1 UNK         0.0600 
    235 H235       -5.2857  -17.7564  -55.6783 H         1 UNK         0.3000 
    236 H236       -5.6537  -14.9808  -55.3594 H         1 UNK         0.0600 
    237 H237       -3.1284  -16.6909  -55.0352 H         1 UNK         0.0600 
    238 H238       -3.7254  -15.9978  -56.5444 H         1 UNK         0.0600 
    239 H239       -3.1537  -14.9462  -55.2599 H         1 UNK         0.0600 
    240 H240       -5.2320  -17.4582  -52.9360 H         1 UNK         0.3000 
    241 H241       -4.5450  -15.6871  -50.7502 H         1 UNK         0.0600 
    242 H242       -8.5628  -15.5408  -51.0052 H         1 UNK         0.3800 
    243 H243       -7.5902  -16.0563  -52.3589 H         1 UNK         0.3800 
    244 H244       -4.8305  -17.6779  -49.3090 H         1 UNK         0.0800 
    245 H245       -5.5579  -18.5643  -50.6217 H         1 UNK         0.0800 
    246 H246       -2.4129  -18.2123  -48.6632 H         1 UNK         0.0800 
    247 H247       -2.3197  -16.6674  -49.4805 H         1 UNK         0.0800 
@<TRIPOS>BOND
     1    1    2 1    
     2    1  127 1    
     3    1  128 1    
     4    1  129 1    
     5    2    3 2    
     6    2    4 am   BACKBONE|DICT|INTERRES
     7    4    5 1    
     8    4  130 1    
     9    5    6 1    
    10    5   65 1    
    11    5  131 1    
    12    6    7 1    
    13    6  132 1    
    14    6  133 1    
    15    7    8 1    
    16    8    9 1    
    17    8  134 1    
    18    8  135 1    
    19    9   10 ar   
    20    9   14 ar   
    21   10   11 ar   
    22   10  136 1    
    23   11   12 ar   
    24   11  126 1    
    25   12   13 ar   
    26   12  137 1    
    27   13   14 ar   
    28   13   15 1    
    29   14  138 1    
    30   15   16 1    
    31   15  139 1    
    32   15  140 1    
    33   16   17 1    
    34   17   18 1    
    35   17  141 1    
    36   17  142 1    
    37   18   19 1    
    38   18   67 1    
    39   18  143 1    
    40   19   20 am   BACKBONE|DICT|INTERRES
    41   19  144 1    
    42   20   21 2    
    43   20   22 1    
    44   22   23 1    
    45   22   24 1    
    46   22  145 1    
    47   23  146 1    
    48   23  147 1    
    49   23  148 1    
    50   24   25 am   BACKBONE|DICT|INTERRES
    51   24  149 1    
    52   25   26 2    
    53   25   27 1    
    54   27   28 1    
    55   27   29 1    
    56   27  150 1    
    57   28  151 1    
    58   28  152 1    
    59   28  153 1    
    60   29   30 am   BACKBONE|DICT|INTERRES
    61   29  154 1    
    62   30   31 2    
    63   30   32 1    
    64   32   33 1    
    65   32   34 1    
    66   32  155 1    
    67   33  156 1    
    68   33  157 1    
    69   33  158 1    
    70   34   35 am   BACKBONE|DICT|INTERRES
    71   34  159 1    
    72   35   36 2    
    73   35   37 1    
    74   37   38 1    
    75   37   39 1    
    76   37  160 1    
    77   38  161 1    
    78   38  162 1    
    79   38  163 1    
    80   39   40 am   BACKBONE|DICT|INTERRES
    81   39  164 1    
    82   40   41 2    
    83   40   42 1    
    84   42   43 1    
    85   42   44 1    
    86   42  165 1    
    87   43  166 1    
    88   43  167 1    
    89   43  168 1    
    90   44   45 am   BACKBONE|DICT|INTERRES
    91   44  169 1    
    92   45   46 2    
    93   45   47 1    
    94   47   48 1    
    95   47   49 1    
    96   47  170 1    
    97   48  171 1    
    98   48  172 1    
    99   48  173 1    
   100   49   50 am   BACKBONE|DICT|INTERRES
   101   49  174 1    
   102   50   51 2    
   103   50   52 1    
   104   52   53 1    
   105   52   54 1    
   106   52  175 1    
   107   53  176 1    
   108   53  177 1    
   109   53  178 1    
   110   54   55 am   BACKBONE|DICT|INTERRES
   111   54  179 1    
   112   55   56 2    
   113   55   57 1    
   114   57   58 1    
   115   57   59 1    
   116   57  180 1    
   117   58  181 1    
   118   58  182 1    
   119   58  183 1    
   120   59   60 am   BACKBONE|DICT|INTERRES
   121   59  184 1    
   122   60   61 2    
   123   60   62 1    
   124   62   63 1    
   125   62   64 1    
   126   62  185 1    
   127   63  186 1    
   128   63  187 1    
   129   63  188 1    
   130   64   65 am   BACKBONE|DICT|INTERRES
   131   64  189 1    
   132   65   66 2    
   133   67   68 2    
   134   67   69 am   BACKBONE|DICT|INTERRES
   135   69   70 1    
   136   69  190 1    
   137   70   71 1    
   138   70   72 1    
   139   70  191 1    
   140   71  192 1    
   141   71  193 1    
   142   71  194 1    
   143   72   73 2    
   144   72   74 am   BACKBONE|DICT|INTERRES
   145   74   75 1    
   146   74  195 1    
   147   75   76 1    
   148   75   77 1    
   149   75  196 1    
   150   76  197 1    
   151   76  198 1    
   152   76  199 1    
   153   77   78 2    
   154   77   79 am   BACKBONE|DICT|INTERRES
   155   79   80 1    
   156   79  200 1    
   157   80   81 1    
   158   80   82 1    
   159   80  201 1    
   160   81  202 1    
   161   81  203 1    
   162   81  204 1    
   163   82   83 2    
   164   82   84 am   BACKBONE|DICT|INTERRES
   165   84   85 1    
   166   84  205 1    
   167   85   86 1    
   168   85   87 1    
   169   85  206 1    
   170   86  207 1    
   171   86  208 1    
   172   86  209 1    
   173   87   88 2    
   174   87   89 am   BACKBONE|DICT|INTERRES
   175   89   90 1    
   176   89  210 1    
   177   90   91 1    
   178   90   92 1    
   179   90  211 1    
   180   91  212 1    
   181   91  213 1    
   182   91  214 1    
   183   92   93 2    
   184   92   94 am   BACKBONE|DICT|INTERRES
   185   94   95 1    
   186   94  215 1    
   187   95   96 1    
   188   95   97 1    
   189   95  216 1    
   190   96  217 1    
   191   96  218 1    
   192   96  219 1    
   193   97   98 2    
   194   97   99 am   BACKBONE|DICT|INTERRES
   195   99  100 1    
   196   99  220 1    
   197  100  101 1    
   198  100  102 1    
   199  100  221 1    
   200  101  222 1    
   201  101  223 1    
   202  101  224 1    
   203  102  103 2    
   204  102  104 am   BACKBONE|DICT|INTERRES
   205  104  105 1    
   206  104  225 1    
   207  105  106 1    
   208  105  107 1    
   209  105  226 1    
   210  106  227 1    
   211  106  228 1    
   212  106  229 1    
   213  107  108 2    
   214  107  109 am   BACKBONE|DICT|INTERRES
   215  109  110 1    
   216  109  230 1    
   217  110  111 1    
   218  110  112 1    
   219  110  231 1    
   220  111  232 1    
   221  111  233 1    
   222  111  234 1    
   223  112  113 2    
   224  112  114 am   BACKBONE|DICT|INTERRES
   225  114  115 1    
   226  114  235 1    
   227  115  116 1    
   228  115  117 1    
   229  115  236 1    
   230  116  237 1    
   231  116  238 1    
   232  116  239 1    
   233  117  118 2    
   234  117  119 am   BACKBONE|DICT|INTERRES
   235  119  120 1    
   236  119  240 1    
   237  120  121 1    
   238  120  124 1    
   239  120  241 1    
   240  121  122 am   BACKBONE|DICT|INTERRES
   241  121  123 2    
   242  122  242 1    
   243  122  243 1    
   244  124  125 1    
   245  124  244 1    
   246  124  245 1    
   247  125  126 1    
   248  126  246 1    
   249  126  247 1    
@<TRIPOS>SUBSTRUCTURE
     1 UNK         1 GROUP             0       ****    0 ROOT    
