@<TRIPOS>MOLECULE
3R540
247   249    1
SMALL
USER_CHARGES


@<TRIPOS>ATOM
      1 CA         -2.3296  -11.6959  -46.7856 C.3       0 UNK        -0.1800 
      2 C          -0.9813  -11.8215  -47.4815 C.2       0 UNK         0.5000 
      3 O          -0.5061  -10.8542  -48.0777 O.2       0 UNK        -0.5000 
      4 N          -0.3723  -13.0113  -47.4147 N.am      1 UNK        -0.5000 
      5 CA          0.9507  -13.3176  -47.9715 C.3       1 UNK         0.1400 
      6 C6          1.2173  -14.8440  -48.0738 C.3       23 UNK        -0.0398 
      7 S7         -0.1473  -15.7731  -48.8612 S.3       23 UNK        -0.2404 
      8 C8          0.5302  -16.1074  -50.5194 C.3       23 UNK        -0.0205 
      9 C9          1.1721  -17.4859  -50.6409 C.ar      23 UNK        -0.0193 
     10 C10         0.7671  -18.3478  -51.6651 C.ar      23 UNK        -0.1150 
     11 C11         1.3763  -19.5946  -51.8312 C.ar      23 UNK        -0.0193 
     12 C12         2.3863  -19.9877  -50.9518 C.ar      23 UNK        -0.1150 
     13 C13         2.7830  -19.1519  -49.9059 C.ar      23 UNK        -0.0193 
     14 C14         2.1821  -17.8978  -49.7631 C.ar      23 UNK        -0.1150 
     15 C15         3.8673  -19.6048  -48.9389 C.3       23 UNK        -0.0205 
     16 S16         3.4201  -21.1386  -48.0615 S.3       23 UNK        -0.2404 
     17 C17         2.0729  -20.5697  -46.9722 C.3       23 UNK        -0.0398 
     18 CA          0.9463  -21.6221  -46.8166 C.3       11 UNK         0.1400 
     19 N           0.2663  -21.5052  -45.5224 N.am      11 UNK        -0.5000 
     20 C          -0.5870  -22.4116  -45.0238 C.2       10 UNK         0.5000 
     21 O          -0.8840  -23.4583  -45.5991 O.2       10 UNK        -0.5000 
     22 CA         -1.2531  -22.0772  -43.6755 C.3       10 UNK         0.1400 
     23 CB         -0.2880  -22.3298  -42.5082 C.3       10 UNK        -0.1800 
     24 N          -1.7502  -20.7023  -43.6170 N.am      10 UNK        -0.5000 
     25 C          -2.7136  -20.2139  -44.4114 C.2       9 UNK         0.5000 
     26 O          -3.3162  -20.8824  -45.2484 O.2       9 UNK        -0.5000 
     27 CA         -3.0181  -18.7123  -44.2939 C.3       9 UNK         0.1400 
     28 CB         -3.9753  -18.4306  -43.1263 C.3       9 UNK        -0.1800 
     29 N          -1.8035  -17.9151  -44.1415 N.am      9 UNK        -0.5000 
     30 C          -0.8419  -17.8089  -45.0691 C.2       8 UNK         0.5000 
     31 O          -0.8725  -18.3643  -46.1670 O.2       8 UNK        -0.5000 
     32 CA          0.3833  -16.9750  -44.6664 C.3       8 UNK         0.1400 
     33 CB          0.0251  -15.4790  -44.6802 C.3       8 UNK        -0.1800 
     34 N           0.8905  -17.3580  -43.3463 N.am      8 UNK        -0.5000 
     35 C           1.4005  -18.5660  -43.0529 C.2       7 UNK         0.5000 
     36 O           1.5462  -19.4588  -43.8854 O.2       7 UNK        -0.5000 
     37 CA          1.7694  -18.8561  -41.5835 C.3       7 UNK         0.1400 
     38 CB          3.2402  -18.5024  -41.3205 C.3       7 UNK        -0.1800 
     39 N           0.9316  -18.1494  -40.6171 N.am      7 UNK        -0.5000 
     40 C          -0.4019  -18.2450  -40.5202 C.2       6 UNK         0.5000 
     41 O          -1.0758  -19.0464  -41.1690 O.2       6 UNK        -0.5000 
     42 CA         -1.1026  -17.2277  -39.5920 C.3       6 UNK         0.1400 
     43 CB         -1.4519  -17.8831  -38.2479 C.3       6 UNK        -0.1800 
     44 N          -0.3326  -15.9976  -39.3426 N.am      6 UNK        -0.5000 
     45 C           0.1151  -15.1596  -40.2891 C.2       5 UNK         0.5000 
     46 O          -0.0804  -15.3382  -41.4936 O.2       5 UNK        -0.5000 
     47 CA          0.9712  -13.9687  -39.8310 C.3       5 UNK         0.1400 
     48 CB          2.2112  -14.4357  -39.0409 C.3       5 UNK        -0.1800 
     49 N           1.3952  -13.2334  -41.0186 N.am      5 UNK        -0.5000 
     50 C           1.8526  -11.9793  -41.0599 C.2       4 UNK         0.5000 
     51 O           1.9331  -11.2526  -40.0671 O.2       4 UNK        -0.5000 
     52 CA          2.2972  -11.4637  -42.4482 C.3       4 UNK         0.1400 
     53 CB          3.1333  -10.1700  -42.3655 C.3       4 UNK        -0.1800 
     54 N           3.0023  -12.4621  -43.2651 N.am      4 UNK        -0.5000 
     55 C           4.1098  -13.1517  -42.9362 C.2       3 UNK         0.5000 
     56 O           4.6514  -13.1055  -41.8313 O.2       3 UNK        -0.5000 
     57 CA          4.7438  -14.0279  -44.0391 C.3       3 UNK         0.1400 
     58 CB          4.2206  -15.4704  -43.9519 C.3       3 UNK        -0.1800 
     59 N           4.5162  -13.5146  -45.3920 N.am      3 UNK        -0.5000 
     60 C           4.9723  -12.3418  -45.8562 C.2       2 UNK         0.5000 
     61 O           5.7522  -11.6223  -45.2306 O.2       2 UNK        -0.5000 
     62 CA          4.4663  -11.8718  -47.2384 C.3       2 UNK         0.1400 
     63 CB          5.5863  -11.9909  -48.2844 C.3       2 UNK        -0.1800 
     64 N           3.2690  -12.5480  -47.7583 N.am      2 UNK        -0.5000 
     65 C           2.0716  -12.6284  -47.1596 C.2       1 UNK         0.5000 
     66 O           1.8555  -12.2325  -46.0099 O.2       1 UNK        -0.5000 
     67 C          -0.0513  -21.5979  -47.9956 C.2       11 UNK         0.5000 
     68 O           0.0593  -22.4229  -48.9036 O.2       11 UNK        -0.5000 
     69 N          -1.0461  -20.7005  -47.9264 N.am      12 UNK        -0.5000 
     70 CA         -2.1518  -20.6181  -48.8799 C.3       12 UNK         0.1400 
     71 CB         -2.9807  -19.3559  -48.5998 C.3       12 UNK        -0.1800 
     72 C          -3.0425  -21.8749  -48.8690 C.2       12 UNK         0.5000 
     73 O          -3.3902  -22.3717  -49.9378 O.2       12 UNK        -0.5000 
     74 N          -3.3740  -22.3828  -47.6727 N.am      13 UNK        -0.5000 
     75 CA         -4.1655  -23.5985  -47.4755 C.3       13 UNK         0.1400 
     76 CB         -4.5475  -23.7445  -45.9959 C.3       13 UNK        -0.1800 
     77 C          -3.4648  -24.8694  -47.9852 C.2       13 UNK         0.5000 
     78 O          -4.1181  -25.7171  -48.5948 O.2       13 UNK        -0.5000 
     79 N          -2.1482  -24.9706  -47.7577 N.am      14 UNK        -0.5000 
     80 CA         -1.3069  -26.0650  -48.2471 C.3       14 UNK         0.1400 
     81 CB          0.0987  -25.9352  -47.6416 C.3       14 UNK        -0.1800 
     82 C          -1.2305  -26.1256  -49.7850 C.2       14 UNK         0.5000 
     83 O          -1.1382  -27.2158  -50.3511 O.2       14 UNK        -0.5000 
     84 N          -1.3072  -24.9598  -50.4365 N.am      15 UNK        -0.5000 
     85 CA         -1.2762  -24.7835  -51.8852 C.3       15 UNK         0.1400 
     86 CB         -0.7336  -23.3819  -52.1809 C.3       15 UNK        -0.1800 
     87 C          -2.6469  -25.0418  -52.5456 C.2       15 UNK         0.5000 
     88 O          -3.1711  -24.1710  -53.2439 O.2       15 UNK        -0.5000 
     89 N          -3.1753  -26.2552  -52.3283 N.am      16 UNK        -0.5000 
     90 CA         -4.4187  -26.8034  -52.8828 C.3       16 UNK         0.1400 
     91 CB         -4.3120  -26.9539  -54.4159 C.3       16 UNK        -0.1800 
     92 C          -5.6801  -26.0343  -52.4364 C.2       16 UNK         0.5000 
     93 O          -6.5753  -25.7997  -53.2499 O.2       16 UNK        -0.5000 
     94 N          -5.7241  -25.6894  -51.1408 N.am      17 UNK        -0.5000 
     95 CA         -6.7246  -24.8763  -50.4422 C.3       17 UNK         0.1400 
     96 CB         -8.1672  -25.3623  -50.6916 C.3       17 UNK        -0.1800 
     97 C          -6.5758  -23.3754  -50.7431 C.2       17 UNK         0.5000 
     98 O          -6.1309  -22.9800  -51.8228 O.2       17 UNK        -0.5000 
     99 N          -7.0015  -22.5499  -49.7775 N.am      18 UNK        -0.5000 
    100 CA        -6.9051  -21.0872  -49.8234 C.3       18 UNK         0.1400 
    101 CB        -7.2192  -20.5220  -48.4303 C.3       18 UNK        -0.1800 
    102 C         -7.7871  -20.4299  -50.9065 C.2       18 UNK         0.5000 
    103 O         -7.5765  -19.2622  -51.2333 O.2       18 UNK        -0.5000 
    104 N         -8.7383  -21.1933  -51.4620 N.am      19 UNK        -0.5000 
    105 CA        -9.5174  -20.8310  -52.6445 C.3       19 UNK         0.1400 
    106 CB       -10.6942  -21.8089  -52.7843 C.3       19 UNK        -0.1800 
    107 C         -8.6720  -20.8149  -53.9353 C.2       19 UNK         0.5000 
    108 O         -8.9940  -20.0546  -54.8493 O.2       19 UNK        -0.5000 
    109 N         -7.6145  -21.6386  -53.9894 N.am      20 UNK        -0.5000 
    110 CA        -6.6450  -21.6682  -55.0813 C.3       20 UNK         0.1400 
    111 CB        -6.2052  -23.1156  -55.3548 C.3       20 UNK        -0.1800 
    112 C         -5.4418  -20.7821  -54.7320 C.2       20 UNK         0.5000 
    113 O         -5.1275  -19.8678  -55.4957 O.2       20 UNK        -0.5000 
    114 N         -4.8015  -21.0699  -53.5856 N.am      21 UNK        -0.5000 
    115 CA        -3.6571  -20.3623  -52.9952 C.3       21 UNK         0.1400 
    116 CB        -4.1423  -19.0824  -52.2867 C.3       21 UNK        -0.1800 
    117 C         -2.5147  -20.0815  -53.9958 C.2       21 UNK         0.5000 
    118 O         -2.0193  -18.9558  -54.0565 O.2       21 UNK        -0.5000 
    119 N         -2.1661  -21.1053  -54.7897 N.am      22 UNK        -0.5000 
    120 CA        -1.2315  -21.0787  -55.9345 C.3       22 UNK         0.1400 
    121 C         -1.5090  -20.0144  -57.0451 C.2       22 UNK         0.5000 
    122 N         -2.7021  -19.4379  -57.1347 N.am      22 UNK        -0.7600 
    123 O         -0.6485  -19.7395  -57.8775 O.2       22 UNK        -0.5000 
    124 C124        0.2723  -21.2302  -55.5458 C.3       23 UNK        -0.0398 
    125 S125        1.0328  -19.8642  -54.5967 S.3       23 UNK        -0.2404 
    126 C126        0.9052  -20.5481  -52.9153 C.3       23 UNK        -0.0205 
    127 H127       -3.1001  -11.4213  -47.5061 H         1 UNK         0.0600 
    128 H128       -2.2850  -10.9216  -46.0197 H         1 UNK         0.0600 
    129 H129       -2.6279  -12.6295  -46.3077 H         1 UNK         0.0600 
    130 H130       -0.8206  -13.7670  -46.9199 H         1 UNK         0.3000 
    131 H131        0.9792  -12.9067  -48.9831 H         1 UNK         0.0600 
    132 H132        1.3927  -15.2789  -47.0909 H         1 UNK         0.0800 
    133 H133        2.1374  -15.0198  -48.6320 H         1 UNK         0.0800 
    134 H134       -0.2906  -16.0138  -51.2322 H         1 UNK         0.0800 
    135 H135        1.2553  -15.3422  -50.7986 H         1 UNK         0.0800 
    136 H136       -0.0192  -18.0497  -52.3451 H         1 UNK         0.1150 
    137 H137        2.8502  -20.9580  -51.0617 H         1 UNK         0.1150 
    138 H138        2.5001  -17.2471  -48.9632 H         1 UNK         0.1150 
    139 H139        4.7871  -19.7763  -49.4997 H         1 UNK         0.0800 
    140 H140        4.0934  -18.8271  -48.2077 H         1 UNK         0.0800 
    141 H141        1.6760  -19.6075  -47.3014 H         1 UNK         0.0800 
    142 H142        2.5451  -20.3816  -46.0089 H         1 UNK         0.0800 
    143 H143        1.4106  -22.6110  -46.8166 H         1 UNK         0.0600 
    144 H144        0.4884  -20.6822  -44.9697 H         1 UNK         0.3000 
    145 H145       -2.1104  -22.7424  -43.5539 H         1 UNK         0.0600 
    146 H146       -0.7583  -22.1074  -41.5500 H         1 UNK         0.0600 
    147 H147        0.0259  -23.3740  -42.4836 H         1 UNK         0.0600 
    148 H148        0.6117  -21.7211  -42.5900 H         1 UNK         0.0600 
    149 H149       -1.3371  -20.0888  -42.9225 H         1 UNK         0.3000 
    150 H150       -3.5086  -18.3991  -45.2179 H         1 UNK         0.0600 
    151 H151       -4.9049  -18.9890  -43.2437 H         1 UNK         0.0600 
    152 H152       -4.2360  -17.3734  -43.0762 H         1 UNK         0.0600 
    153 H153       -3.5423  -18.7154  -42.1672 H         1 UNK         0.0600 
    154 H154       -1.6654  -17.4618  -43.2501 H         1 UNK         0.3000 
    155 H155        1.1707  -17.1534  -45.4017 H         1 UNK         0.0600 
    156 H156       -0.7330  -15.2343  -43.9372 H         1 UNK         0.0600 
    157 H157       -0.3916  -15.1920  -45.6439 H         1 UNK         0.0600 
    158 H158        0.8951  -14.8504  -44.4933 H         1 UNK         0.0600 
    159 H159        0.7364  -16.6900  -42.5971 H         1 UNK         0.3000 
    160 H160        1.6391  -19.9261  -41.4143 H         1 UNK         0.0600 
    161 H161        3.4152  -17.4293  -41.4008 H         1 UNK         0.0600 
    162 H162        3.8977  -18.9988  -42.0358 H         1 UNK         0.0600 
    163 H163        3.5489  -18.8182  -40.3239 H         1 UNK         0.0600 
    164 H164        1.3947  -17.4674  -40.0361 H         1 UNK         0.3000 
    165 H165       -2.0334  -16.9372  -40.0834 H         1 UNK         0.0600 
    166 H166       -2.0368  -17.2104  -37.6203 H         1 UNK         0.0600 
    167 H167       -2.0468  -18.7857  -38.3956 H         1 UNK         0.0600 
    168 H168       -0.5560  -18.1671  -37.6944 H         1 UNK         0.0600 
    169 H169       -0.1285  -15.7912  -38.3753 H         1 UNK         0.3000 
    170 H170        0.3503  -13.3236  -39.2065 H         1 UNK         0.0600 
    171 H171        1.9317  -14.9658  -38.1302 H         1 UNK         0.0600 
    172 H172        2.8360  -15.1034  -39.6358 H         1 UNK         0.0600 
    173 H173        2.8293  -13.5907  -38.7371 H         1 UNK         0.0600 
    174 H174        1.2875  -13.7527  -41.8808 H         1 UNK         0.3000 
    175 H175        1.3796  -11.2264  -42.9884 H         1 UNK         0.0600 
    176 H176        4.0552  -10.3218  -41.8031 H         1 UNK         0.0600 
    177 H177        3.4032   -9.8128  -43.3595 H         1 UNK         0.0600 
    178 H178        2.5759   -9.3712  -41.8751 H         1 UNK         0.0600 
    179 H179        2.6497  -12.5565  -44.2135 H         1 UNK         0.3000 
    180 H180        5.8219  -14.0450  -43.8661 H         1 UNK         0.0600 
    181 H181        3.1460  -15.5228  -44.1228 H         1 UNK         0.0600 
    182 H182        4.4173  -15.8938  -42.9667 H         1 UNK         0.0600 
    183 H183        4.7091  -16.1144  -44.6833 H         1 UNK         0.0600 
    184 H184        3.8893  -14.0425  -45.9787 H         1 UNK         0.3000 
    185 H185        4.2134  -10.8150  -47.1323 H         1 UNK         0.0600 
    186 H186        6.4870  -11.4687  -47.9583 H         1 UNK         0.0600 
    187 H187        5.8578  -13.0320  -48.4639 H         1 UNK         0.0600 
    188 H188        5.2877  -11.5513  -49.2363 H         1 UNK         0.0600 
    189 H189        3.3607  -12.9143  -48.6949 H         1 UNK         0.3000 
    190 H190       -1.0496  -20.0240  -47.1677 H         1 UNK         0.3000 
    191 H191       -1.7218  -20.5250  -49.8797 H         1 UNK         0.0600 
    192 H192       -2.3753  -18.4559  -48.7132 H         1 UNK         0.0600 
    193 H193       -3.8201  -19.2747  -49.2904 H         1 UNK         0.0600 
    194 H194       -3.3888  -19.3584  -47.5890 H         1 UNK         0.0600 
    195 H195       -3.1005  -21.8827  -46.8304 H         1 UNK         0.3000 
    196 H196       -5.0875  -23.4834  -48.0438 H         1 UNK         0.0600 
    197 H197       -5.1372  -24.6470  -45.8304 H         1 UNK         0.0600 
    198 H198       -5.1480  -22.8992  -45.6597 H         1 UNK         0.0600 
    199 H199       -3.6662  -23.8052  -45.3569 H         1 UNK         0.0600 
    200 H200       -1.6910  -24.2599  -47.1930 H         1 UNK         0.3000 
    201 H201       -1.7433  -27.0041  -47.9009 H         1 UNK         0.0600 
    202 H202        0.0640  -25.9763  -46.5528 H         1 UNK         0.0600 
    203 H203        0.5731  -24.9951  -47.9255 H         1 UNK         0.0600 
    204 H204        0.7465  -26.7459  -47.9773 H         1 UNK         0.0600 
    205 H205       -1.4038  -24.1138  -49.8895 H         1 UNK         0.3000 
    206 H206       -0.5746  -25.5026  -52.3131 H         1 UNK         0.0600 
    207 H207        0.2579  -23.2492  -51.7480 H         1 UNK         0.0600 
    208 H208       -0.6513  -23.2180  -53.2541 H         1 UNK         0.0600 
    209 H209       -1.3836  -22.6082  -51.7722 H         1 UNK         0.0600 
    210 H210       -2.6509  -26.8762  -51.7209 H         1 UNK         0.3000 
    211 H211       -4.5175  -27.8064  -52.4655 H         1 UNK         0.0600 
    212 H212       -4.2729  -25.9859  -54.9166 H         1 UNK         0.0600 
    213 H213       -5.1718  -27.4923  -54.8161 H         1 UNK         0.0600 
    214 H214       -3.4204  -27.5142  -54.6970 H         1 UNK         0.0600 
    215 H215       -4.9169  -25.9137  -50.5699 H         1 UNK         0.3000 
    216 H216       -6.5199  -25.0174  -49.3810 H         1 UNK         0.0600 
    217 H217       -8.8615  -24.8880  -49.9973 H         1 UNK         0.0600 
    218 H218       -8.2527  -26.4395  -50.5484 H         1 UNK         0.0600 
    219 H219       -8.5132  -25.1268  -51.6984 H         1 UNK         0.0600 
    220 H220       -7.3976  -22.9412  -48.9352 H         1 UNK         0.3000 
    221 H221       -5.8695  -20.8374  -50.0600 H         1 UNK         0.0600 
    222 H222       -8.2348  -20.7659  -48.1168 H         1 UNK         0.0600 
    223 H223       -6.5299  -20.9143  -47.6818 H         1 UNK         0.0600 
    224 H224       -7.1229  -19.4355  -48.4182 H         1 UNK         0.0600 
    225 H225       -8.8526  -22.1335  -51.1148 H         1 UNK         0.3000 
    226 H226       -9.9204  -19.8269  -52.4966 H         1 UNK         0.0600 
    227 H227      -11.3368  -21.7819  -51.9040 H         1 UNK         0.0600 
    228 H228      -11.3133  -21.5537  -53.6453 H         1 UNK         0.0600 
    229 H229      -10.3509  -22.8355  -52.9194 H         1 UNK         0.0600 
    230 H230       -7.3751  -22.1927  -53.1739 H         1 UNK         0.3000 
    231 H231       -7.0979  -21.2828  -55.9973 H         1 UNK         0.0600 
    232 H232       -7.0579  -23.7463  -55.6063 H         1 UNK         0.0600 
    233 H233       -5.7067  -23.5611  -54.4936 H         1 UNK         0.0600 
    234 H234       -5.5078  -23.1590  -56.1921 H         1 UNK         0.0600 
    235 H235       -5.1400  -21.8611  -53.0416 H         1 UNK         0.3000 
    236 H236       -3.2429  -21.0269  -52.2371 H         1 UNK         0.0600 
    237 H237       -3.3216  -18.5813  -51.7718 H         1 UNK         0.0600 
    238 H238       -4.5736  -18.3718  -52.9927 H         1 UNK         0.0600 
    239 H239       -4.8989  -19.3080  -51.5389 H         1 UNK         0.0600 
    240 H240       -2.6551  -21.9801  -54.6519 H         1 UNK         0.3000 
    241 H241       -1.4714  -22.0064  -56.4551 H         1 UNK         0.0600 
    242 H242       -2.8685  -18.7657  -57.8662 H         1 UNK         0.3800 
    243 H243       -3.4386  -19.6357  -56.4639 H         1 UNK         0.3800 
    244 H244        0.4088  -22.1596  -54.9945 H         1 UNK         0.0800 
    245 H245        0.8711  -21.3647  -56.4479 H         1 UNK         0.0800 
    246 H246       -0.1326  -20.7938  -52.7058 H         1 UNK         0.0800 
    247 H247        1.4677  -21.4818  -52.8757 H         1 UNK         0.0800 
@<TRIPOS>BOND
     1    1    2 1    
     2    1  127 1    
     3    1  128 1    
     4    1  129 1    
     5    2    3 2    
     6    2    4 am   BACKBONE|DICT|INTERRES
     7    4    5 1    
     8    4  130 1    
     9    5    6 1    
    10    5   65 1    
    11    5  131 1    
    12    6    7 1    
    13    6  132 1    
    14    6  133 1    
    15    7    8 1    
    16    8    9 1    
    17    8  134 1    
    18    8  135 1    
    19    9   10 ar   
    20    9   14 ar   
    21   10   11 ar   
    22   10  136 1    
    23   11   12 ar   
    24   11  126 1    
    25   12   13 ar   
    26   12  137 1    
    27   13   14 ar   
    28   13   15 1    
    29   14  138 1    
    30   15   16 1    
    31   15  139 1    
    32   15  140 1    
    33   16   17 1    
    34   17   18 1    
    35   17  141 1    
    36   17  142 1    
    37   18   19 1    
    38   18   67 1    
    39   18  143 1    
    40   19   20 am   BACKBONE|DICT|INTERRES
    41   19  144 1    
    42   20   21 2    
    43   20   22 1    
    44   22   23 1    
    45   22   24 1    
    46   22  145 1    
    47   23  146 1    
    48   23  147 1    
    49   23  148 1    
    50   24   25 am   BACKBONE|DICT|INTERRES
    51   24  149 1    
    52   25   26 2    
    53   25   27 1    
    54   27   28 1    
    55   27   29 1    
    56   27  150 1    
    57   28  151 1    
    58   28  152 1    
    59   28  153 1    
    60   29   30 am   BACKBONE|DICT|INTERRES
    61   29  154 1    
    62   30   31 2    
    63   30   32 1    
    64   32   33 1    
    65   32   34 1    
    66   32  155 1    
    67   33  156 1    
    68   33  157 1    
    69   33  158 1    
    70   34   35 am   BACKBONE|DICT|INTERRES
    71   34  159 1    
    72   35   36 2    
    73   35   37 1    
    74   37   38 1    
    75   37   39 1    
    76   37  160 1    
    77   38  161 1    
    78   38  162 1    
    79   38  163 1    
    80   39   40 am   BACKBONE|DICT|INTERRES
    81   39  164 1    
    82   40   41 2    
    83   40   42 1    
    84   42   43 1    
    85   42   44 1    
    86   42  165 1    
    87   43  166 1    
    88   43  167 1    
    89   43  168 1    
    90   44   45 am   BACKBONE|DICT|INTERRES
    91   44  169 1    
    92   45   46 2    
    93   45   47 1    
    94   47   48 1    
    95   47   49 1    
    96   47  170 1    
    97   48  171 1    
    98   48  172 1    
    99   48  173 1    
   100   49   50 am   BACKBONE|DICT|INTERRES
   101   49  174 1    
   102   50   51 2    
   103   50   52 1    
   104   52   53 1    
   105   52   54 1    
   106   52  175 1    
   107   53  176 1    
   108   53  177 1    
   109   53  178 1    
   110   54   55 am   BACKBONE|DICT|INTERRES
   111   54  179 1    
   112   55   56 2    
   113   55   57 1    
   114   57   58 1    
   115   57   59 1    
   116   57  180 1    
   117   58  181 1    
   118   58  182 1    
   119   58  183 1    
   120   59   60 am   BACKBONE|DICT|INTERRES
   121   59  184 1    
   122   60   61 2    
   123   60   62 1    
   124   62   63 1    
   125   62   64 1    
   126   62  185 1    
   127   63  186 1    
   128   63  187 1    
   129   63  188 1    
   130   64   65 am   BACKBONE|DICT|INTERRES
   131   64  189 1    
   132   65   66 2    
   133   67   68 2    
   134   67   69 am   BACKBONE|DICT|INTERRES
   135   69   70 1    
   136   69  190 1    
   137   70   71 1    
   138   70   72 1    
   139   70  191 1    
   140   71  192 1    
   141   71  193 1    
   142   71  194 1    
   143   72   73 2    
   144   72   74 am   BACKBONE|DICT|INTERRES
   145   74   75 1    
   146   74  195 1    
   147   75   76 1    
   148   75   77 1    
   149   75  196 1    
   150   76  197 1    
   151   76  198 1    
   152   76  199 1    
   153   77   78 2    
   154   77   79 am   BACKBONE|DICT|INTERRES
   155   79   80 1    
   156   79  200 1    
   157   80   81 1    
   158   80   82 1    
   159   80  201 1    
   160   81  202 1    
   161   81  203 1    
   162   81  204 1    
   163   82   83 2    
   164   82   84 am   BACKBONE|DICT|INTERRES
   165   84   85 1    
   166   84  205 1    
   167   85   86 1    
   168   85   87 1    
   169   85  206 1    
   170   86  207 1    
   171   86  208 1    
   172   86  209 1    
   173   87   88 2    
   174   87   89 am   BACKBONE|DICT|INTERRES
   175   89   90 1    
   176   89  210 1    
   177   90   91 1    
   178   90   92 1    
   179   90  211 1    
   180   91  212 1    
   181   91  213 1    
   182   91  214 1    
   183   92   93 2    
   184   92   94 am   BACKBONE|DICT|INTERRES
   185   94   95 1    
   186   94  215 1    
   187   95   96 1    
   188   95   97 1    
   189   95  216 1    
   190   96  217 1    
   191   96  218 1    
   192   96  219 1    
   193   97   98 2    
   194   97   99 am   BACKBONE|DICT|INTERRES
   195   99  100 1    
   196   99  220 1    
   197  100  101 1    
   198  100  102 1    
   199  100  221 1    
   200  101  222 1    
   201  101  223 1    
   202  101  224 1    
   203  102  103 2    
   204  102  104 am   BACKBONE|DICT|INTERRES
   205  104  105 1    
   206  104  225 1    
   207  105  106 1    
   208  105  107 1    
   209  105  226 1    
   210  106  227 1    
   211  106  228 1    
   212  106  229 1    
   213  107  108 2    
   214  107  109 am   BACKBONE|DICT|INTERRES
   215  109  110 1    
   216  109  230 1    
   217  110  111 1    
   218  110  112 1    
   219  110  231 1    
   220  111  232 1    
   221  111  233 1    
   222  111  234 1    
   223  112  113 2    
   224  112  114 am   BACKBONE|DICT|INTERRES
   225  114  115 1    
   226  114  235 1    
   227  115  116 1    
   228  115  117 1    
   229  115  236 1    
   230  116  237 1    
   231  116  238 1    
   232  116  239 1    
   233  117  118 2    
   234  117  119 am   BACKBONE|DICT|INTERRES
   235  119  120 1    
   236  119  240 1    
   237  120  121 1    
   238  120  124 1    
   239  120  241 1    
   240  121  122 am   BACKBONE|DICT|INTERRES
   241  121  123 2    
   242  122  242 1    
   243  122  243 1    
   244  124  125 1    
   245  124  244 1    
   246  124  245 1    
   247  125  126 1    
   248  126  246 1    
   249  126  247 1    
@<TRIPOS>SUBSTRUCTURE
     1 UNK         1 GROUP             0       ****    0 ROOT    
