@<TRIPOS>MOLECULE
3R540
247   249    1
SMALL
USER_CHARGES


@<TRIPOS>ATOM
      1 CA         -4.8572  -12.8685  -47.3440 C.3       0 UNK        -0.1800 
      2 C          -3.7031  -13.8396  -47.1485 C.2       0 UNK         0.5000 
      3 O          -2.7046  -13.4831  -46.5245 O.2       0 UNK        -0.5000 
      4 N          -3.8435  -15.0705  -47.6583 N.am      1 UNK        -0.5000 
      5 CA         -2.8350  -16.1446  -47.6595 C.3       1 UNK         0.1400 
      6 C6         -3.3471  -17.3946  -48.4128 C.3       23 UNK        -0.0398 
      7 S7         -3.7328  -17.0191  -50.1577 S.3       23 UNK        -0.2404 
      8 C8         -2.6132  -18.1424  -51.0531 C.3       23 UNK        -0.0205 
      9 C9         -1.1503  -17.9574  -50.6779 C.ar      23 UNK        -0.0193 
     10 C10        -0.5180  -16.7280  -50.8707 C.ar      23 UNK        -0.1150 
     11 C11         0.8203  -16.5557  -50.5093 C.ar      23 UNK        -0.0193 
     12 C12         1.5175  -17.6167  -49.9259 C.ar      23 UNK        -0.1150 
     13 C13         0.9034  -18.8580  -49.7342 C.ar      23 UNK        -0.0193 
     14 C14        -0.4277  -19.0241  -50.1378 C.ar      23 UNK        -0.1150 
     15 C15         1.7187  -19.9908  -49.1084 C.3       23 UNK        -0.0205 
     16 S16         0.7542  -21.2944  -48.2676 S.3       23 UNK        -0.2404 
     17 C17        -0.1546  -20.3461  -47.0025 C.3       23 UNK        -0.0398 
     18 CA         -1.1629  -21.2459  -46.2435 C.3       11 UNK         0.1400 
     19 N          -0.6527  -21.6598  -44.9305 N.am      11 UNK        -0.5000 
     20 C          -1.2132  -22.5776  -44.1262 C.2       10 UNK         0.5000 
     21 O          -2.1916  -23.2511  -44.4518 O.2       10 UNK        -0.5000 
     22 CA         -0.6471  -22.7141  -42.6957 C.3       10 UNK         0.1400 
     23 CB          0.2735  -23.9394  -42.6009 C.3       10 UNK        -0.1800 
     24 N           0.0848  -21.5339  -42.2250 N.am      10 UNK        -0.5000 
     25 C          -0.3897  -20.2807  -42.1554 C.2       9 UNK         0.5000 
     26 O          -1.5640  -19.9883  -42.3812 O.2       9 UNK        -0.5000 
     27 CA          0.6246  -19.1579  -41.8517 C.3       9 UNK         0.1400 
     28 CB          0.4529  -18.6495  -40.4132 C.3       9 UNK        -0.1800 
     29 N           2.0343  -19.5116  -42.0644 N.am      9 UNK        -0.5000 
     30 C           2.5875  -19.9324  -43.2110 C.2       8 UNK         0.5000 
     31 O           1.9315  -20.1789  -44.2229 O.2       8 UNK        -0.5000 
     32 CA          4.1189  -20.1193  -43.2118 C.3       8 UNK         0.1400 
     33 CB          4.6895  -20.4000  -44.6136 C.3       8 UNK        -0.1800 
     34 N           4.8011  -18.9554  -42.6427 N.am      8 UNK        -0.5000 
     35 C           5.0399  -18.7674  -41.3372 C.2       7 UNK         0.5000 
     36 O           4.7029  -19.5717  -40.4677 O.2       7 UNK        -0.5000 
     37 CA          5.7368  -17.4576  -40.9207 C.3       7 UNK         0.1400 
     38 CB          7.2508  -17.6766  -40.7801 C.3       7 UNK        -0.1800 
     39 N           5.5002  -16.3482  -41.8448 N.am      7 UNK        -0.5000 
     40 C           4.3175  -15.7512  -42.0439 C.2       6 UNK         0.5000 
     41 O           3.2866  -16.0628  -41.4463 O.2       6 UNK        -0.5000 
     42 CA          4.2667  -14.6209  -43.0914 C.3       6 UNK         0.1400 
     43 CB          5.6516  -14.0717  -43.5028 C.3       6 UNK        -0.1800 
     44 N           3.5025  -15.0150  -44.2760 N.am      6 UNK        -0.5000 
     45 C           3.7365  -16.0565  -45.0910 C.2       5 UNK         0.5000 
     46 O           4.6610  -16.8545  -44.9253 O.2       5 UNK        -0.5000 
     47 CA          2.7844  -16.2553  -46.2908 C.3       5 UNK         0.1400 
     48 CB          2.0194  -17.5746  -46.1627 C.3       5 UNK        -0.1800 
     49 N           1.8047  -15.1820  -46.4462 N.am      5 UNK        -0.5000 
     50 C           2.0532  -13.9872  -46.9960 C.2       4 UNK         0.5000 
     51 O           3.1326  -13.6749  -47.4984 O.2       4 UNK        -0.5000 
     52 CA          0.9092  -12.9572  -46.9487 C.3       4 UNK         0.1400 
     53 CB          0.1086  -12.9810  -48.2593 C.3       4 UNK        -0.1800 
     54 N          -0.0100  -13.1470  -45.8222 N.am      4 UNK        -0.5000 
     55 C           0.3208  -13.0389  -44.5270 C.2       3 UNK         0.5000 
     56 O           1.4675  -12.8265  -44.1330 O.2       3 UNK        -0.5000 
     57 CA         -0.8062  -13.2181  -43.5004 C.3       3 UNK         0.1400 
     58 CB         -1.6150  -11.9188  -43.3630 C.3       3 UNK        -0.1800 
     59 N          -1.7087  -14.3022  -43.8827 N.am      3 UNK        -0.5000 
     60 C          -1.7321  -15.5163  -43.3164 C.2       2 UNK         0.5000 
     61 O          -0.9654  -15.8727  -42.4222 O.2       2 UNK        -0.5000 
     62 CA         -2.8142  -16.4947  -43.8153 C.3       2 UNK         0.1400 
     63 CB         -4.0912  -16.3190  -42.9776 C.3       2 UNK        -0.1800 
     64 N          -3.1577  -16.3103  -45.2248 N.am      2 UNK        -0.5000 
     65 C          -2.3306  -16.5385  -46.2539 C.2       1 UNK         0.5000 
     66 O          -1.2013  -17.0087  -46.1271 O.2       1 UNK        -0.5000 
     67 C          -2.5810  -20.6241  -46.2072 C.2       11 UNK         0.5000 
     68 O          -3.2073  -20.5130  -47.2629 O.2       11 UNK        -0.5000 
     69 N          -3.1124  -20.3230  -45.0117 N.am      12 UNK        -0.5000 
     70 CA         -4.5328  -20.0620  -44.7619 C.3       12 UNK         0.1400 
     71 CB         -4.7429  -19.8666  -43.2526 C.3       12 UNK        -0.1800 
     72 C          -5.4604  -21.1937  -45.2564 C.2       12 UNK         0.5000 
     73 O          -6.5741  -20.9112  -45.6967 O.2       12 UNK        -0.5000 
     74 N          -4.9811  -22.4453  -45.1863 N.am      13 UNK        -0.5000 
     75 CA         -5.6830  -23.6300  -45.6796 C.3       13 UNK         0.1400 
     76 CB         -5.2444  -24.8478  -44.8515 C.3       13 UNK        -0.1800 
     77 C          -5.4402  -23.8868  -47.1796 C.2       13 UNK         0.5000 
     78 O          -6.2302  -24.6024  -47.7945 O.2       13 UNK        -0.5000 
     79 N          -4.3609  -23.3215  -47.7416 N.am      14 UNK        -0.5000 
     80 CA         -4.0191  -23.4202  -49.1612 C.3       14 UNK         0.1400 
     81 CB         -2.5317  -23.0949  -49.3700 C.3       14 UNK        -0.1800 
     82 C          -4.9078  -22.4961  -50.0045 C.2       14 UNK         0.5000 
     83 O          -5.5262  -22.9567  -50.9657 O.2       14 UNK        -0.5000 
     84 N          -4.9681  -21.2181  -49.5978 N.am      15 UNK        -0.5000 
     85 CA         -5.9150  -20.1837  -50.0334 C.3       15 UNK         0.1400 
     86 CB         -7.2946  -20.4769  -49.4093 C.3       15 UNK        -0.1800 
     87 C          -6.0207  -19.9552  -51.5603 C.2       15 UNK         0.5000 
     88 O          -7.0547  -19.4711  -52.0220 O.2       15 UNK        -0.5000 
     89 N          -4.9936  -20.3525  -52.3276 N.am      16 UNK        -0.5000 
     90 CA         -4.9015  -20.3971  -53.7951 C.3       16 UNK         0.1400 
     91 CB         -5.0464  -18.9915  -54.4104 C.3       16 UNK        -0.1800 
     92 C          -5.8445  -21.4072  -54.4854 C.2       16 UNK         0.5000 
     93 O          -5.5085  -21.9015  -55.5617 O.2       16 UNK        -0.5000 
     94 N          -7.0025  -21.6912  -53.8807 N.am      17 UNK        -0.5000 
     95 CA         -8.0262  -22.5914  -54.3995 C.3       17 UNK         0.1400 
     96 CB         -9.3798  -22.2109  -53.7796 C.3       17 UNK        -0.1800 
     97 C          -7.7164  -24.0746  -54.1363 C.2       17 UNK         0.5000 
     98 O          -8.0194  -24.9066  -54.9931 O.2       17 UNK        -0.5000 
     99 N          -7.1537  -24.3895  -52.9609 N.am      18 UNK        -0.5000 
    100 CA        -6.9212  -25.7656  -52.5169 C.3       18 UNK         0.1400 
    101 CB        -7.2656  -25.8859  -51.0244 C.3       18 UNK        -0.1800 
    102 C         -5.4806  -26.2321  -52.7761 C.2       18 UNK         0.5000 
    103 O         -5.2762  -27.4180  -53.0412 O.2       18 UNK        -0.5000 
    104 N         -4.5112  -25.3125  -52.6989 N.am      19 UNK        -0.5000 
    105 CA        -3.0919  -25.5886  -52.9084 C.3       19 UNK         0.1400 
    106 CB        -2.4754  -26.2456  -51.6515 C.3       19 UNK        -0.1800 
    107 C         -2.3771  -24.3144  -53.3919 C.2       19 UNK         0.5000 
    108 O         -2.8356  -23.7062  -54.3594 O.2       19 UNK        -0.5000 
    109 N         -1.2589  -23.9605  -52.7418 N.am      20 UNK        -0.5000 
    110 CA        -0.3629  -22.8464  -53.0610 C.3       20 UNK         0.1400 
    111 CB         0.7137  -22.7507  -51.9691 C.3       20 UNK        -0.1800 
    112 C         -1.0674  -21.4860  -53.2190 C.2       20 UNK         0.5000 
    113 O         -1.9318  -21.1420  -52.4097 O.2       20 UNK        -0.5000 
    114 N         -0.6456  -20.7429  -54.2487 N.am      21 UNK        -0.5000 
    115 CA        -1.1677  -19.4348  -54.6452 C.3       21 UNK         0.1400 
    116 CB        -1.8740  -19.5772  -56.0070 C.3       21 UNK        -0.1800 
    117 C         -0.0369  -18.3868  -54.6819 C.2       21 UNK         0.5000 
    118 O         -0.0133  -17.5336  -55.5699 O.2       21 UNK        -0.5000 
    119 N          0.8983  -18.4871  -53.7284 N.am      22 UNK        -0.5000 
    120 CA         2.1076  -17.6517  -53.5987 C.3       22 UNK         0.1400 
    121 C          3.2307  -17.9479  -54.6416 C.2       22 UNK         0.5000 
    122 N          3.1631  -19.0363  -55.3986 N.am      22 UNK        -0.7600 
    123 O          4.1978  -17.1995  -54.7525 O.2       22 UNK        -0.5000 
    124 C124        1.7933  -16.1286  -53.4573 C.3       23 UNK        -0.0398 
    125 S125        2.7536  -15.3503  -52.1109 S.3       23 UNK        -0.2404 
    126 C126        1.5182  -15.2301  -50.7749 C.3       23 UNK        -0.0205 
    127 H127       -5.2390  -12.5416  -46.3769 H         1 UNK         0.0600 
    128 H128       -5.6783  -13.3206  -47.9007 H         1 UNK         0.0600 
    129 H129       -4.5165  -11.9901  -47.8919 H         1 UNK         0.0600 
    130 H130       -4.6887  -15.2872  -48.1675 H         1 UNK         0.3000 
    131 H131       -1.9655  -15.7623  -48.1979 H         1 UNK         0.0600 
    132 H132       -4.2435  -17.7939  -47.9352 H         1 UNK         0.0800 
    133 H133       -2.6067  -18.1940  -48.3744 H         1 UNK         0.0800 
    134 H134       -2.9274  -19.1687  -50.8634 H         1 UNK         0.0800 
    135 H135       -2.7338  -17.9699  -52.1212 H         1 UNK         0.0800 
    136 H136       -1.0701  -15.9087  -51.3092 H         1 UNK         0.1150 
    137 H137        2.5508  -17.4777  -49.6402 H         1 UNK         0.1150 
    138 H138       -0.9165  -19.9802  -50.0167 H         1 UNK         0.1150 
    139 H139        2.3109  -20.4589  -49.8954 H         1 UNK         0.0800 
    140 H140        2.4310  -19.5823  -48.3905 H         1 UNK         0.0800 
    141 H141       -0.6450  -19.5023  -47.4885 H         1 UNK         0.0800 
    142 H142        0.5623  -19.8972  -46.3197 H         1 UNK         0.0800 
    143 H143       -1.2981  -22.1719  -46.8052 H         1 UNK         0.0600 
    144 H144        0.1658  -21.1607  -44.5953 H         1 UNK         0.3000 
    145 H145       -1.4951  -22.8646  -42.0249 H         1 UNK         0.0600 
    146 H146        0.6106  -24.1026  -41.5771 H         1 UNK         0.0600 
    147 H147       -0.2462  -24.8446  -42.9182 H         1 UNK         0.0600 
    148 H148        1.1557  -23.8284  -43.2328 H         1 UNK         0.0600 
    149 H149        1.0660  -21.6669  -42.0312 H         1 UNK         0.3000 
    150 H150        0.3959  -18.3354  -42.5325 H         1 UNK         0.0600 
    151 H151       -0.5765  -18.3385  -40.2288 H         1 UNK         0.0600 
    152 H152        1.0887  -17.7839  -40.2246 H         1 UNK         0.0600 
    153 H153        0.7028  -19.4190  -39.6818 H         1 UNK         0.0600 
    154 H154        2.6561  -19.3601  -41.2802 H         1 UNK         0.3000 
    155 H155        4.3279  -20.9975  -42.5976 H         1 UNK         0.0600 
    156 H156        4.5357  -19.5596  -45.2894 H         1 UNK         0.0600 
    157 H157        4.2194  -21.2754  -45.0634 H         1 UNK         0.0600 
    158 H158        5.7606  -20.5968  -44.5679 H         1 UNK         0.0600 
    159 H159        5.0305  -18.2120  -43.2937 H         1 UNK         0.3000 
    160 H160        5.3409  -17.1723  -39.9438 H         1 UNK         0.0600 
    161 H161        7.7088  -17.9444  -41.7332 H         1 UNK         0.0600 
    162 H162        7.4655  -18.4809  -40.0752 H         1 UNK         0.0600 
    163 H163        7.7468  -16.7798  -40.4082 H         1 UNK         0.0600 
    164 H164        6.2883  -16.0437  -42.3976 H         1 UNK         0.3000 
    165 H165        3.7149  -13.8021  -42.6276 H         1 UNK         0.0600 
    166 H166        5.5437  -13.2141  -44.1670 H         1 UNK         0.0600 
    167 H167        6.2147  -13.7320  -42.6325 H         1 UNK         0.0600 
    168 H168        6.2569  -14.8137  -44.0245 H         1 UNK         0.0600 
    169 H169        2.7054  -14.4213  -44.4759 H         1 UNK         0.3000 
    170 H170        3.3977  -16.3044  -47.1928 H         1 UNK         0.0600 
    171 H171        2.6996  -18.4250  -46.1699 H         1 UNK         0.0600 
    172 H172        1.4409  -17.6172  -45.2389 H         1 UNK         0.0600 
    173 H173        1.3283  -17.7059  -46.9944 H         1 UNK         0.0600 
    174 H174        0.8818  -15.3592  -46.0738 H         1 UNK         0.3000 
    175 H175        1.3613  -11.9691  -46.8420 H         1 UNK         0.0600 
    176 H176       -0.3464  -13.9563  -48.4352 H         1 UNK         0.0600 
    177 H177       -0.6879  -12.2368  -48.2500 H         1 UNK         0.0600 
    178 H178        0.7506  -12.7560  -49.1115 H         1 UNK         0.0600 
    179 H179       -0.9870  -13.3004  -46.0654 H         1 UNK         0.3000 
    180 H180       -0.3448  -13.4293  -42.5333 H         1 UNK         0.0600 
    181 H181       -2.3816  -12.0138  -42.5939 H         1 UNK         0.0600 
    182 H182       -2.1103  -11.6494  -44.2969 H         1 UNK         0.0600 
    183 H183       -0.9710  -11.0854  -43.0791 H         1 UNK         0.0600 
    184 H184       -2.3339  -14.1114  -44.6580 H         1 UNK         0.3000 
    185 H185       -2.4388  -17.5120  -43.6860 H         1 UNK         0.0600 
    186 H186       -4.8992  -16.9556  -43.3366 H         1 UNK         0.0600 
    187 H187       -3.9089  -16.5772  -41.9336 H         1 UNK         0.0600 
    188 H188       -4.4502  -15.2891  -43.0028 H         1 UNK         0.0600 
    189 H189       -4.0626  -15.9090  -45.4222 H         1 UNK         0.3000 
    190 H190       -2.5260  -20.3987  -44.1874 H         1 UNK         0.3000 
    191 H191       -4.8009  -19.1409  -45.2830 H         1 UNK         0.0600 
    192 H192       -5.7658  -19.5558  -43.0367 H         1 UNK         0.0600 
    193 H193       -4.0773  -19.1076  -42.8473 H         1 UNK         0.0600 
    194 H194       -4.5546  -20.7878  -42.6992 H         1 UNK         0.0600 
    195 H195       -4.0497  -22.6015  -44.8124 H         1 UNK         0.3000 
    196 H196       -6.7576  -23.4967  -45.5374 H         1 UNK         0.0600 
    197 H197       -4.1810  -25.0567  -44.9737 H         1 UNK         0.0600 
    198 H198       -5.4362  -24.6931  -43.7896 H         1 UNK         0.0600 
    199 H199       -5.7905  -25.7424  -45.1534 H         1 UNK         0.0600 
    200 H200       -3.8025  -22.6958  -47.1808 H         1 UNK         0.3000 
    201 H201       -4.1932  -24.4464  -49.4912 H         1 UNK         0.0600 
    202 H202       -1.8912  -23.7797  -48.8143 H         1 UNK         0.0600 
    203 H203       -2.2804  -22.0789  -49.0707 H         1 UNK         0.0600 
    204 H204       -2.2666  -23.1780  -50.4211 H         1 UNK         0.0600 
    205 H205       -4.3801  -20.9548  -48.8118 H         1 UNK         0.3000 
    206 H206       -5.5574  -19.2466  -49.6093 H         1 UNK         0.0600 
    207 H207       -7.2183  -20.6105  -48.3305 H         1 UNK         0.0600 
    208 H208       -7.9922  -19.6564  -49.5808 H         1 UNK         0.0600 
    209 H209       -7.7393  -21.3814  -49.8263 H         1 UNK         0.0600 
    210 H210       -4.2037  -20.7770  -51.8577 H         1 UNK         0.3000 
    211 H211       -3.8947  -20.7476  -54.0132 H         1 UNK         0.0600 
    212 H212       -4.8597  -19.0174  -55.4844 H         1 UNK         0.0600 
    213 H213       -4.3349  -18.2916  -53.9735 H         1 UNK         0.0600 
    214 H214       -6.0474  -18.5838  -54.2696 H         1 UNK         0.0600 
    215 H215       -7.2207  -21.1804  -53.0330 H         1 UNK         0.3000 
    216 H216       -8.1003  -22.4519  -55.4802 H         1 UNK         0.0600 
    217 H217       -9.3667  -22.3067  -52.6930 H         1 UNK         0.0600 
    218 H218      -10.1772  -22.8524  -54.1571 H         1 UNK         0.0600 
    219 H219       -9.6484  -21.1824  -54.0215 H         1 UNK         0.0600 
    220 H220       -6.8711  -23.6545  -52.3206 H         1 UNK         0.3000 
    221 H221       -7.5854  -26.4461  -53.0541 H         1 UNK         0.0600 
    222 H222       -8.2937  -25.5805  -50.8298 H         1 UNK         0.0600 
    223 H223       -6.6118  -25.2727  -50.4055 H         1 UNK         0.0600 
    224 H224       -7.1620  -26.9165  -50.6828 H         1 UNK         0.0600 
    225 H225       -4.7604  -24.3513  -52.4978 H         1 UNK         0.3000 
    226 H226       -2.9982  -26.2989  -53.7326 H         1 UNK         0.0600 
    227 H227       -2.5291  -25.5953  -50.7803 H         1 UNK         0.0600 
    228 H228       -2.9925  -27.1711  -51.3984 H         1 UNK         0.0600 
    229 H229       -1.4294  -26.5094  -51.8123 H         1 UNK         0.0600 
    230 H230       -0.9763  -24.5307  -51.9590 H         1 UNK         0.3000 
    231 H231        0.1258  -23.0968  -54.0044 H         1 UNK         0.0600 
    232 H232        0.2718  -22.5563  -50.9912 H         1 UNK         0.0600 
    233 H233        1.4161  -21.9422  -52.1761 H         1 UNK         0.0600 
    234 H234        1.2924  -23.6718  -51.8990 H         1 UNK         0.0600 
    235 H235        0.0813  -21.1160  -54.8424 H         1 UNK         0.3000 
    236 H236       -1.8990  -19.0853  -53.9172 H         1 UNK         0.0600 
    237 H237       -2.6350  -20.3569  -55.9831 H         1 UNK         0.0600 
    238 H238       -2.3699  -18.6481  -56.2908 H         1 UNK         0.0600 
    239 H239       -1.1691  -19.8302  -56.7998 H         1 UNK         0.0600 
    240 H240        0.7911  -19.2103  -53.0322 H         1 UNK         0.3000 
    241 H241        2.5386  -17.9933  -52.6574 H         1 UNK         0.0600 
    242 H242        3.8988  -19.2232  -56.0620 H         1 UNK         0.3800 
    243 H243        2.3851  -19.6691  -55.3223 H         1 UNK         0.3800 
    244 H244        0.7339  -15.9613  -53.2646 H         1 UNK         0.0800 
    245 H245        1.9913  -15.5934  -54.3875 H         1 UNK         0.0800 
    246 H246        2.0179  -14.8976  -49.8651 H         1 UNK         0.0800 
    247 H247        0.7930  -14.4563  -51.0309 H         1 UNK         0.0800 
@<TRIPOS>BOND
     1    1    2 1    
     2    1  127 1    
     3    1  128 1    
     4    1  129 1    
     5    2    3 2    
     6    2    4 am   BACKBONE|DICT|INTERRES
     7    4    5 1    
     8    4  130 1    
     9    5    6 1    
    10    5   65 1    
    11    5  131 1    
    12    6    7 1    
    13    6  132 1    
    14    6  133 1    
    15    7    8 1    
    16    8    9 1    
    17    8  134 1    
    18    8  135 1    
    19    9   10 ar   
    20    9   14 ar   
    21   10   11 ar   
    22   10  136 1    
    23   11   12 ar   
    24   11  126 1    
    25   12   13 ar   
    26   12  137 1    
    27   13   14 ar   
    28   13   15 1    
    29   14  138 1    
    30   15   16 1    
    31   15  139 1    
    32   15  140 1    
    33   16   17 1    
    34   17   18 1    
    35   17  141 1    
    36   17  142 1    
    37   18   19 1    
    38   18   67 1    
    39   18  143 1    
    40   19   20 am   BACKBONE|DICT|INTERRES
    41   19  144 1    
    42   20   21 2    
    43   20   22 1    
    44   22   23 1    
    45   22   24 1    
    46   22  145 1    
    47   23  146 1    
    48   23  147 1    
    49   23  148 1    
    50   24   25 am   BACKBONE|DICT|INTERRES
    51   24  149 1    
    52   25   26 2    
    53   25   27 1    
    54   27   28 1    
    55   27   29 1    
    56   27  150 1    
    57   28  151 1    
    58   28  152 1    
    59   28  153 1    
    60   29   30 am   BACKBONE|DICT|INTERRES
    61   29  154 1    
    62   30   31 2    
    63   30   32 1    
    64   32   33 1    
    65   32   34 1    
    66   32  155 1    
    67   33  156 1    
    68   33  157 1    
    69   33  158 1    
    70   34   35 am   BACKBONE|DICT|INTERRES
    71   34  159 1    
    72   35   36 2    
    73   35   37 1    
    74   37   38 1    
    75   37   39 1    
    76   37  160 1    
    77   38  161 1    
    78   38  162 1    
    79   38  163 1    
    80   39   40 am   BACKBONE|DICT|INTERRES
    81   39  164 1    
    82   40   41 2    
    83   40   42 1    
    84   42   43 1    
    85   42   44 1    
    86   42  165 1    
    87   43  166 1    
    88   43  167 1    
    89   43  168 1    
    90   44   45 am   BACKBONE|DICT|INTERRES
    91   44  169 1    
    92   45   46 2    
    93   45   47 1    
    94   47   48 1    
    95   47   49 1    
    96   47  170 1    
    97   48  171 1    
    98   48  172 1    
    99   48  173 1    
   100   49   50 am   BACKBONE|DICT|INTERRES
   101   49  174 1    
   102   50   51 2    
   103   50   52 1    
   104   52   53 1    
   105   52   54 1    
   106   52  175 1    
   107   53  176 1    
   108   53  177 1    
   109   53  178 1    
   110   54   55 am   BACKBONE|DICT|INTERRES
   111   54  179 1    
   112   55   56 2    
   113   55   57 1    
   114   57   58 1    
   115   57   59 1    
   116   57  180 1    
   117   58  181 1    
   118   58  182 1    
   119   58  183 1    
   120   59   60 am   BACKBONE|DICT|INTERRES
   121   59  184 1    
   122   60   61 2    
   123   60   62 1    
   124   62   63 1    
   125   62   64 1    
   126   62  185 1    
   127   63  186 1    
   128   63  187 1    
   129   63  188 1    
   130   64   65 am   BACKBONE|DICT|INTERRES
   131   64  189 1    
   132   65   66 2    
   133   67   68 2    
   134   67   69 am   BACKBONE|DICT|INTERRES
   135   69   70 1    
   136   69  190 1    
   137   70   71 1    
   138   70   72 1    
   139   70  191 1    
   140   71  192 1    
   141   71  193 1    
   142   71  194 1    
   143   72   73 2    
   144   72   74 am   BACKBONE|DICT|INTERRES
   145   74   75 1    
   146   74  195 1    
   147   75   76 1    
   148   75   77 1    
   149   75  196 1    
   150   76  197 1    
   151   76  198 1    
   152   76  199 1    
   153   77   78 2    
   154   77   79 am   BACKBONE|DICT|INTERRES
   155   79   80 1    
   156   79  200 1    
   157   80   81 1    
   158   80   82 1    
   159   80  201 1    
   160   81  202 1    
   161   81  203 1    
   162   81  204 1    
   163   82   83 2    
   164   82   84 am   BACKBONE|DICT|INTERRES
   165   84   85 1    
   166   84  205 1    
   167   85   86 1    
   168   85   87 1    
   169   85  206 1    
   170   86  207 1    
   171   86  208 1    
   172   86  209 1    
   173   87   88 2    
   174   87   89 am   BACKBONE|DICT|INTERRES
   175   89   90 1    
   176   89  210 1    
   177   90   91 1    
   178   90   92 1    
   179   90  211 1    
   180   91  212 1    
   181   91  213 1    
   182   91  214 1    
   183   92   93 2    
   184   92   94 am   BACKBONE|DICT|INTERRES
   185   94   95 1    
   186   94  215 1    
   187   95   96 1    
   188   95   97 1    
   189   95  216 1    
   190   96  217 1    
   191   96  218 1    
   192   96  219 1    
   193   97   98 2    
   194   97   99 am   BACKBONE|DICT|INTERRES
   195   99  100 1    
   196   99  220 1    
   197  100  101 1    
   198  100  102 1    
   199  100  221 1    
   200  101  222 1    
   201  101  223 1    
   202  101  224 1    
   203  102  103 2    
   204  102  104 am   BACKBONE|DICT|INTERRES
   205  104  105 1    
   206  104  225 1    
   207  105  106 1    
   208  105  107 1    
   209  105  226 1    
   210  106  227 1    
   211  106  228 1    
   212  106  229 1    
   213  107  108 2    
   214  107  109 am   BACKBONE|DICT|INTERRES
   215  109  110 1    
   216  109  230 1    
   217  110  111 1    
   218  110  112 1    
   219  110  231 1    
   220  111  232 1    
   221  111  233 1    
   222  111  234 1    
   223  112  113 2    
   224  112  114 am   BACKBONE|DICT|INTERRES
   225  114  115 1    
   226  114  235 1    
   227  115  116 1    
   228  115  117 1    
   229  115  236 1    
   230  116  237 1    
   231  116  238 1    
   232  116  239 1    
   233  117  118 2    
   234  117  119 am   BACKBONE|DICT|INTERRES
   235  119  120 1    
   236  119  240 1    
   237  120  121 1    
   238  120  124 1    
   239  120  241 1    
   240  121  122 am   BACKBONE|DICT|INTERRES
   241  121  123 2    
   242  122  242 1    
   243  122  243 1    
   244  124  125 1    
   245  124  244 1    
   246  124  245 1    
   247  125  126 1    
   248  126  246 1    
   249  126  247 1    
@<TRIPOS>SUBSTRUCTURE
     1 UNK         1 GROUP             0       ****    0 ROOT    
