@<TRIPOS>MOLECULE
3R540
247   249    1
SMALL
USER_CHARGES


@<TRIPOS>ATOM
      1 CA         -2.1689   -9.9222  -46.3080 C.3       0 UNK        -0.1800 
      2 C          -1.3479  -11.2027  -46.2949 C.2       0 UNK         0.5000 
      3 O          -0.1349  -11.1531  -46.4941 O.2       0 UNK        -0.5000 
      4 N          -1.9971  -12.3473  -46.0447 N.am      1 UNK        -0.5000 
      5 CA         -1.3932  -13.6867  -46.0187 C.3       1 UNK         0.1400 
      6 C6         -2.4415  -14.7823  -45.7226 C.3       23 UNK        -0.0398 
      7 S7         -3.6571  -14.9570  -47.0689 S.3       23 UNK        -0.2404 
      8 C8         -3.3796  -16.6819  -47.5779 C.3       23 UNK        -0.0205 
      9 C9         -2.2867  -16.8254  -48.6299 C.ar      23 UNK        -0.0193 
     10 C10        -2.6355  -17.1230  -49.9499 C.ar      23 UNK        -0.1150 
     11 C11        -1.6514  -17.3795  -50.9063 C.ar      23 UNK        -0.0193 
     12 C12        -0.3025  -17.2948  -50.5460 C.ar      23 UNK        -0.1150 
     13 C13         0.0636  -16.9644  -49.2374 C.ar      23 UNK        -0.0193 
     14 C14        -0.9344  -16.7392  -48.2829 C.ar      23 UNK        -0.1150 
     15 C15         1.5353  -16.8418  -48.8573 C.3       23 UNK        -0.0205 
     16 S16         2.3676  -18.4571  -48.6925 S.3       23 UNK        -0.2404 
     17 C17         1.5243  -19.1524  -47.2284 C.3       23 UNK        -0.0398 
     18 CA          1.0970  -20.6372  -47.3340 C.3       11 UNK         0.1400 
     19 N           0.4384  -21.0760  -46.0982 N.am      11 UNK        -0.5000 
     20 C           0.2797  -22.3596  -45.7399 C.2       10 UNK         0.5000 
     21 O           0.8103  -23.2950  -46.3379 O.2       10 UNK        -0.5000 
     22 CA         -0.6390  -22.6657  -44.5377 C.3       10 UNK         0.1400 
     23 CB          0.1451  -23.2561  -43.3554 C.3       10 UNK        -0.1800 
     24 N          -1.4137  -21.5083  -44.0817 N.am      10 UNK        -0.5000 
     25 C          -2.5021  -21.0416  -44.7112 C.2       9 UNK         0.5000 
     26 O          -2.9527  -21.5453  -45.7381 O.2       9 UNK        -0.5000 
     27 CA         -3.1785  -19.7826  -44.1331 C.3       9 UNK         0.1400 
     28 CB         -4.3173  -20.1770  -43.1817 C.3       9 UNK        -0.1800 
     29 N          -2.2563  -18.8778  -43.4402 N.am      9 UNK        -0.5000 
     30 C          -1.2217  -18.2589  -44.0243 C.2       8 UNK         0.5000 
     31 O          -0.9557  -18.3851  -45.2174 O.2       8 UNK        -0.5000 
     32 CA         -0.3075  -17.3813  -43.1458 C.3       8 UNK         0.1400 
     33 CB         -0.9104  -17.0160  -41.7729 C.3       8 UNK        -0.1800 
     34 N           1.0238  -17.9695  -42.9775 N.am      8 UNK        -0.5000 
     35 C           1.3172  -19.1986  -42.5198 C.2       7 UNK         0.5000 
     36 O           0.4651  -20.0304  -42.2041 O.2       7 UNK        -0.5000 
     37 CA          2.8090  -19.5751  -42.3857 C.3       7 UNK         0.1400 
     38 CB          3.2550  -20.4558  -43.5637 C.3       7 UNK        -0.1800 
     39 N           3.7045  -18.4213  -42.3125 N.am      7 UNK        -0.5000 
     40 C           3.7661  -17.5372  -41.3071 C.2       6 UNK         0.5000 
     41 O           3.1428  -17.6574  -40.2521 O.2       6 UNK        -0.5000 
     42 CA          4.6565  -16.2947  -41.5299 C.3       6 UNK         0.1400 
     43 CB          5.9738  -16.4306  -40.7509 C.3       6 UNK        -0.1800 
     44 N           4.9649  -16.0124  -42.9391 N.am      6 UNK        -0.5000 
     45 C           4.0578  -15.7153  -43.8791 C.2       5 UNK         0.5000 
     46 O           2.8444  -15.7027  -43.6716 O.2       5 UNK        -0.5000 
     47 CA          4.5878  -15.4831  -45.2976 C.3       5 UNK         0.1400 
     48 CB          4.5379  -16.7916  -46.1037 C.3       5 UNK        -0.1800 
     49 N           3.7886  -14.4548  -45.9557 N.am      5 UNK        -0.5000 
     50 C           4.1980  -13.7329  -47.0067 C.2       4 UNK         0.5000 
     51 O           5.2717  -13.9133  -47.5834 O.2       4 UNK        -0.5000 
     52 CA          3.2818  -12.5861  -47.4724 C.3       4 UNK         0.1400 
     53 CB          2.1503  -13.1078  -48.3723 C.3       4 UNK        -0.1800 
     54 N           2.7178  -11.8260  -46.3572 N.am      4 UNK        -0.5000 
     55 C           3.4276  -11.0758  -45.5007 C.2       3 UNK         0.5000 
     56 O           4.6427  -10.8962  -45.5897 O.2       3 UNK        -0.5000 
     57 CA          2.6539  -10.4305  -44.3376 C.3       3 UNK         0.1400 
     58 CB          2.0611   -9.0748  -44.7529 C.3       3 UNK        -0.1800 
     59 N           1.5876  -11.3082  -43.8572 N.am      3 UNK        -0.5000 
     60 C           1.7802  -12.3318  -43.0130 C.2       2 UNK         0.5000 
     61 O           2.8568  -12.5689  -42.4645 O.2       2 UNK        -0.5000 
     62 CA          0.5706  -13.2452  -42.7313 C.3       2 UNK         0.1400 
     63 CB         -0.1199  -12.8408  -41.4205 C.3       2 UNK        -0.1800 
     64 N          -0.4210  -13.2494  -43.8095 N.am      2 UNK        -0.5000 
     65 C          -0.2290  -13.8003  -45.0166 C.2       1 UNK         0.5000 
     66 O           0.8116  -14.3550  -45.3634 O.2       1 UNK        -0.5000 
     67 C           0.2000  -20.9143  -48.5631 C.2       11 UNK         0.5000 
     68 O           0.7171  -21.2071  -49.6415 O.2       11 UNK        -0.5000 
     69 N          -1.1269  -20.8660  -48.3784 N.am      12 UNK        -0.5000 
     70 CA         -2.1449  -21.0312  -49.4149 C.3       12 UNK         0.1400 
     71 CB         -3.4353  -20.3665  -48.9168 C.3       12 UNK        -0.1800 
     72 C          -2.3625  -22.5082  -49.8109 C.2       12 UNK         0.5000 
     73 O          -3.4967  -22.9963  -49.7885 O.2       12 UNK        -0.5000 
     74 N          -1.2690  -23.1905  -50.1753 N.am      13 UNK        -0.5000 
     75 CA         -1.1836  -24.6024  -50.5542 C.3       13 UNK         0.1400 
     76 CB         -1.7878  -24.8091  -51.9611 C.3       13 UNK        -0.1800 
     77 C          -1.7816  -25.5145  -49.4614 C.2       13 UNK         0.5000 
     78 O          -1.2791  -25.5152  -48.3359 O.2       13 UNK        -0.5000 
     79 N          -2.8549  -26.2455  -49.7878 N.am      14 UNK        -0.5000 
     80 CA         -3.6275  -27.0813  -48.8702 C.3       14 UNK         0.1400 
     81 CB         -4.4345  -28.1037  -49.6908 C.3       14 UNK        -0.1800 
     82 C          -4.5228  -26.2337  -47.9414 C.2       14 UNK         0.5000 
     83 O          -5.7479  -26.2751  -48.0589 O.2       14 UNK        -0.5000 
     84 N          -3.8866  -25.4598  -47.0516 N.am      15 UNK        -0.5000 
     85 CA         -4.4752  -24.6891  -45.9482 C.3       15 UNK         0.1400 
     86 CB         -4.8896  -25.6477  -44.8135 C.3       15 UNK        -0.1800 
     87 C          -5.6188  -23.7360  -46.3651 C.2       15 UNK         0.5000 
     88 O          -6.6064  -23.6063  -45.6397 O.2       15 UNK        -0.5000 
     89 N          -5.4721  -23.1110  -47.5418 N.am      16 UNK        -0.5000 
     90 CA         -6.4082  -22.1822  -48.1853 C.3       16 UNK         0.1400 
     91 CB         -6.7269  -20.9703  -47.2820 C.3       16 UNK        -0.1800 
     92 C          -7.6797  -22.8370  -48.7581 C.2       16 UNK         0.5000 
     93 O          -8.5394  -22.1139  -49.2639 O.2       16 UNK        -0.5000 
     94 N          -7.7759  -24.1750  -48.7313 N.am      17 UNK        -0.5000 
     95 CA         -8.8326  -24.9172  -49.4214 C.3       17 UNK         0.1400 
     96 CB         -8.9601  -26.3285  -48.8278 C.3       17 UNK        -0.1800 
     97 C          -8.5616  -24.9799  -50.9352 C.2       17 UNK         0.5000 
     98 O          -9.4980  -24.8617  -51.7263 O.2       17 UNK        -0.5000 
     99 N          -7.2827  -25.1437  -51.3030 N.am      18 UNK        -0.5000 
    100 CA        -6.8170  -25.1433  -52.6882 C.3       18 UNK         0.1400 
    101 CB        -5.6385  -26.1190  -52.8369 C.3       18 UNK        -0.1800 
    102 C         -6.4173  -23.7327  -53.1505 C.2       18 UNK         0.5000 
    103 O         -6.8457  -23.3095  -54.2237 O.2       18 UNK        -0.5000 
    104 N         -5.5799  -23.0482  -52.3499 N.am      19 UNK        -0.5000 
    105 CA        -4.9857  -21.7251  -52.6129 C.3       19 UNK         0.1400 
    106 CB        -6.0677  -20.6275  -52.6399 C.3       19 UNK        -0.1800 
    107 C         -4.0542  -21.6739  -53.8481 C.2       19 UNK         0.5000 
    108 O         -3.7182  -20.5868  -54.3198 O.2       19 UNK        -0.5000 
    109 N         -3.6224  -22.8507  -54.3257 N.am      20 UNK        -0.5000 
    110 CA        -2.8784  -23.0823  -55.5688 C.3       20 UNK         0.1400 
    111 CB        -2.7998  -24.5991  -55.8070 C.3       20 UNK        -0.1800 
    112 C         -1.4733  -22.4504  -55.6350 C.2       20 UNK         0.5000 
    113 O         -0.8882  -22.3965  -56.7173 O.2       20 UNK        -0.5000 
    114 N         -0.9569  -21.9776  -54.4931 N.am      21 UNK        -0.5000 
    115 CA         0.2854  -21.2108  -54.3912 C.3       21 UNK         0.1400 
    116 CB         0.6759  -21.1002  -52.9099 C.3       21 UNK        -0.1800 
    117 C          0.1908  -19.8124  -55.0391 C.2       21 UNK         0.5000 
    118 O          1.2211  -19.2569  -55.4224 O.2       21 UNK        -0.5000 
    119 N         -1.0312  -19.2786  -55.1559 N.am      22 UNK        -0.5000 
    120 CA        -1.3473  -18.0188  -55.8368 C.3       22 UNK         0.1400 
    121 C         -1.8459  -18.3069  -57.2771 C.2       22 UNK         0.5000 
    122 N         -1.3961  -17.5404  -58.2612 N.am      22 UNK        -0.7600 
    123 O         -2.6660  -19.1926  -57.5085 O.2       22 UNK        -0.5000 
    124 C124       -2.4045  -17.2095  -55.0447 C.3       23 UNK        -0.0398 
    125 S125       -1.7209  -16.4739  -53.5205 S.3       23 UNK        -0.2404 
    126 C126       -2.0517  -17.7914  -52.3133 C.3       23 UNK        -0.0205 
    127 H127       -1.7840   -9.2234  -45.5651 H         1 UNK         0.0600 
    128 H128       -3.2196  -10.1114  -46.0867 H         1 UNK         0.0600 
    129 H129       -2.1062   -9.4485  -47.2876 H         1 UNK         0.0600 
    130 H130       -2.9975  -12.3220  -45.9068 H         1 UNK         0.3000 
    131 H131       -0.9746  -13.8702  -47.0107 H         1 UNK         0.0600 
    132 H132       -1.9577  -15.7437  -45.5508 H         1 UNK         0.0800 
    133 H133       -2.9827  -14.5585  -44.8016 H         1 UNK         0.0800 
    134 H134       -4.3224  -17.0695  -47.9667 H         1 UNK         0.0800 
    135 H135       -3.1450  -17.3058  -46.7144 H         1 UNK         0.0800 
    136 H136       -3.6785  -17.2009  -50.2229 H         1 UNK         0.1150 
    137 H137        0.4628  -17.4902  -51.2842 H         1 UNK         0.1150 
    138 H138       -0.6538  -16.5151  -47.2645 H         1 UNK         0.1150 
    139 H139        1.6469  -16.2874  -47.9236 H         1 UNK         0.0800 
    140 H140        2.0530  -16.2577  -49.6192 H         1 UNK         0.0800 
    141 H141        0.6553  -18.5388  -47.0168 H         1 UNK         0.0800 
    142 H142        2.1856  -19.0268  -46.3731 H         1 UNK         0.0800 
    143 H143        2.0058  -21.2292  -47.4616 H         1 UNK         0.0600 
    144 H144       -0.0373  -20.3577  -45.5655 H         1 UNK         0.3000 
    145 H145       -1.3383  -23.4338  -44.8744 H         1 UNK         0.0600 
    146 H146       -0.5296  -23.5832  -42.5642 H         1 UNK         0.0600 
    147 H147        0.7263  -24.1260  -43.6639 H         1 UNK         0.0600 
    148 H148        0.8371  -22.5367  -42.9223 H         1 UNK         0.0600 
    149 H149       -1.0536  -21.0106  -43.2737 H         1 UNK         0.3000 
    150 H150       -3.6122  -19.2352  -44.9726 H         1 UNK         0.0600 
    151 H151       -3.9435  -20.7065  -42.3045 H         1 UNK         0.0600 
    152 H152       -5.0332  -20.8320  -43.6809 H         1 UNK         0.0600 
    153 H153       -4.8662  -19.3002  -42.8380 H         1 UNK         0.0600 
    154 H154       -2.3953  -18.7577  -42.4474 H         1 UNK         0.3000 
    155 H155       -0.1592  -16.4532  -43.6972 H         1 UNK         0.0600 
    156 H156       -1.0372  -17.8885  -41.1312 H         1 UNK         0.0600 
    157 H157       -1.8829  -16.5345  -41.8840 H         1 UNK         0.0600 
    158 H158       -0.2655  -16.3135  -41.2445 H         1 UNK         0.0600 
    159 H159        1.7906  -17.3511  -43.2245 H         1 UNK         0.3000 
    160 H160        2.9172  -20.1504  -41.4641 H         1 UNK         0.0600 
    161 H161        3.2344  -19.9087  -44.5054 H         1 UNK         0.0600 
    162 H162        2.6119  -21.3270  -43.6787 H         1 UNK         0.0600 
    163 H163        4.2701  -20.8244  -43.4153 H         1 UNK         0.0600 
    164 H164        4.2681  -18.2380  -43.1286 H         1 UNK         0.3000 
    165 H165        4.1113  -15.4350  -41.1344 H         1 UNK         0.0600 
    166 H166        6.5715  -15.5218  -40.8234 H         1 UNK         0.0600 
    167 H167        6.5761  -17.2610  -41.1216 H         1 UNK         0.0600 
    168 H168        5.7857  -16.6091  -39.6912 H         1 UNK         0.0600 
    169 H169        5.9427  -16.0309  -43.1916 H         1 UNK         0.3000 
    170 H170        5.6217  -15.1382  -45.2283 H         1 UNK         0.0600 
    171 H171        5.1140  -17.5798  -45.6178 H         1 UNK         0.0600 
    172 H172        3.5126  -17.1439  -46.2037 H         1 UNK         0.0600 
    173 H173        4.9455  -16.6633  -47.1064 H         1 UNK         0.0600 
    174 H174        2.8740  -14.2847  -45.5432 H         1 UNK         0.3000 
    175 H175        3.8890  -11.8988  -48.0652 H         1 UNK         0.0600 
    176 H176        1.4914  -13.7935  -47.8411 H         1 UNK         0.0600 
    177 H177        1.5400  -12.2884  -48.7526 H         1 UNK         0.0600 
    178 H178        2.5525  -13.6420  -49.2339 H         1 UNK         0.0600 
    179 H179        1.7095  -11.8615  -46.2493 H         1 UNK         0.3000 
    180 H180        3.3602  -10.2493  -43.5244 H         1 UNK         0.0600 
    181 H181        1.3607   -9.1716  -45.5824 H         1 UNK         0.0600 
    182 H182        2.8478   -8.3890  -45.0696 H         1 UNK         0.0600 
    183 H183        1.5346   -8.6040  -43.9227 H         1 UNK         0.0600 
    184 H184        0.6838  -11.2032  -44.2961 H         1 UNK         0.3000 
    185 H185        0.9464  -14.2626  -42.6115 H         1 UNK         0.0600 
    186 H186       -0.9283  -13.5288  -41.1721 H         1 UNK         0.0600 
    187 H187        0.5847  -12.8561  -40.5879 H         1 UNK         0.0600 
    188 H188       -0.5380  -11.8351  -41.4790 H         1 UNK         0.0600 
    189 H189       -1.2994  -12.7892  -43.6194 H         1 UNK         0.3000 
    190 H190       -1.4779  -20.7078  -47.4441 H         1 UNK         0.3000 
    191 H191       -1.8169  -20.4964  -50.3084 H         1 UNK         0.0600 
    192 H192       -4.1787  -20.2894  -49.7097 H         1 UNK         0.0600 
    193 H193       -3.2492  -19.3639  -48.5453 H         1 UNK         0.0600 
    194 H194       -3.8693  -20.9264  -48.0926 H         1 UNK         0.0600 
    195 H195       -0.3848  -22.6925  -50.1142 H         1 UNK         0.3000 
    196 H196       -0.1222  -24.8486  -50.6085 H         1 UNK         0.0600 
    197 H197       -2.8352  -24.5140  -52.0055 H         1 UNK         0.0600 
    198 H198       -1.2476  -24.2180  -52.6996 H         1 UNK         0.0600 
    199 H199       -1.7144  -25.8503  -52.2779 H         1 UNK         0.0600 
    200 H200       -3.2108  -26.1697  -50.7274 H         1 UNK         0.3000 
    201 H201       -2.9350  -27.6397  -48.2368 H         1 UNK         0.0600 
    202 H202       -5.1679  -27.6198  -50.3353 H         1 UNK         0.0600 
    203 H203       -4.9779  -28.7851  -49.0350 H         1 UNK         0.0600 
    204 H204       -3.7824  -28.7107  -50.3192 H         1 UNK         0.0600 
    205 H205       -2.8739  -25.4304  -47.1221 H         1 UNK         0.3000 
    206 H206       -3.6780  -24.0546  -45.5625 H         1 UNK         0.0600 
    207 H207       -4.0564  -26.2806  -44.5078 H         1 UNK         0.0600 
    208 H208       -5.2150  -25.0963  -43.9305 H         1 UNK         0.0600 
    209 H209       -5.7109  -26.2978  -45.1176 H         1 UNK         0.0600 
    210 H210       -4.6345  -23.3027  -48.0816 H         1 UNK         0.3000 
    211 H211       -5.8817  -21.8037  -49.0605 H         1 UNK         0.0600 
    212 H212       -7.2161  -20.1796  -47.8516 H         1 UNK         0.0600 
    213 H213       -5.8235  -20.5439  -46.8465 H         1 UNK         0.0600 
    214 H214       -7.3956  -21.2387  -46.4639 H         1 UNK         0.0600 
    215 H215       -7.0384  -24.7232  -48.2996 H         1 UNK         0.3000 
    216 H216       -9.7837  -24.4033  -49.2659 H         1 UNK         0.0600 
    217 H217       -8.0791  -26.9379  -49.0299 H         1 UNK         0.0600 
    218 H218       -9.8183  -26.8498  -49.2535 H         1 UNK         0.0600 
    219 H219       -9.1032  -26.2923  -47.7478 H         1 UNK         0.0600 
    220 H220       -6.5898  -25.2447  -50.5766 H         1 UNK         0.3000 
    221 H221       -7.6164  -25.4940  -53.3449 H         1 UNK         0.0600 
    222 H222       -5.9521  -27.1419  -52.6283 H         1 UNK         0.0600 
    223 H223       -4.8198  -25.8763  -52.1612 H         1 UNK         0.0600 
    224 H224       -5.2436  -26.1060  -53.8537 H         1 UNK         0.0600 
    225 H225       -5.2793  -23.4784  -51.4862 H         1 UNK         0.3000 
    226 H226       -4.3418  -21.5084  -51.7636 H         1 UNK         0.0600 
    227 H227       -6.7190  -20.7205  -53.5091 H         1 UNK         0.0600 
    228 H228       -6.6912  -20.6684  -51.7464 H         1 UNK         0.0600 
    229 H229       -5.6182  -19.6343  -52.6747 H         1 UNK         0.0600 
    230 H230       -3.9490  -23.6798  -53.8553 H         1 UNK         0.3000 
    231 H231       -3.4587  -22.6392  -56.3806 H         1 UNK         0.0600 
    232 H232       -2.2539  -25.1041  -55.0093 H         1 UNK         0.0600 
    233 H233       -2.2910  -24.8241  -56.7453 H         1 UNK         0.0600 
    234 H234       -3.7943  -25.0418  -55.8674 H         1 UNK         0.0600 
    235 H235       -1.5086  -22.0656  -53.6542 H         1 UNK         0.3000 
    236 H236        1.0710  -21.7620  -54.9120 H         1 UNK         0.0600 
    237 H237        0.8352  -22.0845  -52.4691 H         1 UNK         0.0600 
    238 H238        1.6030  -20.5384  -52.7882 H         1 UNK         0.0600 
    239 H239       -0.0909  -20.5936  -52.3240 H         1 UNK         0.0600 
    240 H240       -1.8359  -19.8296  -54.8780 H         1 UNK         0.3000 
    241 H241       -0.4452  -17.4079  -55.9104 H         1 UNK         0.0600 
    242 H242       -1.7233  -17.7080  -59.2003 H         1 UNK         0.3800 
    243 H243       -0.7294  -16.8016  -58.0959 H         1 UNK         0.3800 
    244 H244       -3.2751  -17.8242  -54.8083 H         1 UNK         0.0800 
    245 H245       -2.7783  -16.3807  -55.6487 H         1 UNK         0.0800 
    246 H246       -1.4989  -18.6887  -52.5856 H         1 UNK         0.0800 
    247 H247       -3.1090  -18.0591  -52.3504 H         1 UNK         0.0800 
@<TRIPOS>BOND
     1    1    2 1    
     2    1  127 1    
     3    1  128 1    
     4    1  129 1    
     5    2    3 2    
     6    2    4 am   BACKBONE|DICT|INTERRES
     7    4    5 1    
     8    4  130 1    
     9    5    6 1    
    10    5   65 1    
    11    5  131 1    
    12    6    7 1    
    13    6  132 1    
    14    6  133 1    
    15    7    8 1    
    16    8    9 1    
    17    8  134 1    
    18    8  135 1    
    19    9   10 ar   
    20    9   14 ar   
    21   10   11 ar   
    22   10  136 1    
    23   11   12 ar   
    24   11  126 1    
    25   12   13 ar   
    26   12  137 1    
    27   13   14 ar   
    28   13   15 1    
    29   14  138 1    
    30   15   16 1    
    31   15  139 1    
    32   15  140 1    
    33   16   17 1    
    34   17   18 1    
    35   17  141 1    
    36   17  142 1    
    37   18   19 1    
    38   18   67 1    
    39   18  143 1    
    40   19   20 am   BACKBONE|DICT|INTERRES
    41   19  144 1    
    42   20   21 2    
    43   20   22 1    
    44   22   23 1    
    45   22   24 1    
    46   22  145 1    
    47   23  146 1    
    48   23  147 1    
    49   23  148 1    
    50   24   25 am   BACKBONE|DICT|INTERRES
    51   24  149 1    
    52   25   26 2    
    53   25   27 1    
    54   27   28 1    
    55   27   29 1    
    56   27  150 1    
    57   28  151 1    
    58   28  152 1    
    59   28  153 1    
    60   29   30 am   BACKBONE|DICT|INTERRES
    61   29  154 1    
    62   30   31 2    
    63   30   32 1    
    64   32   33 1    
    65   32   34 1    
    66   32  155 1    
    67   33  156 1    
    68   33  157 1    
    69   33  158 1    
    70   34   35 am   BACKBONE|DICT|INTERRES
    71   34  159 1    
    72   35   36 2    
    73   35   37 1    
    74   37   38 1    
    75   37   39 1    
    76   37  160 1    
    77   38  161 1    
    78   38  162 1    
    79   38  163 1    
    80   39   40 am   BACKBONE|DICT|INTERRES
    81   39  164 1    
    82   40   41 2    
    83   40   42 1    
    84   42   43 1    
    85   42   44 1    
    86   42  165 1    
    87   43  166 1    
    88   43  167 1    
    89   43  168 1    
    90   44   45 am   BACKBONE|DICT|INTERRES
    91   44  169 1    
    92   45   46 2    
    93   45   47 1    
    94   47   48 1    
    95   47   49 1    
    96   47  170 1    
    97   48  171 1    
    98   48  172 1    
    99   48  173 1    
   100   49   50 am   BACKBONE|DICT|INTERRES
   101   49  174 1    
   102   50   51 2    
   103   50   52 1    
   104   52   53 1    
   105   52   54 1    
   106   52  175 1    
   107   53  176 1    
   108   53  177 1    
   109   53  178 1    
   110   54   55 am   BACKBONE|DICT|INTERRES
   111   54  179 1    
   112   55   56 2    
   113   55   57 1    
   114   57   58 1    
   115   57   59 1    
   116   57  180 1    
   117   58  181 1    
   118   58  182 1    
   119   58  183 1    
   120   59   60 am   BACKBONE|DICT|INTERRES
   121   59  184 1    
   122   60   61 2    
   123   60   62 1    
   124   62   63 1    
   125   62   64 1    
   126   62  185 1    
   127   63  186 1    
   128   63  187 1    
   129   63  188 1    
   130   64   65 am   BACKBONE|DICT|INTERRES
   131   64  189 1    
   132   65   66 2    
   133   67   68 2    
   134   67   69 am   BACKBONE|DICT|INTERRES
   135   69   70 1    
   136   69  190 1    
   137   70   71 1    
   138   70   72 1    
   139   70  191 1    
   140   71  192 1    
   141   71  193 1    
   142   71  194 1    
   143   72   73 2    
   144   72   74 am   BACKBONE|DICT|INTERRES
   145   74   75 1    
   146   74  195 1    
   147   75   76 1    
   148   75   77 1    
   149   75  196 1    
   150   76  197 1    
   151   76  198 1    
   152   76  199 1    
   153   77   78 2    
   154   77   79 am   BACKBONE|DICT|INTERRES
   155   79   80 1    
   156   79  200 1    
   157   80   81 1    
   158   80   82 1    
   159   80  201 1    
   160   81  202 1    
   161   81  203 1    
   162   81  204 1    
   163   82   83 2    
   164   82   84 am   BACKBONE|DICT|INTERRES
   165   84   85 1    
   166   84  205 1    
   167   85   86 1    
   168   85   87 1    
   169   85  206 1    
   170   86  207 1    
   171   86  208 1    
   172   86  209 1    
   173   87   88 2    
   174   87   89 am   BACKBONE|DICT|INTERRES
   175   89   90 1    
   176   89  210 1    
   177   90   91 1    
   178   90   92 1    
   179   90  211 1    
   180   91  212 1    
   181   91  213 1    
   182   91  214 1    
   183   92   93 2    
   184   92   94 am   BACKBONE|DICT|INTERRES
   185   94   95 1    
   186   94  215 1    
   187   95   96 1    
   188   95   97 1    
   189   95  216 1    
   190   96  217 1    
   191   96  218 1    
   192   96  219 1    
   193   97   98 2    
   194   97   99 am   BACKBONE|DICT|INTERRES
   195   99  100 1    
   196   99  220 1    
   197  100  101 1    
   198  100  102 1    
   199  100  221 1    
   200  101  222 1    
   201  101  223 1    
   202  101  224 1    
   203  102  103 2    
   204  102  104 am   BACKBONE|DICT|INTERRES
   205  104  105 1    
   206  104  225 1    
   207  105  106 1    
   208  105  107 1    
   209  105  226 1    
   210  106  227 1    
   211  106  228 1    
   212  106  229 1    
   213  107  108 2    
   214  107  109 am   BACKBONE|DICT|INTERRES
   215  109  110 1    
   216  109  230 1    
   217  110  111 1    
   218  110  112 1    
   219  110  231 1    
   220  111  232 1    
   221  111  233 1    
   222  111  234 1    
   223  112  113 2    
   224  112  114 am   BACKBONE|DICT|INTERRES
   225  114  115 1    
   226  114  235 1    
   227  115  116 1    
   228  115  117 1    
   229  115  236 1    
   230  116  237 1    
   231  116  238 1    
   232  116  239 1    
   233  117  118 2    
   234  117  119 am   BACKBONE|DICT|INTERRES
   235  119  120 1    
   236  119  240 1    
   237  120  121 1    
   238  120  124 1    
   239  120  241 1    
   240  121  122 am   BACKBONE|DICT|INTERRES
   241  121  123 2    
   242  122  242 1    
   243  122  243 1    
   244  124  125 1    
   245  124  244 1    
   246  124  245 1    
   247  125  126 1    
   248  126  246 1    
   249  126  247 1    
@<TRIPOS>SUBSTRUCTURE
     1 UNK         1 GROUP             0       ****    0 ROOT    
