@<TRIPOS>MOLECULE
3R540
247   249    1
SMALL
USER_CHARGES


@<TRIPOS>ATOM
      1 CA          1.1084  -16.6526  -48.4000 C.3       0 UNK        -0.1800 
      2 C           0.3955  -15.5147  -47.6867 C.2       0 UNK         0.5000 
      3 O           0.9885  -14.4606  -47.4575 O.2       0 UNK        -0.5000 
      4 N          -0.8901  -15.7139  -47.3711 N.am      1 UNK        -0.5000 
      5 CA         -1.7975  -14.7343  -46.7585 C.3       1 UNK         0.1400 
      6 C6         -3.1649  -15.4111  -46.4618 C.3       23 UNK        -0.0398 
      7 S7         -4.4433  -14.3431  -45.7134 S.3       23 UNK        -0.2404 
      8 C8         -5.2503  -15.4563  -44.5149 C.3       23 UNK        -0.0205 
      9 C9         -5.9273  -16.6741  -45.1391 C.ar      23 UNK        -0.0193 
     10 C10        -6.7756  -16.5454  -46.2469 C.ar      23 UNK        -0.1150 
     11 C11        -7.4419  -17.6602  -46.7664 C.ar      23 UNK        -0.0193 
     12 C12        -7.2717  -18.9057  -46.1570 C.ar      23 UNK        -0.1150 
     13 C13        -6.4455  -19.0470  -45.0397 C.ar      23 UNK        -0.0193 
     14 C14        -5.7621  -17.9316  -44.5467 C.ar      23 UNK        -0.1150 
     15 C15        -6.3590  -20.3907  -44.3292 C.3       23 UNK        -0.0205 
     16 S16        -5.4771  -21.6424  -45.3091 S.3       23 UNK        -0.2404 
     17 C17        -3.7479  -21.2519  -44.8902 C.3       23 UNK        -0.0398 
     18 CA         -2.7340  -22.0241  -45.7650 C.3       11 UNK         0.1400 
     19 N          -1.3889  -21.4569  -45.6677 N.am      11 UNK        -0.5000 
     20 C          -0.3591  -21.8067  -46.4505 C.2       10 UNK         0.5000 
     21 O          -0.4496  -22.6131  -47.3749 O.2       10 UNK        -0.5000 
     22 CA          1.0099  -21.1928  -46.1122 C.3       10 UNK         0.1400 
     23 CB          1.1124  -19.7555  -46.6409 C.3       10 UNK        -0.1800 
     24 N           1.2831  -21.2106  -44.6763 N.am      10 UNK        -0.5000 
     25 C           1.4080  -22.3227  -43.9392 C.2       9 UNK         0.5000 
     26 O           1.3594  -23.4606  -44.4029 O.2       9 UNK        -0.5000 
     27 CA          1.5629  -22.1325  -42.4218 C.3       9 UNK         0.1400 
     28 CB          3.0187  -21.8116  -42.0524 C.3       9 UNK        -0.1800 
     29 N           0.6792  -21.0868  -41.9074 N.am      9 UNK        -0.5000 
     30 C          -0.6562  -21.1845  -41.8488 C.2       8 UNK         0.5000 
     31 O          -1.2899  -22.1736  -42.2161 O.2       8 UNK        -0.5000 
     32 CA         -1.4127  -19.9491  -41.3314 C.3       8 UNK         0.1400 
     33 CB         -1.3778  -19.8901  -39.7970 C.3       8 UNK        -0.1800 
     34 N          -0.8877  -18.6988  -41.8812 N.am      8 UNK        -0.5000 
     35 C          -0.9666  -18.3579  -43.1741 C.2       7 UNK         0.5000 
     36 O          -1.4829  -19.0630  -44.0399 O.2       7 UNK        -0.5000 
     37 CA         -0.3361  -17.0145  -43.5729 C.3       7 UNK         0.1400 
     38 CB         -1.2579  -15.8527  -43.1756 C.3       7 UNK        -0.1800 
     39 N           0.9929  -16.7650  -43.0140 N.am      7 UNK        -0.5000 
     40 C           2.0617  -17.5727  -43.0823 C.2       6 UNK         0.5000 
     41 O           2.0237  -18.7381  -43.4768 O.2       6 UNK        -0.5000 
     42 CA          3.4021  -16.9209  -42.6789 C.3       6 UNK         0.1400 
     43 CB          4.6286  -17.8009  -42.9984 C.3       6 UNK        -0.1800 
     44 N           3.5374  -15.5802  -43.2692 N.am      6 UNK        -0.5000 
     45 C           3.5237  -15.2774  -44.5779 C.2       5 UNK         0.5000 
     46 O           3.5319  -16.1209  -45.4779 O.2       5 UNK        -0.5000 
     47 CA          3.3958  -13.7794  -44.9204 C.3       5 UNK         0.1400 
     48 CB          4.3684  -12.8820  -44.1231 C.3       5 UNK        -0.1800 
     49 N           3.4762  -13.5332  -46.3619 N.am      5 UNK        -0.5000 
     50 C           4.5564  -13.5798  -47.1529 C.2       4 UNK         0.5000 
     51 O           5.7062  -13.7644  -46.7503 O.2       4 UNK        -0.5000 
     52 CA          4.3196  -13.3794  -48.6648 C.3       4 UNK         0.1400 
     53 CB          4.3762  -14.7271  -49.3997 C.3       4 UNK        -0.1800 
     54 N           3.0674  -12.6947  -49.0144 N.am      4 UNK        -0.5000 
     55 C           2.8019  -11.4105  -48.7318 C.2       3 UNK         0.5000 
     56 O           3.5448  -10.6938  -48.0600 O.2       3 UNK        -0.5000 
     57 CA          1.5275  -10.7982  -49.3334 C.3       3 UNK         0.1400 
     58 CB          1.8673  -10.2066  -50.7198 C.3       3 UNK        -0.1800 
     59 N           0.4081  -11.7454  -49.4232 N.am      3 UNK        -0.5000 
     60 C          -0.8414  -11.3897  -49.7618 C.2       2 UNK         0.5000 
     61 O          -1.1879  -10.2251  -49.9668 O.2       2 UNK        -0.5000 
     62 CA         -1.8905  -12.5064  -49.9246 C.3       2 UNK         0.1400 
     63 CB         -1.7838  -13.1194  -51.3304 C.3       2 UNK        -0.1800 
     64 N          -1.8214  -13.5767  -48.9316 N.am      2 UNK        -0.5000 
     65 C          -1.9168  -13.4369  -47.6016 C.2       1 UNK         0.5000 
     66 O          -2.0494  -12.3510  -47.0356 O.2       1 UNK        -0.5000 
     67 C          -2.7343  -23.5434  -45.4799 C.2       11 UNK         0.5000 
     68 O          -3.2987  -24.3055  -46.2681 O.2       11 UNK        -0.5000 
     69 N          -2.0526  -23.9580  -44.3997 N.am      12 UNK        -0.5000 
     70 CA         -1.8702  -25.3599  -44.0124 C.3       12 UNK         0.1400 
     71 CB         -1.1627  -25.4347  -42.6516 C.3       12 UNK        -0.1800 
     72 C          -1.1149  -26.1939  -45.0646 C.2       12 UNK         0.5000 
     73 O          -1.4464  -27.3643  -45.2592 O.2       12 UNK        -0.5000 
     74 N          -0.1613  -25.5713  -45.7705 N.am      13 UNK        -0.5000 
     75 CA          0.5642  -26.1217  -46.9178 C.3       13 UNK         0.1400 
     76 CB          1.8756  -25.3377  -47.1044 C.3       13 UNK        -0.1800 
     77 C          -0.2965  -26.1527  -48.2018 C.2       13 UNK         0.5000 
     78 O           0.1292  -25.6593  -49.2482 O.2       13 UNK        -0.5000 
     79 N          -1.4955  -26.7418  -48.0924 N.am      14 UNK        -0.5000 
     80 CA         -2.4827  -26.9878  -49.1458 C.3       14 UNK         0.1400 
     81 CB         -1.9835  -28.1130  -50.0768 C.3       14 UNK        -0.1800 
     82 C          -2.8899  -25.7163  -49.9169 C.2       14 UNK         0.5000 
     83 O          -2.9107  -25.7333  -51.1475 O.2       14 UNK        -0.5000 
     84 N          -3.1850  -24.6309  -49.1852 N.am      15 UNK        -0.5000 
     85 CA         -3.5525  -23.3090  -49.7088 C.3       15 UNK         0.1400 
     86 CB         -4.9364  -23.3588  -50.3892 C.3       15 UNK        -0.1800 
     87 C          -2.4524  -22.7174  -50.6154 C.2       15 UNK         0.5000 
     88 O          -2.7202  -22.3369  -51.7580 O.2       15 UNK        -0.5000 
     89 N          -1.2232  -22.6892  -50.0823 N.am      16 UNK        -0.5000 
     90 CA          0.0223  -22.2713  -50.7270 C.3       16 UNK         0.1400 
     91 CB          0.0111  -20.7512  -50.9893 C.3       16 UNK        -0.1800 
     92 C           0.3366  -23.1131  -51.9795 C.2       16 UNK         0.5000 
     93 O           0.5797  -22.5605  -53.0519 O.2       16 UNK        -0.5000 
     94 N           0.2921  -24.4438  -51.8176 N.am      17 UNK        -0.5000 
     95 CA          0.4822  -25.4670  -52.8516 C.3       17 UNK         0.1400 
     96 CB          1.9524  -25.5006  -53.3180 C.3       17 UNK        -0.1800 
     97 C          -0.5238  -25.3258  -54.0147 C.2       17 UNK         0.5000 
     98 O          -0.1353  -25.3319  -55.1843 O.2       17 UNK        -0.5000 
     99 N          -1.8048  -25.1815  -53.6502 N.am      18 UNK        -0.5000 
    100 CA        -2.9814  -25.0138  -54.5065 C.3       18 UNK         0.1400 
    101 CB        -3.1960  -26.2541  -55.3990 C.3       18 UNK        -0.1800 
    102 C         -3.0165  -23.6922  -55.3033 C.2       18 UNK         0.5000 
    103 O         -3.7965  -23.5822  -56.2512 O.2       18 UNK        -0.5000 
    104 N         -2.2084  -22.6989  -54.9053 N.am      19 UNK        -0.5000 
    105 CA        -2.2131  -21.3578  -55.4938 C.3       19 UNK         0.1400 
    106 CB        -0.9010  -20.6378  -55.1519 C.3       19 UNK        -0.1800 
    107 C         -3.4166  -20.5132  -55.0363 C.2       19 UNK         0.5000 
    108 O         -3.8225  -19.6097  -55.7682 O.2       19 UNK        -0.5000 
    109 N         -3.9523  -20.8166  -53.8421 N.am      20 UNK        -0.5000 
    110 CA        -5.0492  -20.1232  -53.1596 C.3       20 UNK         0.1400 
    111 CB        -6.3772  -20.2910  -53.9263 C.3       20 UNK        -0.1800 
    112 C         -4.6941  -18.6547  -52.8559 C.2       20 UNK         0.5000 
    113 O         -5.4767  -17.7451  -53.1394 O.2       20 UNK        -0.5000 
    114 N         -3.4935  -18.4550  -52.2948 N.am      21 UNK        -0.5000 
    115 CA        -2.8903  -17.1592  -51.9765 C.3       21 UNK         0.1400 
    116 CB        -1.3677  -17.3462  -51.8379 C.3       21 UNK        -0.1800 
    117 C         -3.5154  -16.4862  -50.7351 C.2       21 UNK         0.5000 
    118 O         -2.7970  -16.1415  -49.7957 O.2       21 UNK        -0.5000 
    119 N         -4.8394  -16.3126  -50.7553 N.am      22 UNK        -0.5000 
    120 CA        -5.6271  -15.5645  -49.7679 C.3       22 UNK         0.1400 
    121 C         -5.4068  -14.0322  -49.8918 C.2       22 UNK         0.5000 
    122 N         -5.3706  -13.3081  -48.7824 N.am      22 UNK        -0.7600 
    123 O         -5.3261  -13.4844  -50.9887 O.2       22 UNK        -0.5000 
    124 C124       -7.1352  -15.8868  -49.8901 C.3       23 UNK        -0.0398 
    125 S125       -7.5222  -17.6380  -49.5466 S.3       23 UNK        -0.2404 
    126 C126       -8.3907  -17.5252  -47.9488 C.3       23 UNK        -0.0205 
    127 H127        1.9782  -16.9702  -47.8247 H         1 UNK         0.0600 
    128 H128        1.4419  -16.3258  -49.3844 H         1 UNK         0.0600 
    129 H129        0.4538  -17.5126  -48.5397 H         1 UNK         0.0600 
    130 H130       -1.3273  -16.5770  -47.6614 H         1 UNK         0.3000 
    131 H131       -1.3531  -14.4418  -45.8065 H         1 UNK         0.0600 
    132 H132       -3.5814  -15.8268  -47.3760 H         1 UNK         0.0800 
    133 H133       -3.0048  -16.2693  -45.8085 H         1 UNK         0.0800 
    134 H134       -4.5195  -15.7613  -43.7664 H         1 UNK         0.0800 
    135 H135       -6.0089  -14.8861  -43.9774 H         1 UNK         0.0800 
    136 H136       -6.9318  -15.5745  -46.6943 H         1 UNK         0.1150 
    137 H137       -7.8029  -19.7671  -46.5374 H         1 UNK         0.1150 
    138 H138       -5.1317  -18.0360  -43.6746 H         1 UNK         0.1150 
    139 H139       -5.8872  -20.2887  -43.3505 H         1 UNK         0.0800 
    140 H140       -7.3711  -20.7505  -44.1388 H         1 UNK         0.0800 
    141 H141       -3.5755  -21.4366  -43.8285 H         1 UNK         0.0800 
    142 H142       -3.6173  -20.1797  -45.0410 H         1 UNK         0.0800 
    143 H143       -3.0392  -21.8902  -46.8031 H         1 UNK         0.0600 
    144 H144       -1.2482  -20.7460  -44.9553 H         1 UNK         0.3000 
    145 H145        1.7768  -21.7930  -46.6059 H         1 UNK         0.0600 
    146 H146        0.3686  -19.1012  -46.1851 H         1 UNK         0.0600 
    147 H147        2.0961  -19.3299  -46.4404 H         1 UNK         0.0600 
    148 H148        0.9598  -19.7314  -47.7202 H         1 UNK         0.0600 
    149 H149        1.3890  -20.3086  -44.2165 H         1 UNK         0.3000 
    150 H150        1.2915  -23.0728  -41.9375 H         1 UNK         0.0600 
    151 H151        3.6881  -22.6043  -42.3889 H         1 UNK         0.0600 
    152 H152        3.1413  -21.7189  -40.9732 H         1 UNK         0.0600 
    153 H153        3.3574  -20.8824  -42.5104 H         1 UNK         0.0600 
    154 H154        1.1123  -20.2091  -41.6604 H         1 UNK         0.3000 
    155 H155       -2.4550  -20.0444  -41.6437 H         1 UNK         0.0600 
    156 H156       -1.7773  -20.8076  -39.3626 H         1 UNK         0.0600 
    157 H157       -1.9817  -19.0642  -39.4208 H         1 UNK         0.0600 
    158 H158       -0.3624  -19.7630  -39.4196 H         1 UNK         0.0600 
    159 H159       -0.4337  -18.0660  -41.2391 H         1 UNK         0.3000 
    160 H160       -0.2321  -17.0131  -44.6598 H         1 UNK         0.0600 
    161 H161       -1.3673  -15.7764  -42.0931 H         1 UNK         0.0600 
    162 H162       -2.2538  -15.9850  -43.5934 H         1 UNK         0.0600 
    163 H163       -0.8752  -14.8988  -43.5377 H         1 UNK         0.0600 
    164 H164        1.1434  -15.8337  -42.6563 H         1 UNK         0.3000 
    165 H165        3.3668  -16.7855  -41.5970 H         1 UNK         0.0600 
    166 H166        4.6846  -18.0556  -44.0570 H         1 UNK         0.0600 
    167 H167        5.5562  -17.2984  -42.7248 H         1 UNK         0.0600 
    168 H168        4.5903  -18.7369  -42.4407 H         1 UNK         0.0600 
    169 H169        3.5423  -14.8165  -42.6076 H         1 UNK         0.3000 
    170 H170        2.3811  -13.4922  -44.6413 H         1 UNK         0.0600 
    171 H171        5.4003  -13.2244  -44.2048 H         1 UNK         0.0600 
    172 H172        4.3291  -11.8503  -44.4732 H         1 UNK         0.0600 
    173 H173        4.1149  -12.8677  -43.0630 H         1 UNK         0.0600 
    174 H174        2.5766  -13.5114  -46.8338 H         1 UNK         0.3000 
    175 H175        5.1415  -12.7634  -49.0358 H         1 UNK         0.0600 
    176 H176        3.5997  -15.4046  -49.0481 H         1 UNK         0.0600 
    177 H177        4.2572  -14.6010  -50.4759 H         1 UNK         0.0600 
    178 H178        5.3351  -15.2201  -49.2349 H         1 UNK         0.0600 
    179 H179        2.4224  -13.2167  -49.5867 H         1 UNK         0.3000 
    180 H180        1.2254   -9.9839  -48.6713 H         1 UNK         0.0600 
    181 H181        2.7542   -9.5731  -50.6709 H         1 UNK         0.0600 
    182 H182        1.0621   -9.5844  -51.1087 H         1 UNK         0.0600 
    183 H183        2.0660  -10.9912  -51.4507 H         1 UNK         0.0600 
    184 H184        0.5880  -12.7034  -49.1545 H         1 UNK         0.3000 
    185 H185       -2.8741  -12.0426  -49.8312 H         1 UNK         0.0600 
    186 H186       -2.6154  -13.7925  -51.5327 H         1 UNK         0.0600 
    187 H187       -1.8068  -12.3456  -52.0990 H         1 UNK         0.0600 
    188 H188       -0.8576  -13.6812  -51.4562 H         1 UNK         0.0600 
    189 H189       -1.8006  -14.5251  -49.2933 H         1 UNK         0.3000 
    190 H190       -1.6374  -23.2661  -43.7818 H         1 UNK         0.3000 
    191 H191       -2.8637  -25.7988  -43.9009 H         1 UNK         0.0600 
    192 H192       -0.1720  -24.9816  -42.6879 H         1 UNK         0.0600 
    193 H193       -1.7373  -24.9229  -41.8794 H         1 UNK         0.0600 
    194 H194       -1.0388  -26.4699  -42.3314 H         1 UNK         0.0600 
    195 H195        0.0776  -24.6197  -45.5128 H         1 UNK         0.3000 
    196 H196        0.8306  -27.1559  -46.6912 H         1 UNK         0.0600 
    197 H197        2.4854  -25.3692  -46.2014 H         1 UNK         0.0600 
    198 H198        1.6877  -24.2911  -47.3439 H         1 UNK         0.0600 
    199 H199        2.4736  -25.7585  -47.9136 H         1 UNK         0.0600 
    200 H200       -1.7414  -27.0899  -47.1706 H         1 UNK         0.3000 
    201 H201       -3.3852  -27.3443  -48.6476 H         1 UNK         0.0600 
    202 H202       -2.7451  -28.3842  -50.8089 H         1 UNK         0.0600 
    203 H203       -1.7435  -29.0140  -49.5123 H         1 UNK         0.0600 
    204 H204       -1.0906  -27.8151  -50.6273 H         1 UNK         0.0600 
    205 H205       -3.1279  -24.6982  -48.1720 H         1 UNK         0.3000 
    206 H206       -3.6380  -22.6451  -48.8499 H         1 UNK         0.0600 
    207 H207       -5.6830  -23.8012  -49.7298 H         1 UNK         0.0600 
    208 H208       -4.9187  -23.9388  -51.3126 H         1 UNK         0.0600 
    209 H209       -5.2818  -22.3562  -50.6384 H         1 UNK         0.0600 
    210 H210       -1.1052  -23.0019  -49.1217 H         1 UNK         0.3000 
    211 H211        0.8212  -22.4763  -50.0127 H         1 UNK         0.0600 
    212 H212       -0.1551  -20.1966  -50.0658 H         1 UNK         0.0600 
    213 H213        0.9638  -20.4173  -51.4016 H         1 UNK         0.0600 
    214 H214       -0.7687  -20.4668  -51.6949 H         1 UNK         0.0600 
    215 H215        0.0969  -24.8047  -50.8846 H         1 UNK         0.3000 
    216 H216        0.2664  -26.4244  -52.3753 H         1 UNK         0.0600 
    217 H217        2.1248  -26.3302  -54.0045 H         1 UNK         0.0600 
    218 H218        2.2356  -24.5836  -53.8356 H         1 UNK         0.0600 
    219 H219        2.6295  -25.6323  -52.4740 H         1 UNK         0.0600 
    220 H220       -2.0255  -25.2195  -52.6559 H         1 UNK         0.3000 
    221 H221       -3.8280  -24.9594  -53.8205 H         1 UNK         0.0600 
    222 H222       -2.4271  -26.3392  -56.1672 H         1 UNK         0.0600 
    223 H223       -3.1855  -27.1704  -54.8088 H         1 UNK         0.0600 
    224 H224       -4.1599  -26.2099  -55.9071 H         1 UNK         0.0600 
    225 H225       -1.5938  -22.8530  -54.1160 H         1 UNK         0.3000 
    226 H226       -2.2682  -21.4557  -56.5801 H         1 UNK         0.0600 
    227 H227       -0.0361  -21.2133  -55.4823 H         1 UNK         0.0600 
    228 H228       -0.8511  -19.6643  -55.6411 H         1 UNK         0.0600 
    229 H229       -0.8034  -20.4688  -54.0798 H         1 UNK         0.0600 
    230 H230       -3.4996  -21.5442  -53.2928 H         1 UNK         0.3000 
    231 H231       -5.1672  -20.6111  -52.1924 H         1 UNK         0.0600 
    232 H232       -7.2095  -19.8764  -53.3563 H         1 UNK         0.0600 
    233 H233       -6.5977  -21.3434  -54.1044 H         1 UNK         0.0600 
    234 H234       -6.3588  -19.7840  -54.8913 H         1 UNK         0.0600 
    235 H235       -2.9322  -19.2675  -52.0862 H         1 UNK         0.3000 
    236 H236       -3.0628  -16.4872  -52.8197 H         1 UNK         0.0600 
    237 H237       -0.9397  -17.7968  -52.7336 H         1 UNK         0.0600 
    238 H238       -0.8679  -16.3884  -51.6877 H         1 UNK         0.0600 
    239 H239       -1.1171  -17.9817  -50.9881 H         1 UNK         0.0600 
    240 H240       -5.3402  -16.6426  -51.5746 H         1 UNK         0.3000 
    241 H241       -5.3020  -15.8779  -48.7767 H         1 UNK         0.0600 
    242 H242       -5.2652  -12.3093  -48.8610 H         1 UNK         0.3800 
    243 H243       -5.4223  -13.7243  -47.8648 H         1 UNK         0.3800 
    244 H244       -7.7157  -15.2517  -49.2193 H         1 UNK         0.0800 
    245 H245       -7.4901  -15.6554  -50.8961 H         1 UNK         0.0800 
    246 H246       -9.1355  -18.3217  -47.9120 H         1 UNK         0.0800 
    247 H247       -8.9568  -16.5957  -47.8772 H         1 UNK         0.0800 
@<TRIPOS>BOND
     1    1    2 1    
     2    1  127 1    
     3    1  128 1    
     4    1  129 1    
     5    2    3 2    
     6    2    4 am   BACKBONE|DICT|INTERRES
     7    4    5 1    
     8    4  130 1    
     9    5    6 1    
    10    5   65 1    
    11    5  131 1    
    12    6    7 1    
    13    6  132 1    
    14    6  133 1    
    15    7    8 1    
    16    8    9 1    
    17    8  134 1    
    18    8  135 1    
    19    9   10 ar   
    20    9   14 ar   
    21   10   11 ar   
    22   10  136 1    
    23   11   12 ar   
    24   11  126 1    
    25   12   13 ar   
    26   12  137 1    
    27   13   14 ar   
    28   13   15 1    
    29   14  138 1    
    30   15   16 1    
    31   15  139 1    
    32   15  140 1    
    33   16   17 1    
    34   17   18 1    
    35   17  141 1    
    36   17  142 1    
    37   18   19 1    
    38   18   67 1    
    39   18  143 1    
    40   19   20 am   BACKBONE|DICT|INTERRES
    41   19  144 1    
    42   20   21 2    
    43   20   22 1    
    44   22   23 1    
    45   22   24 1    
    46   22  145 1    
    47   23  146 1    
    48   23  147 1    
    49   23  148 1    
    50   24   25 am   BACKBONE|DICT|INTERRES
    51   24  149 1    
    52   25   26 2    
    53   25   27 1    
    54   27   28 1    
    55   27   29 1    
    56   27  150 1    
    57   28  151 1    
    58   28  152 1    
    59   28  153 1    
    60   29   30 am   BACKBONE|DICT|INTERRES
    61   29  154 1    
    62   30   31 2    
    63   30   32 1    
    64   32   33 1    
    65   32   34 1    
    66   32  155 1    
    67   33  156 1    
    68   33  157 1    
    69   33  158 1    
    70   34   35 am   BACKBONE|DICT|INTERRES
    71   34  159 1    
    72   35   36 2    
    73   35   37 1    
    74   37   38 1    
    75   37   39 1    
    76   37  160 1    
    77   38  161 1    
    78   38  162 1    
    79   38  163 1    
    80   39   40 am   BACKBONE|DICT|INTERRES
    81   39  164 1    
    82   40   41 2    
    83   40   42 1    
    84   42   43 1    
    85   42   44 1    
    86   42  165 1    
    87   43  166 1    
    88   43  167 1    
    89   43  168 1    
    90   44   45 am   BACKBONE|DICT|INTERRES
    91   44  169 1    
    92   45   46 2    
    93   45   47 1    
    94   47   48 1    
    95   47   49 1    
    96   47  170 1    
    97   48  171 1    
    98   48  172 1    
    99   48  173 1    
   100   49   50 am   BACKBONE|DICT|INTERRES
   101   49  174 1    
   102   50   51 2    
   103   50   52 1    
   104   52   53 1    
   105   52   54 1    
   106   52  175 1    
   107   53  176 1    
   108   53  177 1    
   109   53  178 1    
   110   54   55 am   BACKBONE|DICT|INTERRES
   111   54  179 1    
   112   55   56 2    
   113   55   57 1    
   114   57   58 1    
   115   57   59 1    
   116   57  180 1    
   117   58  181 1    
   118   58  182 1    
   119   58  183 1    
   120   59   60 am   BACKBONE|DICT|INTERRES
   121   59  184 1    
   122   60   61 2    
   123   60   62 1    
   124   62   63 1    
   125   62   64 1    
   126   62  185 1    
   127   63  186 1    
   128   63  187 1    
   129   63  188 1    
   130   64   65 am   BACKBONE|DICT|INTERRES
   131   64  189 1    
   132   65   66 2    
   133   67   68 2    
   134   67   69 am   BACKBONE|DICT|INTERRES
   135   69   70 1    
   136   69  190 1    
   137   70   71 1    
   138   70   72 1    
   139   70  191 1    
   140   71  192 1    
   141   71  193 1    
   142   71  194 1    
   143   72   73 2    
   144   72   74 am   BACKBONE|DICT|INTERRES
   145   74   75 1    
   146   74  195 1    
   147   75   76 1    
   148   75   77 1    
   149   75  196 1    
   150   76  197 1    
   151   76  198 1    
   152   76  199 1    
   153   77   78 2    
   154   77   79 am   BACKBONE|DICT|INTERRES
   155   79   80 1    
   156   79  200 1    
   157   80   81 1    
   158   80   82 1    
   159   80  201 1    
   160   81  202 1    
   161   81  203 1    
   162   81  204 1    
   163   82   83 2    
   164   82   84 am   BACKBONE|DICT|INTERRES
   165   84   85 1    
   166   84  205 1    
   167   85   86 1    
   168   85   87 1    
   169   85  206 1    
   170   86  207 1    
   171   86  208 1    
   172   86  209 1    
   173   87   88 2    
   174   87   89 am   BACKBONE|DICT|INTERRES
   175   89   90 1    
   176   89  210 1    
   177   90   91 1    
   178   90   92 1    
   179   90  211 1    
   180   91  212 1    
   181   91  213 1    
   182   91  214 1    
   183   92   93 2    
   184   92   94 am   BACKBONE|DICT|INTERRES
   185   94   95 1    
   186   94  215 1    
   187   95   96 1    
   188   95   97 1    
   189   95  216 1    
   190   96  217 1    
   191   96  218 1    
   192   96  219 1    
   193   97   98 2    
   194   97   99 am   BACKBONE|DICT|INTERRES
   195   99  100 1    
   196   99  220 1    
   197  100  101 1    
   198  100  102 1    
   199  100  221 1    
   200  101  222 1    
   201  101  223 1    
   202  101  224 1    
   203  102  103 2    
   204  102  104 am   BACKBONE|DICT|INTERRES
   205  104  105 1    
   206  104  225 1    
   207  105  106 1    
   208  105  107 1    
   209  105  226 1    
   210  106  227 1    
   211  106  228 1    
   212  106  229 1    
   213  107  108 2    
   214  107  109 am   BACKBONE|DICT|INTERRES
   215  109  110 1    
   216  109  230 1    
   217  110  111 1    
   218  110  112 1    
   219  110  231 1    
   220  111  232 1    
   221  111  233 1    
   222  111  234 1    
   223  112  113 2    
   224  112  114 am   BACKBONE|DICT|INTERRES
   225  114  115 1    
   226  114  235 1    
   227  115  116 1    
   228  115  117 1    
   229  115  236 1    
   230  116  237 1    
   231  116  238 1    
   232  116  239 1    
   233  117  118 2    
   234  117  119 am   BACKBONE|DICT|INTERRES
   235  119  120 1    
   236  119  240 1    
   237  120  121 1    
   238  120  124 1    
   239  120  241 1    
   240  121  122 am   BACKBONE|DICT|INTERRES
   241  121  123 2    
   242  122  242 1    
   243  122  243 1    
   244  124  125 1    
   245  124  244 1    
   246  124  245 1    
   247  125  126 1    
   248  126  246 1    
   249  126  247 1    
@<TRIPOS>SUBSTRUCTURE
     1 UNK         1 GROUP             0       ****    0 ROOT    
