@<TRIPOS>MOLECULE
3R540
247   249    1
SMALL
USER_CHARGES


@<TRIPOS>ATOM
      1 CA         -3.0897  -15.6285  -44.8235 C.3       0 UNK        -0.1800 
      2 C          -2.0651  -14.6285  -45.3384 C.2       0 UNK         0.5000 
      3 O          -1.5682  -13.8239  -44.5502 O.2       0 UNK        -0.5000 
      4 N          -1.7730  -14.6586  -46.6459 N.am      1 UNK        -0.5000 
      5 CA         -0.8517  -13.7231  -47.3106 C.3       1 UNK         0.1400 
      6 C6         -1.5610  -12.6665  -48.2150 C.3       23 UNK        -0.0398 
      7 S7         -3.2083  -12.1041  -47.6413 S.3       23 UNK        -0.2404 
      8 C8         -4.3194  -12.6417  -48.9922 C.3       23 UNK        -0.0205 
      9 C9         -4.0753  -14.0786  -49.4391 C.ar      23 UNK        -0.0193 
     10 C10        -3.5369  -14.3362  -50.7046 C.ar      23 UNK        -0.1150 
     11 C11        -3.2455  -15.6440  -51.1007 C.ar      23 UNK        -0.0193 
     12 C12        -3.5134  -16.7004  -50.2300 C.ar      23 UNK        -0.1150 
     13 C13        -4.0577  -16.4572  -48.9675 C.ar      23 UNK        -0.0193 
     14 C14        -4.3531  -15.1466  -48.5811 C.ar      23 UNK        -0.1150 
     15 C15        -4.2749  -17.6161  -48.0151 C.3       23 UNK        -0.0205 
     16 S16        -2.6804  -18.1606  -47.3359 S.3       23 UNK        -0.2404 
     17 C17        -3.1664  -19.6602  -46.4233 C.3       23 UNK        -0.0398 
     18 CA         -2.4360  -20.9319  -46.9239 C.3       11 UNK         0.1400 
     19 N          -0.9807  -20.7478  -46.9459 N.am      11 UNK        -0.5000 
     20 C          -0.0451  -21.6646  -47.2313 C.2       10 UNK         0.5000 
     21 O          -0.3039  -22.8127  -47.5888 O.2       10 UNK        -0.5000 
     22 CA          1.4264  -21.2502  -47.0285 C.3       10 UNK         0.1400 
     23 CB          2.1310  -21.0584  -48.3790 C.3       10 UNK        -0.1800 
     24 N           1.5825  -20.0319  -46.2300 N.am      10 UNK        -0.5000 
     25 C           1.2664  -19.9024  -44.9362 C.2       9 UNK         0.5000 
     26 O           0.8279  -20.8220  -44.2397 O.2       9 UNK        -0.5000 
     27 CA          1.3624  -18.4722  -44.3780 C.3       9 UNK         0.1400 
     28 CB          0.0711  -17.7087  -44.7099 C.3       9 UNK        -0.1800 
     29 N           1.5885  -18.4255  -42.9345 N.am      9 UNK        -0.5000 
     30 C           2.6896  -18.8787  -42.3161 C.2       8 UNK         0.5000 
     31 O           3.6247  -19.4238  -42.9045 O.2       8 UNK        -0.5000 
     32 CA          2.8020  -18.6601  -40.7943 C.3       8 UNK         0.1400 
     33 CB          3.8837  -17.6136  -40.4801 C.3       8 UNK        -0.1800 
     34 N           1.5434  -18.2364  -40.1814 N.am      8 UNK        -0.5000 
     35 C           0.5600  -19.0730  -39.8229 C.2       7 UNK         0.5000 
     36 O           0.6386  -20.2978  -39.9231 O.2       7 UNK        -0.5000 
     37 CA         -0.7320  -18.4476  -39.2589 C.3       7 UNK         0.1400 
     38 CB         -0.7675  -18.5779  -37.7282 C.3       7 UNK        -0.1800 
     39 N          -0.9316  -17.0402  -39.6163 N.am      7 UNK        -0.5000 
     40 C          -1.1306  -16.5784  -40.8581 C.2       6 UNK         0.5000 
     41 O          -1.1276  -17.3020  -41.8528 O.2       6 UNK        -0.5000 
     42 CA         -1.3833  -15.0657  -41.0261 C.3       6 UNK         0.1400 
     43 CB         -1.3696  -14.2702  -39.7009 C.3       6 UNK        -0.1800 
     44 N          -0.4764  -14.4384  -41.9899 N.am      6 UNK        -0.5000 
     45 C           0.8617  -14.4176  -41.9629 C.2       5 UNK         0.5000 
     46 O           1.5525  -15.0437  -41.1549 O.2       5 UNK        -0.5000 
     47 CA          1.5289  -13.4512  -42.9569 C.3       5 UNK         0.1400 
     48 CB          1.8331  -12.1134  -42.2644 C.3       5 UNK        -0.1800 
     49 N           2.7742  -13.9937  -43.4921 N.am      5 UNK        -0.5000 
     50 C           2.8428  -14.7548  -44.5881 C.2       4 UNK         0.5000 
     51 O           1.8587  -15.0794  -45.2554 O.2       4 UNK        -0.5000 
     52 CA          4.2455  -15.2025  -45.0277 C.3       4 UNK         0.1400 
     53 CB          4.9053  -16.1377  -43.9986 C.3       4 UNK        -0.1800 
     54 N           4.1335  -15.8776  -46.3148 N.am      4 UNK        -0.5000 
     55 C           5.0975  -16.0416  -47.2224 C.2       3 UNK         0.5000 
     56 O           6.2535  -15.6489  -47.0585 O.2       3 UNK        -0.5000 
     57 CA          4.7245  -16.7399  -48.5487 C.3       3 UNK         0.1400 
     58 CB          5.0362  -18.2482  -48.4803 C.3       3 UNK        -0.1800 
     59 N           3.3532  -16.4987  -49.0283 N.am      3 UNK        -0.5000 
     60 C           2.1977  -16.9312  -48.5079 C.2       2 UNK         0.5000 
     61 O           2.1159  -17.6057  -47.4815 O.2       2 UNK        -0.5000 
     62 CA          0.9131  -16.5567  -49.2614 C.3       2 UNK         0.1400 
     63 CB          0.1764  -17.8192  -49.7309 C.3       2 UNK        -0.1800 
     64 N           0.0243  -15.7597  -48.4189 N.am      2 UNK        -0.5000 
     65 C           0.2251  -14.4640  -48.1321 C.2       1 UNK         0.5000 
     66 O           1.2042  -13.8313  -48.5324 O.2       1 UNK        -0.5000 
     67 C          -2.8687  -22.1357  -46.0615 C.2       11 UNK         0.5000 
     68 O          -3.7696  -22.8747  -46.4566 O.2       11 UNK        -0.5000 
     69 N          -2.1955  -22.3232  -44.9162 N.am      12 UNK        -0.5000 
     70 CA         -2.4390  -23.4162  -43.9752 C.3       12 UNK         0.1400 
     71 CB         -1.7010  -23.1138  -42.6621 C.3       12 UNK        -0.1800 
     72 C          -2.0266  -24.7959  -44.5231 C.2       12 UNK         0.5000 
     73 O          -2.6383  -25.7983  -44.1527 O.2       12 UNK        -0.5000 
     74 N          -1.0078  -24.8240  -45.3926 N.am      13 UNK        -0.5000 
     75 CA         -0.5407  -26.0294  -46.0745 C.3       13 UNK         0.1400 
     76 CB          0.9499  -25.8779  -46.4176 C.3       13 UNK        -0.1800 
     77 C          -1.3688  -26.3118  -47.3391 C.2       13 UNK         0.5000 
     78 O          -1.6924  -27.4698  -47.6052 O.2       13 UNK        -0.5000 
     79 N          -1.6947  -25.2510  -48.0912 N.am      14 UNK        -0.5000 
     80 CA         -2.4764  -25.3080  -49.3253 C.3       14 UNK         0.1400 
     81 CB         -2.3941  -23.9518  -50.0430 C.3       14 UNK        -0.1800 
     82 C          -3.9428  -25.7111  -49.0918 C.2       14 UNK         0.5000 
     83 O          -4.4651  -26.5314  -49.8463 O.2       14 UNK        -0.5000 
     84 N          -4.5624  -25.1410  -48.0468 N.am      15 UNK        -0.5000 
     85 CA         -5.9701  -25.2767  -47.6693 C.3       15 UNK         0.1400 
     86 CB         -6.2965  -26.7218  -47.2286 C.3       15 UNK        -0.1800 
     87 C          -6.8936  -24.7160  -48.7704 C.2       15 UNK         0.5000 
     88 O          -6.9402  -23.4976  -48.9470 O.2       15 UNK        -0.5000 
     89 N          -7.6118  -25.5906  -49.4859 N.am      16 UNK        -0.5000 
     90 CA         -8.4561  -25.2324  -50.6252 C.3       16 UNK         0.1400 
     91 CB         -9.3155  -26.4455  -51.0131 C.3       16 UNK        -0.1800 
     92 C          -7.6174  -24.7544  -51.8268 C.2       16 UNK         0.5000 
     93 O          -6.5681  -25.3365  -52.1078 O.2       16 UNK        -0.5000 
     94 N          -8.1151  -23.7216  -52.5224 N.am      17 UNK        -0.5000 
     95 CA         -7.5057  -23.0777  -53.6940 C.3       17 UNK         0.1400 
     96 CB         -7.4871  -24.0353  -54.9043 C.3       17 UNK        -0.1800 
     97 C          -6.1235  -22.4562  -53.3945 C.2       17 UNK         0.5000 
     98 O          -5.2086  -22.5441  -54.2162 O.2       17 UNK        -0.5000 
     99 N          -6.0050  -21.8043  -52.2267 N.am      18 UNK        -0.5000 
    100 CA        -4.7808  -21.1692  -51.7217 C.3       18 UNK         0.1400 
    101 CB        -5.0020  -20.6939  -50.2800 C.3       18 UNK        -0.1800 
    102 C         -4.2214  -20.0262  -52.5938 C.2       18 UNK         0.5000 
    103 O         -3.0680  -19.6441  -52.4063 O.2       18 UNK        -0.5000 
    104 N         -4.9983  -19.5452  -53.5757 N.am      19 UNK        -0.5000 
    105 CA        -4.5478  -18.6647  -54.6589 C.3       19 UNK         0.1400 
    106 CB        -5.7243  -18.3939  -55.6073 C.3       19 UNK        -0.1800 
    107 C         -3.3440  -19.2309  -55.4434 C.2       19 UNK         0.5000 
    108 O         -2.4820  -18.4640  -55.8757 O.2       19 UNK        -0.5000 
    109 N         -3.2714  -20.5662  -55.5533 N.am      20 UNK        -0.5000 
    110 CA        -2.1596  -21.3021  -56.1550 C.3       20 UNK         0.1400 
    111 CB        -2.5735  -22.7713  -56.3292 C.3       20 UNK        -0.1800 
    112 C         -0.8402  -21.2067  -55.3606 C.2       20 UNK         0.5000 
    113 O          0.2196  -21.4340  -55.9451 O.2       20 UNK        -0.5000 
    114 N         -0.9091  -20.8730  -54.0616 N.am      21 UNK        -0.5000 
    115 CA         0.2656  -20.6483  -53.2171 C.3       21 UNK         0.1400 
    116 CB        -0.1088  -20.8341  -51.7386 C.3       21 UNK        -0.1800 
    117 C          0.8994  -19.2663  -53.4680 C.2       21 UNK         0.5000 
    118 O          2.1149  -19.1314  -53.3231 O.2       21 UNK        -0.5000 
    119 N          0.0837  -18.2803  -53.8686 N.am      22 UNK        -0.5000 
    120 CA         0.5577  -16.9925  -54.4003 C.3       22 UNK         0.1400 
    121 C          0.9843  -17.1154  -55.8879 C.2       22 UNK         0.5000 
    122 N          0.1808  -17.7445  -56.7378 N.am      22 UNK        -0.7600 
    123 O          2.0480  -16.6384  -56.2732 O.2       22 UNK        -0.5000 
    124 C124       -0.4781  -15.8525  -54.2405 C.3       23 UNK        -0.0398 
    125 S125       -0.8693  -15.4787  -52.4999 S.3       23 UNK        -0.2404 
    126 C126       -2.6316  -15.9159  -52.4622 C.3       23 UNK        -0.0205 
    127 H127       -3.6990  -15.1754  -44.0416 H         1 UNK         0.0600 
    128 H128       -2.5907  -16.5002  -44.4016 H         1 UNK         0.0600 
    129 H129       -3.7595  -15.9594  -45.6143 H         1 UNK         0.0600 
    130 H130       -2.2647  -15.3004  -47.2511 H         1 UNK         0.3000 
    131 H131       -0.2942  -13.1735  -46.5492 H         1 UNK         0.0600 
    132 H132       -0.9256  -11.7827  -48.2889 H         1 UNK         0.0800 
    133 H133       -1.6493  -13.0220  -49.2414 H         1 UNK         0.0800 
    134 H134       -5.3535  -12.5406  -48.6604 H         1 UNK         0.0800 
    135 H135       -4.2018  -11.9555  -49.8323 H         1 UNK         0.0800 
    136 H136       -3.3148  -13.5173  -51.3745 H         1 UNK         0.1150 
    137 H137       -3.2739  -17.7133  -50.5224 H         1 UNK         0.1150 
    138 H138       -4.7654  -14.9486  -47.6018 H         1 UNK         0.1150 
    139 H139       -4.9459  -17.3337  -47.2027 H         1 UNK         0.0800 
    140 H140       -4.7584  -18.4365  -48.5430 H         1 UNK         0.0800 
    141 H141       -4.2477  -19.7934  -46.4931 H         1 UNK         0.0800 
    142 H142       -2.9520  -19.4802  -45.3680 H         1 UNK         0.0800 
    143 H143       -2.7485  -21.1314  -47.9503 H         1 UNK         0.0600 
    144 H144       -0.6604  -19.8272  -46.6865 H         1 UNK         0.3000 
    145 H145        1.9191  -22.0671  -46.4977 H         1 UNK         0.0600 
    146 H146        3.1987  -20.8863  -48.2438 H         1 UNK         0.0600 
    147 H147        2.0225  -21.9423  -49.0091 H         1 UNK         0.0600 
    148 H148        1.7240  -20.2097  -48.9273 H         1 UNK         0.0600 
    149 H149        1.8791  -19.1955  -46.7337 H         1 UNK         0.3000 
    150 H150        2.2029  -17.9639  -44.8534 H         1 UNK         0.0600 
    151 H151       -0.0344  -17.5636  -45.7851 H         1 UNK         0.0600 
    152 H152        0.0643  -16.7194  -44.2532 H         1 UNK         0.0600 
    153 H153       -0.8130  -18.2427  -44.3603 H         1 UNK         0.0600 
    154 H154        0.8400  -18.0293  -42.3790 H         1 UNK         0.3000 
    155 H155        3.1143  -19.6078  -40.3505 H         1 UNK         0.0600 
    156 H156        3.6527  -16.6475  -40.9288 H         1 UNK         0.0600 
    157 H157        4.8547  -17.9271  -40.8657 H         1 UNK         0.0600 
    158 H158        3.9935  -17.4680  -39.4054 H         1 UNK         0.0600 
    159 H159        1.3936  -17.2388  -40.0996 H         1 UNK         0.3000 
    160 H160       -1.5694  -19.0159  -39.6692 H         1 UNK         0.0600 
    161 H161        0.0351  -18.0084  -37.2580 H         1 UNK         0.0600 
    162 H162       -0.6550  -19.6186  -37.4209 H         1 UNK         0.0600 
    163 H163       -1.7152  -18.2227  -37.3229 H         1 UNK         0.0600 
    164 H164       -0.9331  -16.3791  -38.8533 H         1 UNK         0.3000 
    165 H165       -2.3836  -14.9776  -41.4522 H         1 UNK         0.0600 
    166 H166       -1.6021  -13.2199  -39.8778 H         1 UNK         0.0600 
    167 H167       -2.1192  -14.6456  -39.0030 H         1 UNK         0.0600 
    168 H168       -0.3977  -14.3110  -39.2075 H         1 UNK         0.0600 
    169 H169       -0.9337  -13.9854  -42.7783 H         1 UNK         0.3000 
    170 H170        0.8416  -13.2494  -43.7801 H         1 UNK         0.0600 
    171 H171        0.9213  -11.6618  -41.8712 H         1 UNK         0.0600 
    172 H172        2.5235  -12.2389  -41.4291 H         1 UNK         0.0600 
    173 H173        2.2737  -11.3997  -42.9608 H         1 UNK         0.0600 
    174 H174        3.6113  -13.8037  -42.9612 H         1 UNK         0.3000 
    175 H175        4.8556  -14.3051  -45.1482 H         1 UNK         0.0600 
    176 H176        4.3465  -17.0656  -43.8961 H         1 UNK         0.0600 
    177 H177        5.9224  -16.3955  -44.2933 H         1 UNK         0.0600 
    178 H178        4.9640  -15.6753  -43.0130 H         1 UNK         0.0600 
    179 H179        3.1973  -16.2085  -46.5335 H         1 UNK         0.3000 
    180 H180        5.3746  -16.3103  -49.3124 H         1 UNK         0.0600 
    181 H181        4.7988  -18.7455  -49.4207 H         1 UNK         0.0600 
    182 H182        4.4783  -18.7449  -47.6862 H         1 UNK         0.0600 
    183 H183        6.0954  -18.4154  -48.2816 H         1 UNK         0.0600 
    184 H184        3.2986  -15.9093  -49.8473 H         1 UNK         0.3000 
    185 H185        1.1707  -15.9718  -50.1469 H         1 UNK         0.0600 
    186 H186       -0.7327  -17.5710  -50.2770 H         1 UNK         0.0600 
    187 H187        0.8093  -18.3971  -50.4039 H         1 UNK         0.0600 
    188 H188       -0.0994  -18.4664  -48.8981 H         1 UNK         0.0600 
    189 H189       -0.7633  -16.2433  -48.0172 H         1 UNK         0.3000 
    190 H190       -1.4410  -21.6903  -44.6838 H         1 UNK         0.3000 
    191 H191       -3.5103  -23.4514  -43.7655 H         1 UNK         0.0600 
    192 H192       -1.8753  -23.8986  -41.9249 H         1 UNK         0.0600 
    193 H193       -2.0420  -22.1754  -42.2241 H         1 UNK         0.0600 
    194 H194       -0.6233  -23.0386  -42.8146 H         1 UNK         0.0600 
    195 H195       -0.5963  -23.9495  -45.6884 H         1 UNK         0.3000 
    196 H196       -0.6435  -26.8862  -45.4049 H         1 UNK         0.0600 
    197 H197        1.1302  -25.0430  -47.0954 H         1 UNK         0.0600 
    198 H198        1.5457  -25.7145  -45.5195 H         1 UNK         0.0600 
    199 H199        1.3305  -26.7787  -46.9006 H         1 UNK         0.0600 
    200 H200       -1.3270  -24.3397  -47.8293 H         1 UNK         0.3000 
    201 H201       -2.0221  -26.0605  -49.9733 H         1 UNK         0.0600 
    202 H202       -2.8343  -23.1513  -49.4475 H         1 UNK         0.0600 
    203 H203       -2.9232  -23.9858  -50.9960 H         1 UNK         0.0600 
    204 H204       -1.3593  -23.6822  -50.2529 H         1 UNK         0.0600 
    205 H205       -4.0549  -24.4404  -47.5129 H         1 UNK         0.3000 
    206 H206       -6.1122  -24.6338  -46.7994 H         1 UNK         0.0600 
    207 H207       -5.6647  -27.0214  -46.3922 H         1 UNK         0.0600 
    208 H208       -7.3314  -26.8032  -46.8940 H         1 UNK         0.0600 
    209 H209       -6.1488  -27.4495  -48.0266 H         1 UNK         0.0600 
    210 H210       -7.4673  -26.5759  -49.3225 H         1 UNK         0.3000 
    211 H211       -9.1214  -24.4246  -50.3128 H         1 UNK         0.0600 
    212 H212       -9.9762  -26.2052  -51.8470 H         1 UNK         0.0600 
    213 H213       -9.9446  -26.7660  -50.1825 H         1 UNK         0.0600 
    214 H214       -8.7001  -27.2937  -51.3161 H         1 UNK         0.0600 
    215 H215       -8.9886  -23.3170  -52.2143 H         1 UNK         0.3000 
    216 H216       -8.1571  -22.2422  -53.9542 H         1 UNK         0.0600 
    217 H217       -6.8051  -24.8721  -54.7509 H         1 UNK         0.0600 
    218 H218       -7.1657  -23.5161  -55.8081 H         1 UNK         0.0600 
    219 H219       -8.4789  -24.4424  -55.1008 H         1 UNK         0.0600 
    220 H220       -6.8012  -21.7916  -51.6055 H         1 UNK         0.3000 
    221 H221       -4.0079  -21.9391  -51.7019 H         1 UNK         0.0600 
    222 H222       -5.2599  -21.5248  -49.6240 H         1 UNK         0.0600 
    223 H223       -5.7989  -19.9521  -50.2191 H         1 UNK         0.0600 
    224 H224       -4.0933  -20.2427  -49.8797 H         1 UNK         0.0600 
    225 H225       -5.9343  -19.9127  -53.6550 H         1 UNK         0.3000 
    226 H226       -4.2445  -17.7155  -54.2181 H         1 UNK         0.0600 
    227 H227       -6.0960  -19.3138  -56.0608 H         1 UNK         0.0600 
    228 H228       -6.5531  -17.9184  -55.0825 H         1 UNK         0.0600 
    229 H229       -5.4273  -17.7252  -56.4164 H         1 UNK         0.0600 
    230 H230       -4.0081  -21.1314  -55.1429 H         1 UNK         0.3000 
    231 H231       -1.9756  -20.8793  -57.1448 H         1 UNK         0.0600 
    232 H232       -2.7643  -23.2505  -55.3681 H         1 UNK         0.0600 
    233 H233       -1.7911  -23.3420  -56.8312 H         1 UNK         0.0600 
    234 H234       -3.4775  -22.8590  -56.9321 H         1 UNK         0.0600 
    235 H235       -1.8081  -20.6610  -53.6443 H         1 UNK         0.3000 
    236 H236        1.0150  -21.4046  -53.4608 H         1 UNK         0.0600 
    237 H237       -0.7713  -20.0467  -51.3815 H         1 UNK         0.0600 
    238 H238       -0.6038  -21.7901  -51.5724 H         1 UNK         0.0600 
    239 H239        0.7832  -20.8176  -51.1129 H         1 UNK         0.0600 
    240 H240       -0.8995  -18.4796  -53.9793 H         1 UNK         0.3000 
    241 H241        1.4457  -16.6961  -53.8378 H         1 UNK         0.0600 
    242 H242        0.4532  -17.8317  -57.7038 H         1 UNK         0.3800 
    243 H243       -0.7310  -18.0821  -56.4404 H         1 UNK         0.3800 
    244 H244       -0.0952  -14.9315  -54.6839 H         1 UNK         0.0800 
    245 H245       -1.3926  -16.0888  -54.7871 H         1 UNK         0.0800 
    246 H246       -3.1717  -15.3539  -53.2255 H         1 UNK         0.0800 
    247 H247       -2.7267  -16.9716  -52.7139 H         1 UNK         0.0800 
@<TRIPOS>BOND
     1    1    2 1    
     2    1  127 1    
     3    1  128 1    
     4    1  129 1    
     5    2    3 2    
     6    2    4 am   BACKBONE|DICT|INTERRES
     7    4    5 1    
     8    4  130 1    
     9    5    6 1    
    10    5   65 1    
    11    5  131 1    
    12    6    7 1    
    13    6  132 1    
    14    6  133 1    
    15    7    8 1    
    16    8    9 1    
    17    8  134 1    
    18    8  135 1    
    19    9   10 ar   
    20    9   14 ar   
    21   10   11 ar   
    22   10  136 1    
    23   11   12 ar   
    24   11  126 1    
    25   12   13 ar   
    26   12  137 1    
    27   13   14 ar   
    28   13   15 1    
    29   14  138 1    
    30   15   16 1    
    31   15  139 1    
    32   15  140 1    
    33   16   17 1    
    34   17   18 1    
    35   17  141 1    
    36   17  142 1    
    37   18   19 1    
    38   18   67 1    
    39   18  143 1    
    40   19   20 am   BACKBONE|DICT|INTERRES
    41   19  144 1    
    42   20   21 2    
    43   20   22 1    
    44   22   23 1    
    45   22   24 1    
    46   22  145 1    
    47   23  146 1    
    48   23  147 1    
    49   23  148 1    
    50   24   25 am   BACKBONE|DICT|INTERRES
    51   24  149 1    
    52   25   26 2    
    53   25   27 1    
    54   27   28 1    
    55   27   29 1    
    56   27  150 1    
    57   28  151 1    
    58   28  152 1    
    59   28  153 1    
    60   29   30 am   BACKBONE|DICT|INTERRES
    61   29  154 1    
    62   30   31 2    
    63   30   32 1    
    64   32   33 1    
    65   32   34 1    
    66   32  155 1    
    67   33  156 1    
    68   33  157 1    
    69   33  158 1    
    70   34   35 am   BACKBONE|DICT|INTERRES
    71   34  159 1    
    72   35   36 2    
    73   35   37 1    
    74   37   38 1    
    75   37   39 1    
    76   37  160 1    
    77   38  161 1    
    78   38  162 1    
    79   38  163 1    
    80   39   40 am   BACKBONE|DICT|INTERRES
    81   39  164 1    
    82   40   41 2    
    83   40   42 1    
    84   42   43 1    
    85   42   44 1    
    86   42  165 1    
    87   43  166 1    
    88   43  167 1    
    89   43  168 1    
    90   44   45 am   BACKBONE|DICT|INTERRES
    91   44  169 1    
    92   45   46 2    
    93   45   47 1    
    94   47   48 1    
    95   47   49 1    
    96   47  170 1    
    97   48  171 1    
    98   48  172 1    
    99   48  173 1    
   100   49   50 am   BACKBONE|DICT|INTERRES
   101   49  174 1    
   102   50   51 2    
   103   50   52 1    
   104   52   53 1    
   105   52   54 1    
   106   52  175 1    
   107   53  176 1    
   108   53  177 1    
   109   53  178 1    
   110   54   55 am   BACKBONE|DICT|INTERRES
   111   54  179 1    
   112   55   56 2    
   113   55   57 1    
   114   57   58 1    
   115   57   59 1    
   116   57  180 1    
   117   58  181 1    
   118   58  182 1    
   119   58  183 1    
   120   59   60 am   BACKBONE|DICT|INTERRES
   121   59  184 1    
   122   60   61 2    
   123   60   62 1    
   124   62   63 1    
   125   62   64 1    
   126   62  185 1    
   127   63  186 1    
   128   63  187 1    
   129   63  188 1    
   130   64   65 am   BACKBONE|DICT|INTERRES
   131   64  189 1    
   132   65   66 2    
   133   67   68 2    
   134   67   69 am   BACKBONE|DICT|INTERRES
   135   69   70 1    
   136   69  190 1    
   137   70   71 1    
   138   70   72 1    
   139   70  191 1    
   140   71  192 1    
   141   71  193 1    
   142   71  194 1    
   143   72   73 2    
   144   72   74 am   BACKBONE|DICT|INTERRES
   145   74   75 1    
   146   74  195 1    
   147   75   76 1    
   148   75   77 1    
   149   75  196 1    
   150   76  197 1    
   151   76  198 1    
   152   76  199 1    
   153   77   78 2    
   154   77   79 am   BACKBONE|DICT|INTERRES
   155   79   80 1    
   156   79  200 1    
   157   80   81 1    
   158   80   82 1    
   159   80  201 1    
   160   81  202 1    
   161   81  203 1    
   162   81  204 1    
   163   82   83 2    
   164   82   84 am   BACKBONE|DICT|INTERRES
   165   84   85 1    
   166   84  205 1    
   167   85   86 1    
   168   85   87 1    
   169   85  206 1    
   170   86  207 1    
   171   86  208 1    
   172   86  209 1    
   173   87   88 2    
   174   87   89 am   BACKBONE|DICT|INTERRES
   175   89   90 1    
   176   89  210 1    
   177   90   91 1    
   178   90   92 1    
   179   90  211 1    
   180   91  212 1    
   181   91  213 1    
   182   91  214 1    
   183   92   93 2    
   184   92   94 am   BACKBONE|DICT|INTERRES
   185   94   95 1    
   186   94  215 1    
   187   95   96 1    
   188   95   97 1    
   189   95  216 1    
   190   96  217 1    
   191   96  218 1    
   192   96  219 1    
   193   97   98 2    
   194   97   99 am   BACKBONE|DICT|INTERRES
   195   99  100 1    
   196   99  220 1    
   197  100  101 1    
   198  100  102 1    
   199  100  221 1    
   200  101  222 1    
   201  101  223 1    
   202  101  224 1    
   203  102  103 2    
   204  102  104 am   BACKBONE|DICT|INTERRES
   205  104  105 1    
   206  104  225 1    
   207  105  106 1    
   208  105  107 1    
   209  105  226 1    
   210  106  227 1    
   211  106  228 1    
   212  106  229 1    
   213  107  108 2    
   214  107  109 am   BACKBONE|DICT|INTERRES
   215  109  110 1    
   216  109  230 1    
   217  110  111 1    
   218  110  112 1    
   219  110  231 1    
   220  111  232 1    
   221  111  233 1    
   222  111  234 1    
   223  112  113 2    
   224  112  114 am   BACKBONE|DICT|INTERRES
   225  114  115 1    
   226  114  235 1    
   227  115  116 1    
   228  115  117 1    
   229  115  236 1    
   230  116  237 1    
   231  116  238 1    
   232  116  239 1    
   233  117  118 2    
   234  117  119 am   BACKBONE|DICT|INTERRES
   235  119  120 1    
   236  119  240 1    
   237  120  121 1    
   238  120  124 1    
   239  120  241 1    
   240  121  122 am   BACKBONE|DICT|INTERRES
   241  121  123 2    
   242  122  242 1    
   243  122  243 1    
   244  124  125 1    
   245  124  244 1    
   246  124  245 1    
   247  125  126 1    
   248  126  246 1    
   249  126  247 1    
@<TRIPOS>SUBSTRUCTURE
     1 UNK         1 GROUP             0       ****    0 ROOT    
