@<TRIPOS>MOLECULE
3R540
247   249    1
SMALL
USER_CHARGES


@<TRIPOS>ATOM
      1 CA         -2.0080  -14.0232  -51.7895 C.3       0 UNK        -0.1800 
      2 C          -1.6289  -14.2805  -50.3394 C.2       0 UNK         0.5000 
      3 O          -2.3409  -15.0094  -49.6480 O.2       0 UNK        -0.5000 
      4 N          -0.5125  -13.6865  -49.8916 N.am      1 UNK        -0.5000 
      5 CA          0.0229  -13.7314  -48.5211 C.3       1 UNK         0.1400 
      6 C6          0.4200  -15.1515  -48.0330 C.3       23 UNK        -0.0398 
      7 S7          1.6130  -16.0091  -49.1147 S.3       23 UNK        -0.2404 
      8 C8          0.5301  -17.3255  -49.7365 C.3       23 UNK        -0.0205 
      9 C9          1.2754  -18.3778  -50.5339 C.ar      23 UNK        -0.0193 
     10 C10         1.2711  -18.3407  -51.9288 C.ar      23 UNK        -0.1150 
     11 C11         1.8769  -19.3588  -52.6696 C.ar      23 UNK        -0.0193 
     12 C12         2.4955  -20.4197  -52.0000 C.ar      23 UNK        -0.1150 
     13 C13         2.5146  -20.4610  -50.6016 C.ar      23 UNK        -0.0193 
     14 C14         1.9150  -19.4286  -49.8751 C.ar      23 UNK        -0.1150 
     15 C15         3.1660  -21.6267  -49.8736 C.3       23 UNK        -0.0205 
     16 S16         1.9523  -22.9206  -49.4599 S.3       23 UNK        -0.2404 
     17 C17         1.0000  -22.1183  -48.1225 C.3       23 UNK        -0.0398 
     18 CA          0.4272  -23.1455  -47.1175 C.3       11 UNK         0.1400 
     19 N           0.5308  -22.6842  -45.7300 N.am      11 UNK        -0.5000 
     20 C           0.4947  -23.5079  -44.6740 C.2       10 UNK         0.5000 
     21 O           0.3321  -24.7239  -44.7671 O.2       10 UNK        -0.5000 
     22 CA          0.6280  -22.8705  -43.2811 C.3       10 UNK         0.1400 
     23 CB          2.0782  -22.4428  -43.0110 C.3       10 UNK        -0.1800 
     24 N          -0.2706  -21.7330  -43.0927 N.am      10 UNK        -0.5000 
     25 C          -1.6085  -21.8151  -43.1260 C.2       9 UNK         0.5000 
     26 O          -2.2269  -22.8651  -43.3037 O.2       9 UNK        -0.5000 
     27 CA         -2.3880  -20.4977  -42.9722 C.3       9 UNK         0.1400 
     28 CB         -2.4713  -20.0841  -41.4955 C.3       9 UNK        -0.1800 
     29 N          -1.8185  -19.4011  -43.7545 N.am      9 UNK        -0.5000 
     30 C          -1.6939  -19.3966  -45.0898 C.2       8 UNK         0.5000 
     31 O          -2.0401  -20.3235  -45.8184 O.2       8 UNK        -0.5000 
     32 CA         -1.0073  -18.1701  -45.7094 C.3       8 UNK         0.1400 
     33 CB         -1.9155  -16.9335  -45.6153 C.3       8 UNK        -0.1800 
     34 N           0.2854  -17.8982  -45.0842 N.am      8 UNK        -0.5000 
     35 C           1.3123  -18.7610  -45.0421 C.2       7 UNK         0.5000 
     36 O           1.3108  -19.8657  -45.5859 O.2       7 UNK        -0.5000 
     37 CA          2.5262  -18.3379  -44.2010 C.3       7 UNK         0.1400 
     38 CB          3.4762  -17.4541  -45.0235 C.3       7 UNK        -0.1800 
     39 N           2.1187  -17.6394  -42.9808 N.am      7 UNK        -0.5000 
     40 C           1.5054  -18.2291  -41.9436 C.2       6 UNK         0.5000 
     41 O           1.2595  -19.4342  -41.8890 O.2       6 UNK        -0.5000 
     42 CA          1.0514  -17.3090  -40.7952 C.3       6 UNK         0.1400 
     43 CB          2.2260  -16.9842  -39.8603 C.3       6 UNK        -0.1800 
     44 N           0.4549  -16.0633  -41.2799 N.am      6 UNK        -0.5000 
     45 C          -0.7047  -15.9937  -41.9487 C.2       5 UNK         0.5000 
     46 O          -1.4191  -16.9707  -42.1723 O.2       5 UNK        -0.5000 
     47 CA         -1.1181  -14.6121  -42.4943 C.3       5 UNK         0.1400 
     48 CB         -1.9934  -13.8691  -41.4750 C.3       5 UNK        -0.1800 
     49 N           0.0034  -13.7512  -42.8817 N.am      5 UNK        -0.5000 
     50 C           0.9336  -14.0533  -43.7965 C.2       4 UNK         0.5000 
     51 O           1.0014  -15.1472  -44.3592 O.2       4 UNK        -0.5000 
     52 CA          1.9468  -12.9417  -44.1314 C.3       4 UNK         0.1400 
     53 CB          3.0116  -13.3930  -45.1474 C.3       4 UNK        -0.1800 
     54 N           1.2757  -11.7521  -44.6545 N.am      4 UNK        -0.5000 
     55 C           0.7280  -10.7767  -43.9183 C.2       3 UNK         0.5000 
     56 O           0.6996  -10.7872  -42.6869 O.2       3 UNK        -0.5000 
     57 CA          0.0945   -9.6067  -44.6922 C.3       3 UNK         0.1400 
     58 CB          1.1708   -8.5992  -45.1252 C.3       3 UNK        -0.1800 
     59 N          -0.6381  -10.0703  -45.8720 N.am      3 UNK        -0.5000 
     60 C          -1.8899  -10.5476  -45.8360 C.2       2 UNK         0.5000 
     61 O          -2.5825  -10.5816  -44.8182 O.2       2 UNK        -0.5000 
     62 CA         -2.4568  -11.0973  -47.1600 C.3       2 UNK         0.1400 
     63 CB         -3.0128   -9.9591  -48.0294 C.3       2 UNK        -0.1800 
     64 N          -1.4874  -11.8744  -47.9394 N.am      2 UNK        -0.5000 
     65 C          -0.9165  -13.0148  -47.5220 C.2       1 UNK         0.5000 
     66 O          -1.1159  -13.4940  -46.4069 O.2       1 UNK        -0.5000 
     67 C          -1.0023  -23.6033  -47.4820 C.2       11 UNK         0.5000 
     68 O          -1.1543  -24.5216  -48.2893 O.2       11 UNK        -0.5000 
     69 N          -2.0269  -23.0121  -46.8498 N.am      12 UNK        -0.5000 
     70 CA         -3.4156  -23.4663  -46.9361 C.3       12 UNK         0.1400 
     71 CB         -4.3563  -22.4380  -46.2919 C.3       12 UNK        -0.1800 
     72 C          -3.6130  -24.8552  -46.3052 C.2       12 UNK         0.5000 
     73 O          -4.3008  -25.6912  -46.8891 O.2       12 UNK        -0.5000 
     74 N          -2.9818  -25.0971  -45.1490 N.am      13 UNK        -0.5000 
     75 CA         -2.9841  -26.3983  -44.4822 C.3       13 UNK         0.1400 
     76 CB         -2.4483  -26.2443  -43.0504 C.3       13 UNK        -0.1800 
     77 C          -2.1836  -27.4612  -45.2586 C.2       13 UNK         0.5000 
     78 O          -2.6434  -28.5974  -45.3798 O.2       13 UNK        -0.5000 
     79 N          -1.0019  -27.0778  -45.7595 N.am      14 UNK        -0.5000 
     80 CA         -0.0657  -27.9761  -46.4313 C.3       14 UNK         0.1400 
     81 CB          1.3398  -27.3548  -46.4127 C.3       14 UNK        -0.1800 
     82 C          -0.4667  -28.3369  -47.8720 C.2       14 UNK         0.5000 
     83 O          -0.3556  -29.5062  -48.2445 O.2       14 UNK        -0.5000 
     84 N          -0.8717  -27.3371  -48.6669 N.am      15 UNK        -0.5000 
     85 CA         -0.9761  -27.4495  -50.1252 C.3       15 UNK         0.1400 
     86 CB          0.2390  -26.7355  -50.7466 C.3       15 UNK        -0.1800 
     87 C          -2.2877  -26.8912  -50.7048 C.2       15 UNK         0.5000 
     88 O          -2.4535  -26.9329  -51.9247 O.2       15 UNK        -0.5000 
     89 N          -3.1846  -26.3667  -49.8543 N.am      16 UNK        -0.5000 
     90 CA         -4.4314  -25.6746  -50.2208 C.3       16 UNK         0.1400 
     91 CB         -5.4277  -26.6396  -50.8985 C.3       16 UNK        -0.1800 
     92 C          -4.1944  -24.3790  -51.0301 C.2       16 UNK         0.5000 
     93 O          -5.0464  -23.9853  -51.8285 O.2       16 UNK        -0.5000 
     94 N          -3.0367  -23.7454  -50.8073 N.am      17 UNK        -0.5000 
     95 CA         -2.6215  -22.4983  -51.4434 C.3       17 UNK         0.1400 
     96 CB         -1.0905  -22.5309  -51.5854 C.3       17 UNK        -0.1800 
     97 C          -3.0919  -21.2660  -50.6416 C.2       17 UNK         0.5000 
     98 O          -3.8189  -21.4063  -49.6557 O.2       17 UNK        -0.5000 
     99 N          -2.6310  -20.0894  -51.0833 N.am      18 UNK        -0.5000 
    100 CA        -2.8713  -18.7409  -50.5654 C.3       18 UNK         0.1400 
    101 CB        -2.7306  -18.6681  -49.0303 C.3       18 UNK        -0.1800 
    102 C         -4.1979  -18.1397  -51.0606 C.2       18 UNK         0.5000 
    103 O         -5.0433  -18.8437  -51.6211 O.2       18 UNK        -0.5000 
    104 N         -4.3439  -16.8231  -50.8499 N.am      19 UNK        -0.5000 
    105 CA        -5.4475  -15.9739  -51.3014 C.3       19 UNK         0.1400 
    106 CB        -6.7474  -16.3115  -50.5369 C.3       19 UNK        -0.1800 
    107 C         -5.5874  -16.0058  -52.8380 C.2       19 UNK         0.5000 
    108 O         -4.7522  -15.4225  -53.5295 O.2       19 UNK        -0.5000 
    109 N         -6.6280  -16.6775  -53.3464 N.am      20 UNK        -0.5000 
    110 CA        -6.8674  -16.8704  -54.7765 C.3       20 UNK         0.1400 
    111 CB        -8.3536  -17.1957  -54.9914 C.3       20 UNK        -0.1800 
    112 C         -5.9833  -17.9724  -55.3929 C.2       20 UNK         0.5000 
    113 O         -5.7188  -17.9297  -56.5955 O.2       20 UNK        -0.5000 
    114 N         -5.5434  -18.9403  -54.5784 N.am      21 UNK        -0.5000 
    115 CA        -4.7243  -20.0763  -54.9940 C.3       21 UNK         0.1400 
    116 CB        -5.1439  -21.3115  -54.1776 C.3       21 UNK        -0.1800 
    117 C         -3.2350  -19.7251  -54.8365 C.2       21 UNK         0.5000 
    118 O         -2.5786  -20.2413  -53.9346 O.2       21 UNK        -0.5000 
    119 N         -2.7658  -18.8264  -55.7110 N.am      22 UNK        -0.5000 
    120 CA        -1.4479  -18.1662  -55.7455 C.3       22 UNK         0.1400 
    121 C         -1.1548  -17.2148  -54.5486 C.2       22 UNK         0.5000 
    122 N         -0.2134  -16.2930  -54.7112 N.am      22 UNK        -0.7600 
    123 O         -1.7625  -17.2815  -53.4848 O.2       22 UNK        -0.5000 
    124 C124       -0.2530  -19.0983  -56.1245 C.3       23 UNK        -0.0398 
    125 S125        0.3958  -20.2183  -54.8286 S.3       23 UNK        -0.2404 
    126 C126        1.8426  -19.3166  -54.1896 C.3       23 UNK        -0.0205 
    127 H127       -1.2267  -13.4858  -52.3271 H         1 UNK         0.0600 
    128 H128       -2.9246  -13.4356  -51.8383 H         1 UNK         0.0600 
    129 H129       -2.1856  -14.9668  -52.3031 H         1 UNK         0.0600 
    130 H130        0.0248  -13.1245  -50.5367 H         1 UNK         0.3000 
    131 H131        0.9359  -13.1347  -48.5392 H         1 UNK         0.0600 
    132 H132        0.8723  -15.1018  -47.0420 H         1 UNK         0.0800 
    133 H133       -0.4726  -15.7652  -47.9170 H         1 UNK         0.0800 
    134 H134        0.0371  -17.8105  -48.8952 H         1 UNK         0.0800 
    135 H135       -0.2556  -16.8785  -50.3448 H         1 UNK         0.0800 
    136 H136        0.7745  -17.5282  -52.4366 H         1 UNK         0.1150 
    137 H137        2.9500  -21.2192  -52.5680 H         1 UNK         0.1150 
    138 H138        1.9203  -19.4520  -48.7946 H         1 UNK         0.1150 
    139 H139        3.9450  -22.0653  -50.4989 H         1 UNK         0.0800 
    140 H140        3.6656  -21.2789  -48.9681 H         1 UNK         0.0800 
    141 H141        0.2241  -21.4761  -48.5439 H         1 UNK         0.0800 
    142 H142        1.6886  -21.4509  -47.6055 H         1 UNK         0.0800 
    143 H143        1.0502  -24.0404  -47.1751 H         1 UNK         0.0600 
    144 H144        0.6686  -21.6870  -45.5845 H         1 UNK         0.3000 
    145 H145        0.3585  -23.6301  -42.5444 H         1 UNK         0.0600 
    146 H146        2.1978  -22.0808  -41.9898 H         1 UNK         0.0600 
    147 H147        2.7636  -23.2812  -43.1408 H         1 UNK         0.0600 
    148 H148        2.3977  -21.6491  -43.6865 H         1 UNK         0.0600 
    149 H149        0.1636  -20.8351  -42.9054 H         1 UNK         0.3000 
    150 H150       -3.4030  -20.6695  -43.3356 H         1 UNK         0.0600 
    151 H151       -2.9000  -20.8824  -40.8884 H         1 UNK         0.0600 
    152 H152       -3.1020  -19.2039  -41.3687 H         1 UNK         0.0600 
    153 H153       -1.4874  -19.8502  -41.0870 H         1 UNK         0.0600 
    154 H154       -1.5206  -18.5813  -43.2324 H         1 UNK         0.3000 
    155 H155       -0.8130  -18.3785  -46.7612 H         1 UNK         0.0600 
    156 H156       -2.3389  -16.8065  -44.6201 H         1 UNK         0.0600 
    157 H157       -2.7518  -17.0139  -46.3099 H         1 UNK         0.0600 
    158 H158       -1.3762  -16.0198  -45.8528 H         1 UNK         0.0600 
    159 H159        0.4059  -16.9881  -44.6495 H         1 UNK         0.3000 
    160 H160        3.0685  -19.2403  -43.9116 H         1 UNK         0.0600 
    161 H161        2.9771  -16.5621  -45.4017 H         1 UNK         0.0600 
    162 H162        3.8590  -17.9994  -45.8871 H         1 UNK         0.0600 
    163 H163        4.3348  -17.1361  -44.4322 H         1 UNK         0.0600 
    164 H164        2.2067  -16.6334  -42.9871 H         1 UNK         0.3000 
    165 H165        0.2954  -17.8460  -40.2182 H         1 UNK         0.0600 
    166 H166        1.8961  -16.3980  -39.0024 H         1 UNK         0.0600 
    167 H167        2.6798  -17.8976  -39.4734 H         1 UNK         0.0600 
    168 H168        3.0071  -16.4206  -40.3721 H         1 UNK         0.0600 
    169 H169        0.9795  -15.2132  -41.1361 H         1 UNK         0.3000 
    170 H170       -1.7149  -14.7825  -43.3923 H         1 UNK         0.0600 
    171 H171       -2.8547  -14.4727  -41.1853 H         1 UNK         0.0600 
    172 H172       -1.4384  -13.6297  -40.5671 H         1 UNK         0.0600 
    173 H173       -2.3764  -12.9367  -41.8908 H         1 UNK         0.0600 
    174 H174        0.0208  -12.8179  -42.4877 H         1 UNK         0.3000 
    175 H175        2.4645  -12.6852  -43.2047 H         1 UNK         0.0600 
    176 H176        2.5688  -13.6741  -46.1030 H         1 UNK         0.0600 
    177 H177        3.7361  -12.6005  -45.3356 H         1 UNK         0.0600 
    178 H178        3.5673  -14.2538  -44.7743 H         1 UNK         0.0600 
    179 H179        1.2014  -11.6892  -45.6574 H         1 UNK         0.3000 
    180 H180       -0.5947   -9.0922  -44.0188 H         1 UNK         0.0600 
    181 H181        1.8923   -9.0447  -45.8112 H         1 UNK         0.0600 
    182 H182        1.7249   -8.2262  -44.2628 H         1 UNK         0.0600 
    183 H183        0.7251   -7.7367  -45.6212 H         1 UNK         0.0600 
    184 H184       -0.1491  -10.0604  -46.7548 H         1 UNK         0.3000 
    185 H185       -3.2843  -11.7641  -46.9079 H         1 UNK         0.0600 
    186 H186       -3.7524   -9.3744  -47.4807 H         1 UNK         0.0600 
    187 H187       -2.2265   -9.2752  -48.3509 H         1 UNK         0.0600 
    188 H188       -3.5052  -10.3483  -48.9208 H         1 UNK         0.0600 
    189 H189       -1.2898  -11.5483  -48.8741 H         1 UNK         0.3000 
    190 H190       -1.8532  -22.2039  -46.2588 H         1 UNK         0.3000 
    191 H191       -3.6787  -23.5422  -47.9915 H         1 UNK         0.0600 
    192 H192       -4.2974  -21.4788  -46.8067 H         1 UNK         0.0600 
    193 H193       -5.3938  -22.7698  -46.3456 H         1 UNK         0.0600 
    194 H194       -4.1165  -22.2718  -45.2418 H         1 UNK         0.0600 
    195 H195       -2.4710  -24.3474  -44.6937 H         1 UNK         0.3000 
    196 H196       -4.0180  -26.7438  -44.4165 H         1 UNK         0.0600 
    197 H197       -2.4553  -27.2002  -42.5254 H         1 UNK         0.0600 
    198 H198       -3.0616  -25.5514  -42.4740 H         1 UNK         0.0600 
    199 H199       -1.4243  -25.8701  -43.0389 H         1 UNK         0.0600 
    200 H200       -0.6655  -26.1409  -45.5524 H         1 UNK         0.3000 
    201 H201       -0.0202  -28.9059  -45.8600 H         1 UNK         0.0600 
    202 H202        1.6749  -27.1678  -45.3924 H         1 UNK         0.0600 
    203 H203        1.3692  -26.4087  -46.9534 H         1 UNK         0.0600 
    204 H204        2.0683  -28.0205  -46.8771 H         1 UNK         0.0600 
    205 H205       -0.9342  -26.3922  -48.2957 H         1 UNK         0.3000 
    206 H206       -0.9442  -28.4967  -50.4317 H         1 UNK         0.0600 
    207 H207        1.1747  -27.1669  -50.3910 H         1 UNK         0.0600 
    208 H208        0.2376  -26.8211  -51.8339 H         1 UNK         0.0600 
    209 H209        0.2469  -25.6725  -50.5008 H         1 UNK         0.0600 
    210 H210       -2.9718  -26.3847  -48.8661 H         1 UNK         0.3000 
    211 H211       -4.8964  -25.3488  -49.2926 H         1 UNK         0.0600 
    212 H212       -5.0930  -26.9428  -51.8906 H         1 UNK         0.0600 
    213 H213       -6.4054  -26.1709  -51.0159 H         1 UNK         0.0600 
    214 H214       -5.5716  -27.5401  -50.3015 H         1 UNK         0.0600 
    215 H215       -2.4142  -24.1148  -50.0996 H         1 UNK         0.3000 
    216 H216       -3.0544  -22.4416  -52.4426 H         1 UNK         0.0600 
    217 H217       -0.7191  -21.6822  -52.1614 H         1 UNK         0.0600 
    218 H218       -0.7568  -23.4343  -52.0963 H         1 UNK         0.0600 
    219 H219       -0.6110  -22.5015  -50.6096 H         1 UNK         0.0600 
    220 H220       -2.1772  -20.1003  -51.9932 H         1 UNK         0.3000 
    221 H221       -2.0764  -18.1364  -50.9997 H         1 UNK         0.0600 
    222 H222       -3.6152  -19.0526  -48.5214 H         1 UNK         0.0600 
    223 H223       -1.8741  -19.2461  -48.6844 H         1 UNK         0.0600 
    224 H224       -2.5901  -17.6388  -48.7009 H         1 UNK         0.0600 
    225 H225       -3.5851  -16.3195  -50.3980 H         1 UNK         0.3000 
    226 H226       -5.1720  -14.9508  -51.0414 H         1 UNK         0.0600 
    227 H227       -6.6119  -16.1684  -49.4648 H         1 UNK         0.0600 
    228 H228       -7.5645  -15.6584  -50.8459 H         1 UNK         0.0600 
    229 H229       -7.0688  -17.3419  -50.6899 H         1 UNK         0.0600 
    230 H230       -7.2576  -17.1450  -52.7104 H         1 UNK         0.3000 
    231 H231       -6.6465  -15.9377  -55.3001 H         1 UNK         0.0600 
    232 H232       -8.6416  -18.1178  -54.4848 H         1 UNK         0.0600 
    233 H233       -8.5767  -17.3205  -56.0519 H         1 UNK         0.0600 
    234 H234       -8.9910  -16.3937  -54.6187 H         1 UNK         0.0600 
    235 H235       -5.6970  -18.8533  -53.5788 H         1 UNK         0.3000 
    236 H236       -4.9030  -20.3065  -56.0465 H         1 UNK         0.0600 
    237 H237       -6.1850  -21.5723  -54.3676 H         1 UNK         0.0600 
    238 H238       -4.5393  -22.1800  -54.4412 H         1 UNK         0.0600 
    239 H239       -5.0356  -21.1457  -53.1055 H         1 UNK         0.0600 
    240 H240       -3.4379  -18.4519  -56.3677 H         1 UNK         0.3000 
    241 H241       -1.5628  -17.4872  -56.5915 H         1 UNK         0.0600 
    242 H242       -0.0236  -15.6569  -53.9547 H         1 UNK         0.3800 
    243 H243        0.2864  -16.1883  -55.5798 H         1 UNK         0.3800 
    244 H244       -0.5497  -19.7229  -56.9677 H         1 UNK         0.0800 
    245 H245        0.5737  -18.4971  -56.5047 H         1 UNK         0.0800 
    246 H246        1.8305  -18.2795  -54.5255 H         1 UNK         0.0800 
    247 H247        2.7510  -19.7594  -54.6004 H         1 UNK         0.0800 
@<TRIPOS>BOND
     1    1    2 1    
     2    1  127 1    
     3    1  128 1    
     4    1  129 1    
     5    2    3 2    
     6    2    4 am   BACKBONE|DICT|INTERRES
     7    4    5 1    
     8    4  130 1    
     9    5    6 1    
    10    5   65 1    
    11    5  131 1    
    12    6    7 1    
    13    6  132 1    
    14    6  133 1    
    15    7    8 1    
    16    8    9 1    
    17    8  134 1    
    18    8  135 1    
    19    9   10 ar   
    20    9   14 ar   
    21   10   11 ar   
    22   10  136 1    
    23   11   12 ar   
    24   11  126 1    
    25   12   13 ar   
    26   12  137 1    
    27   13   14 ar   
    28   13   15 1    
    29   14  138 1    
    30   15   16 1    
    31   15  139 1    
    32   15  140 1    
    33   16   17 1    
    34   17   18 1    
    35   17  141 1    
    36   17  142 1    
    37   18   19 1    
    38   18   67 1    
    39   18  143 1    
    40   19   20 am   BACKBONE|DICT|INTERRES
    41   19  144 1    
    42   20   21 2    
    43   20   22 1    
    44   22   23 1    
    45   22   24 1    
    46   22  145 1    
    47   23  146 1    
    48   23  147 1    
    49   23  148 1    
    50   24   25 am   BACKBONE|DICT|INTERRES
    51   24  149 1    
    52   25   26 2    
    53   25   27 1    
    54   27   28 1    
    55   27   29 1    
    56   27  150 1    
    57   28  151 1    
    58   28  152 1    
    59   28  153 1    
    60   29   30 am   BACKBONE|DICT|INTERRES
    61   29  154 1    
    62   30   31 2    
    63   30   32 1    
    64   32   33 1    
    65   32   34 1    
    66   32  155 1    
    67   33  156 1    
    68   33  157 1    
    69   33  158 1    
    70   34   35 am   BACKBONE|DICT|INTERRES
    71   34  159 1    
    72   35   36 2    
    73   35   37 1    
    74   37   38 1    
    75   37   39 1    
    76   37  160 1    
    77   38  161 1    
    78   38  162 1    
    79   38  163 1    
    80   39   40 am   BACKBONE|DICT|INTERRES
    81   39  164 1    
    82   40   41 2    
    83   40   42 1    
    84   42   43 1    
    85   42   44 1    
    86   42  165 1    
    87   43  166 1    
    88   43  167 1    
    89   43  168 1    
    90   44   45 am   BACKBONE|DICT|INTERRES
    91   44  169 1    
    92   45   46 2    
    93   45   47 1    
    94   47   48 1    
    95   47   49 1    
    96   47  170 1    
    97   48  171 1    
    98   48  172 1    
    99   48  173 1    
   100   49   50 am   BACKBONE|DICT|INTERRES
   101   49  174 1    
   102   50   51 2    
   103   50   52 1    
   104   52   53 1    
   105   52   54 1    
   106   52  175 1    
   107   53  176 1    
   108   53  177 1    
   109   53  178 1    
   110   54   55 am   BACKBONE|DICT|INTERRES
   111   54  179 1    
   112   55   56 2    
   113   55   57 1    
   114   57   58 1    
   115   57   59 1    
   116   57  180 1    
   117   58  181 1    
   118   58  182 1    
   119   58  183 1    
   120   59   60 am   BACKBONE|DICT|INTERRES
   121   59  184 1    
   122   60   61 2    
   123   60   62 1    
   124   62   63 1    
   125   62   64 1    
   126   62  185 1    
   127   63  186 1    
   128   63  187 1    
   129   63  188 1    
   130   64   65 am   BACKBONE|DICT|INTERRES
   131   64  189 1    
   132   65   66 2    
   133   67   68 2    
   134   67   69 am   BACKBONE|DICT|INTERRES
   135   69   70 1    
   136   69  190 1    
   137   70   71 1    
   138   70   72 1    
   139   70  191 1    
   140   71  192 1    
   141   71  193 1    
   142   71  194 1    
   143   72   73 2    
   144   72   74 am   BACKBONE|DICT|INTERRES
   145   74   75 1    
   146   74  195 1    
   147   75   76 1    
   148   75   77 1    
   149   75  196 1    
   150   76  197 1    
   151   76  198 1    
   152   76  199 1    
   153   77   78 2    
   154   77   79 am   BACKBONE|DICT|INTERRES
   155   79   80 1    
   156   79  200 1    
   157   80   81 1    
   158   80   82 1    
   159   80  201 1    
   160   81  202 1    
   161   81  203 1    
   162   81  204 1    
   163   82   83 2    
   164   82   84 am   BACKBONE|DICT|INTERRES
   165   84   85 1    
   166   84  205 1    
   167   85   86 1    
   168   85   87 1    
   169   85  206 1    
   170   86  207 1    
   171   86  208 1    
   172   86  209 1    
   173   87   88 2    
   174   87   89 am   BACKBONE|DICT|INTERRES
   175   89   90 1    
   176   89  210 1    
   177   90   91 1    
   178   90   92 1    
   179   90  211 1    
   180   91  212 1    
   181   91  213 1    
   182   91  214 1    
   183   92   93 2    
   184   92   94 am   BACKBONE|DICT|INTERRES
   185   94   95 1    
   186   94  215 1    
   187   95   96 1    
   188   95   97 1    
   189   95  216 1    
   190   96  217 1    
   191   96  218 1    
   192   96  219 1    
   193   97   98 2    
   194   97   99 am   BACKBONE|DICT|INTERRES
   195   99  100 1    
   196   99  220 1    
   197  100  101 1    
   198  100  102 1    
   199  100  221 1    
   200  101  222 1    
   201  101  223 1    
   202  101  224 1    
   203  102  103 2    
   204  102  104 am   BACKBONE|DICT|INTERRES
   205  104  105 1    
   206  104  225 1    
   207  105  106 1    
   208  105  107 1    
   209  105  226 1    
   210  106  227 1    
   211  106  228 1    
   212  106  229 1    
   213  107  108 2    
   214  107  109 am   BACKBONE|DICT|INTERRES
   215  109  110 1    
   216  109  230 1    
   217  110  111 1    
   218  110  112 1    
   219  110  231 1    
   220  111  232 1    
   221  111  233 1    
   222  111  234 1    
   223  112  113 2    
   224  112  114 am   BACKBONE|DICT|INTERRES
   225  114  115 1    
   226  114  235 1    
   227  115  116 1    
   228  115  117 1    
   229  115  236 1    
   230  116  237 1    
   231  116  238 1    
   232  116  239 1    
   233  117  118 2    
   234  117  119 am   BACKBONE|DICT|INTERRES
   235  119  120 1    
   236  119  240 1    
   237  120  121 1    
   238  120  124 1    
   239  120  241 1    
   240  121  122 am   BACKBONE|DICT|INTERRES
   241  121  123 2    
   242  122  242 1    
   243  122  243 1    
   244  124  125 1    
   245  124  244 1    
   246  124  245 1    
   247  125  126 1    
   248  126  246 1    
   249  126  247 1    
@<TRIPOS>SUBSTRUCTURE
     1 UNK         1 GROUP             0       ****    0 ROOT    
