@<TRIPOS>MOLECULE
3R540
247   249    1
SMALL
USER_CHARGES


@<TRIPOS>ATOM
      1 CA          1.3413  -15.1517  -46.7835 C.3       0 UNK        -0.1800 
      2 C           2.7188  -14.6125  -47.1208 C.2       0 UNK         0.5000 
      3 O           3.3451  -13.9695  -46.2809 O.2       0 UNK        -0.5000 
      4 N           3.1906  -14.8616  -48.3477 N.am      1 UNK        -0.5000 
      5 CA          4.4933  -14.3902  -48.8327 C.3       1 UNK         0.1400 
      6 C6          4.6107  -14.4113  -50.3769 C.3       23 UNK        -0.0398 
      7 S7          3.1943  -13.6284  -51.2265 S.3       23 UNK        -0.2404 
      8 C8          2.5579  -15.0039  -52.2380 C.3       23 UNK        -0.0205 
      9 C9          1.6744  -15.9643  -51.4511 C.ar      23 UNK        -0.0193 
     10 C10         0.2817  -15.8478  -51.5174 C.ar      23 UNK        -0.1150 
     11 C11        -0.5401  -16.7824  -50.8806 C.ar      23 UNK        -0.0193 
     12 C12         0.0391  -17.8199  -50.1466 C.ar      23 UNK        -0.1150 
     13 C13         1.4279  -17.9357  -50.0518 C.ar      23 UNK        -0.0193 
     14 C14         2.2397  -17.0110  -50.7141 C.ar      23 UNK        -0.1150 
     15 C15         2.0523  -19.0981  -49.2952 C.3       23 UNK        -0.0205 
     16 S16         2.3651  -18.7224  -47.5388 S.3       23 UNK        -0.2404 
     17 C17         0.6975  -18.6816  -46.7925 C.3       23 UNK        -0.0398 
     18 CA          0.1530  -20.0735  -46.3763 C.3       11 UNK         0.1400 
     19 N          -0.7124  -19.9939  -45.1957 N.am      11 UNK        -0.5000 
     20 C          -1.2630  -21.0473  -44.5728 C.2       10 UNK         0.5000 
     21 O          -1.0484  -22.2196  -44.8802 O.2       10 UNK        -0.5000 
     22 CA         -2.2642  -20.7360  -43.4503 C.3       10 UNK         0.1400 
     23 CB         -1.5305  -20.4530  -42.1369 C.3       10 UNK        -0.1800 
     24 N          -3.1189  -19.5988  -43.7854 N.am      10 UNK        -0.5000 
     25 C          -4.0994  -19.6403  -44.6973 C.2       9 UNK         0.5000 
     26 O          -4.4012  -20.6506  -45.3329 O.2       9 UNK        -0.5000 
     27 CA         -4.8324  -18.3151  -44.9751 C.3       9 UNK         0.1400 
     28 CB         -5.8676  -18.0226  -43.8786 C.3       9 UNK        -0.1800 
     29 N          -3.9158  -17.1795  -45.0965 N.am      9 UNK        -0.5000 
     30 C          -2.9966  -17.0605  -46.0635 C.2       8 UNK         0.5000 
     31 O          -2.8327  -17.8865  -46.9576 O.2       8 UNK        -0.5000 
     32 CA         -2.0688  -15.8397  -46.0158 C.3       8 UNK         0.1400 
     33 CB         -2.6710  -14.6693  -46.8060 C.3       8 UNK        -0.1800 
     34 N          -1.7046  -15.3888  -44.6710 N.am      8 UNK        -0.5000 
     35 C          -1.0882  -16.1260  -43.7360 C.2       7 UNK         0.5000 
     36 O          -0.8535  -17.3315  -43.8607 O.2       7 UNK        -0.5000 
     37 CA         -0.6416  -15.3488  -42.4829 C.3       7 UNK         0.1400 
     38 CB         -1.8277  -14.6976  -41.7392 C.3       7 UNK        -0.1800 
     39 N           0.2064  -16.1377  -41.5865 N.am      7 UNK        -0.5000 
     40 C          -0.1377  -17.0844  -40.7016 C.2       6 UNK         0.5000 
     41 O          -1.2959  -17.4297  -40.4656 O.2       6 UNK        -0.5000 
     42 CA          1.0154  -17.7488  -39.9205 C.3       6 UNK         0.1400 
     43 CB          1.3152  -19.1519  -40.4674 C.3       6 UNK        -0.1800 
     44 N           2.2482  -16.9596  -39.9712 N.am      6 UNK        -0.5000 
     45 C           2.6131  -16.0525  -39.0548 C.2       5 UNK         0.5000 
     46 O           1.9538  -15.7951  -38.0469 O.2       5 UNK        -0.5000 
     47 CA          3.9419  -15.3081  -39.2963 C.3       5 UNK         0.1400 
     48 CB          5.0905  -16.0090  -38.5547 C.3       5 UNK        -0.1800 
     49 N           4.2914  -15.1951  -40.7135 N.am      5 UNK        -0.5000 
     50 C           3.6717  -14.3894  -41.5866 C.2       4 UNK         0.5000 
     51 O           2.7605  -13.6205  -41.2800 O.2       4 UNK        -0.5000 
     52 CA          4.1201  -14.4841  -43.0573 C.3       4 UNK         0.1400 
     53 CB          5.2386  -13.4723  -43.3475 C.3       4 UNK        -0.1800 
     54 N           4.5645  -15.8192  -43.4708 N.am      4 UNK        -0.5000 
     55 C           3.8207  -16.9318  -43.4394 C.2       3 UNK         0.5000 
     56 O           2.6835  -16.9678  -42.9692 O.2       3 UNK        -0.5000 
     57 CA          4.4606  -18.2053  -44.0281 C.3       3 UNK         0.1400 
     58 CB          3.5096  -19.4160  -43.9962 C.3       3 UNK        -0.1800 
     59 N           4.9141  -17.9964  -45.4044 N.am      3 UNK        -0.5000 
     60 C           6.0841  -17.4475  -45.7583 C.2       2 UNK         0.5000 
     61 O           6.8937  -16.9932  -44.9488 O.2       2 UNK        -0.5000 
     62 CA          6.3791  -17.3620  -47.2627 C.3       2 UNK         0.1400 
     63 CB          6.3267  -18.7438  -47.9382 C.3       2 UNK        -0.1800 
     64 N           5.4229  -16.4653  -47.9059 N.am      2 UNK        -0.5000 
     65 C           5.6586  -15.1781  -48.1978 C.2       1 UNK         0.5000 
     66 O           6.7326  -14.6108  -47.9934 O.2       1 UNK        -0.5000 
     67 C          -0.5699  -20.7743  -47.5449 C.2       11 UNK         0.5000 
     68 O          -0.0360  -21.7279  -48.1094 O.2       11 UNK        -0.5000 
     69 N          -1.7937  -20.3209  -47.8510 N.am      12 UNK        -0.5000 
     70 CA         -2.6533  -20.8733  -48.8941 C.3       12 UNK         0.1400 
     71 CB         -3.8957  -19.9900  -49.0587 C.3       12 UNK        -0.1800 
     72 C          -3.0661  -22.3273  -48.6281 C.2       12 UNK         0.5000 
     73 O          -3.1136  -23.1137  -49.5724 O.2       12 UNK        -0.5000 
     74 N          -3.3405  -22.6681  -47.3620 N.am      13 UNK        -0.5000 
     75 CA         -3.6445  -24.0330  -46.9334 C.3       13 UNK         0.1400 
     76 CB         -4.1452  -24.0244  -45.4817 C.3       13 UNK        -0.1800 
     77 C          -2.4407  -24.9788  -47.0990 C.2       13 UNK         0.5000 
     78 O          -2.6105  -26.0889  -47.6035 O.2       13 UNK        -0.5000 
     79 N          -1.2461  -24.5108  -46.7096 N.am      14 UNK        -0.5000 
     80 CA          0.0184  -25.2360  -46.8476 C.3       14 UNK         0.1400 
     81 CB          1.1150  -24.5067  -46.0559 C.3       14 UNK        -0.1800 
     82 C           0.4414  -25.4287  -48.3161 C.2       14 UNK         0.5000 
     83 O           0.8933  -26.5142  -48.6822 O.2       14 UNK        -0.5000 
     84 N           0.2698  -24.3806  -49.1324 N.am      15 UNK        -0.5000 
     85 CA          0.5743  -24.3753  -50.5649 C.3       15 UNK         0.1400 
     86 CB          0.6861  -22.9156  -51.0362 C.3       15 UNK        -0.1800 
     87 C          -0.4618  -25.1280  -51.4241 C.2       15 UNK         0.5000 
     88 O          -0.1764  -25.4139  -52.5873 O.2       15 UNK        -0.5000 
     89 N          -1.6492  -25.3913  -50.8567 N.am      16 UNK        -0.5000 
     90 CA         -2.8612  -25.9092  -51.5065 C.3       16 UNK         0.1400 
     91 CB         -2.6389  -27.3243  -52.0783 C.3       16 UNK        -0.1800 
     92 C          -3.4573  -24.9245  -52.5394 C.2       16 UNK         0.5000 
     93 O          -4.1914  -25.3332  -53.4401 O.2       16 UNK        -0.5000 
     94 N          -3.1524  -23.6327  -52.3648 N.am      17 UNK        -0.5000 
     95 CA         -3.6432  -22.5147  -53.1660 C.3       17 UNK         0.1400 
     96 CB         -2.5884  -21.3990  -53.1559 C.3       17 UNK        -0.1800 
     97 C          -4.9958  -21.9844  -52.6585 C.2       17 UNK         0.5000 
     98 O          -5.6323  -21.1969  -53.3574 O.2       17 UNK        -0.5000 
     99 N          -5.4342  -22.4207  -51.4676 N.am      18 UNK        -0.5000 
    100 CA        -6.7295  -22.0769  -50.8710 C.3       18 UNK         0.1400 
    101 CB        -6.8337  -22.7141  -49.4772 C.3       18 UNK        -0.1800 
    102 C         -7.9268  -22.4853  -51.7518 C.2       18 UNK         0.5000 
    103 O         -8.9009  -21.7383  -51.8427 O.2       18 UNK        -0.5000 
    104 N         -7.7953  -23.6265  -52.4426 N.am      19 UNK        -0.5000 
    105 CA        -8.7561  -24.1346  -53.4246 C.3       19 UNK         0.1400 
    106 CB        -8.3951  -25.5906  -53.7564 C.3       19 UNK        -0.1800 
    107 C         -8.8271  -23.2908  -54.7152 C.2       19 UNK         0.5000 
    108 O         -9.8394  -23.3439  -55.4141 O.2       19 UNK        -0.5000 
    109 N         -7.7657  -22.5252  -55.0033 N.am      20 UNK        -0.5000 
    110 CA        -7.6621  -21.6112  -56.1418 C.3       20 UNK         0.1400 
    111 CB        -6.2313  -21.6859  -56.7033 C.3       20 UNK        -0.1800 
    112 C         -8.0359  -20.1613  -55.7674 C.2       20 UNK         0.5000 
    113 O         -7.9601  -19.2877  -56.6322 O.2       20 UNK        -0.5000 
    114 N         -8.4316  -19.9309  -54.5043 N.am      21 UNK        -0.5000 
    115 CA        -8.8060  -18.6472  -53.9041 C.3       21 UNK         0.1400 
    116 CB       -10.0973  -18.0944  -54.5439 C.3       21 UNK        -0.1800 
    117 C         -7.6388  -17.6380  -53.9079 C.2       21 UNK         0.5000 
    118 O         -7.7467  -16.5622  -54.5002 O.2       21 UNK        -0.5000 
    119 N         -6.5380  -18.0326  -53.2530 N.am      22 UNK        -0.5000 
    120 CA        -5.3071  -17.2496  -53.0393 C.3       22 UNK         0.1400 
    121 C         -5.5448  -15.8055  -52.5064 C.2       22 UNK         0.5000 
    122 N         -4.8406  -14.8146  -53.0364 N.am      22 UNK        -0.7600 
    123 O         -6.3292  -15.5877  -51.5855 O.2       22 UNK        -0.5000 
    124 C124       -4.3452  -18.0125  -52.0915 C.3       23 UNK        -0.0398 
    125 S125       -2.5844  -17.7125  -52.4535 S.3       23 UNK        -0.2404 
    126 C126       -2.0515  -16.7146  -51.0264 C.3       23 UNK        -0.0205 
    127 H127        0.9416  -15.7600  -47.5952 H         1 UNK         0.0600 
    128 H128        0.6533  -14.3267  -46.6007 H         1 UNK         0.0600 
    129 H129        1.3917  -15.7617  -45.8816 H         1 UNK         0.0600 
    130 H130        2.6182  -15.3549  -49.0191 H         1 UNK         0.3000 
    131 H131        4.6019  -13.3498  -48.5174 H         1 UNK         0.0600 
    132 H132        5.5101  -13.8735  -50.6820 H         1 UNK         0.0800 
    133 H133        4.7457  -15.4280  -50.7451 H         1 UNK         0.0800 
    134 H134        1.9894  -14.5807  -53.0676 H         1 UNK         0.0800 
    135 H135        3.3864  -15.5451  -52.6973 H         1 UNK         0.0800 
    136 H136       -0.1646  -15.0547  -52.1009 H         1 UNK         0.1150 
    137 H137       -0.5969  -18.5547  -49.6756 H         1 UNK         0.1150 
    138 H138        3.3121  -17.1317  -50.6795 H         1 UNK         0.1150 
    139 H139        1.4318  -19.9872  -49.3924 H         1 UNK         0.0800 
    140 H140        3.0041  -19.3612  -49.7590 H         1 UNK         0.0800 
    141 H141        0.8029  -18.0637  -45.9005 H         1 UNK         0.0800 
    142 H142        0.0009  -18.1368  -47.4284 H         1 UNK         0.0800 
    143 H143        0.9979  -20.7034  -46.0896 H         1 UNK         0.0600 
    144 H144       -0.9139  -19.0656  -44.8362 H         1 UNK         0.3000 
    145 H145       -2.8959  -21.6150  -43.3055 H         1 UNK         0.0600 
    146 H146       -2.2295  -20.2715  -41.3204 H         1 UNK         0.0600 
    147 H147       -0.9004  -21.2958  -41.8500 H         1 UNK         0.0600 
    148 H148       -0.8904  -19.5769  -42.2318 H         1 UNK         0.0600 
    149 H149       -2.8881  -18.7150  -43.3533 H         1 UNK         0.3000 
    150 H150       -5.3621  -18.4231  -45.9241 H         1 UNK         0.0600 
    151 H151       -6.5703  -18.8506  -43.7752 H         1 UNK         0.0600 
    152 H152       -6.4498  -17.1316  -44.1141 H         1 UNK         0.0600 
    153 H153       -5.3959  -17.8687  -42.9073 H         1 UNK         0.0600 
    154 H154       -3.9748  -16.4593  -44.3920 H         1 UNK         0.3000 
    155 H155       -1.1497  -16.1416  -46.5151 H         1 UNK         0.0600 
    156 H156       -1.9651  -13.8427  -46.8879 H         1 UNK         0.0600 
    157 H157       -3.5797  -14.2916  -46.3358 H         1 UNK         0.0600 
    158 H158       -2.9284  -14.9746  -47.8215 H         1 UNK         0.0600 
    159 H159       -1.8672  -14.4110  -44.4794 H         1 UNK         0.3000 
    160 H160        0.0042  -14.5440  -42.8375 H         1 UNK         0.0600 
    161 H161       -2.6001  -15.4241  -41.4857 H         1 UNK         0.0600 
    162 H162       -2.3000  -13.9260  -42.3476 H         1 UNK         0.0600 
    163 H163       -1.4999  -14.2193  -40.8160 H         1 UNK         0.0600 
    164 H164        1.1980  -16.0442  -41.7673 H         1 UNK         0.3000 
    165 H165        0.6940  -17.8573  -38.8825 H         1 UNK         0.0600 
    166 H166        1.4704  -19.1376  -41.5465 H         1 UNK         0.0600 
    167 H167        2.2039  -19.5800  -40.0035 H         1 UNK         0.0600 
    168 H168        0.4882  -19.8297  -40.2576 H         1 UNK         0.0600 
    169 H169        2.8158  -17.0741  -40.8007 H         1 UNK         0.3000 
    170 H170        3.8360  -14.3013  -38.8862 H         1 UNK         0.0600 
    171 H171        4.8766  -16.0869  -37.4879 H         1 UNK         0.0600 
    172 H172        5.2559  -17.0195  -38.9308 H         1 UNK         0.0600 
    173 H173        6.0235  -15.4545  -38.6577 H         1 UNK         0.0600 
    174 H174        5.0341  -15.7895  -41.0515 H         1 UNK         0.3000 
    175 H175        3.2540  -14.2246  -43.6684 H         1 UNK         0.0600 
    176 H176        6.1453  -13.7026  -42.7868 H         1 UNK         0.0600 
    177 H177        5.4926  -13.4616  -44.4079 H         1 UNK         0.0600 
    178 H178        4.9312  -12.4610  -43.0783 H         1 UNK         0.0600 
    179 H179        5.4894  -15.8874  -43.8803 H         1 UNK         0.3000 
    180 H180        5.3230  -18.4511  -43.4049 H         1 UNK         0.0600 
    181 H181        2.5678  -19.2075  -44.5034 H         1 UNK         0.0600 
    182 H182        3.2733  -19.6950  -42.9695 H         1 UNK         0.0600 
    183 H183        3.9601  -20.2881  -44.4701 H         1 UNK         0.0600 
    184 H184        4.2788  -18.3043  -46.1278 H         1 UNK         0.3000 
    185 H185        7.3954  -16.9796  -47.3801 H         1 UNK         0.0600 
    186 H186        6.6259  -18.6764  -48.9842 H         1 UNK         0.0600 
    187 H187        7.0089  -19.4414  -47.4509 H         1 UNK         0.0600 
    188 H188        5.3305  -19.1846  -47.9088 H         1 UNK         0.0600 
    189 H189        4.4958  -16.8289  -48.0711 H         1 UNK         0.3000 
    190 H190       -2.1657  -19.5132  -47.3542 H         1 UNK         0.3000 
    191 H191       -2.0889  -20.8504  -49.8275 H         1 UNK         0.0600 
    192 H192       -4.5104  -20.3262  -49.8918 H         1 UNK         0.0600 
    193 H193       -3.6156  -18.9584  -49.2596 H         1 UNK         0.0600 
    194 H194       -4.5174  -19.9958  -48.1625 H         1 UNK         0.0600 
    195 H195       -3.3407  -21.9507  -46.6460 H         1 UNK         0.3000 
    196 H196       -4.4521  -24.4094  -47.5651 H         1 UNK         0.0600 
    197 H197       -4.3989  -25.0321  -45.1505 H         1 UNK         0.0600 
    198 H198       -5.0417  -23.4129  -45.3788 H         1 UNK         0.0600 
    199 H199       -3.3932  -23.6331  -44.7966 H         1 UNK         0.0600 
    200 H200       -1.1972  -23.5954  -46.2706 H         1 UNK         0.3000 
    201 H201       -0.1140  -26.2267  -46.4079 H         1 UNK         0.0600 
    202 H202        0.8580  -24.4398  -44.9986 H         1 UNK         0.0600 
    203 H203        1.2724  -23.4925  -46.4245 H         1 UNK         0.0600 
    204 H204        2.0666  -25.0348  -46.1274 H         1 UNK         0.0600 
    205 H205       -0.0384  -23.4969  -48.7322 H         1 UNK         0.3000 
    206 H206        1.5413  -24.8592  -50.7167 H         1 UNK         0.0600 
    207 H207        1.4638  -22.3835  -50.4882 H         1 UNK         0.0600 
    208 H208        0.9408  -22.8611  -52.0953 H         1 UNK         0.0600 
    209 H209       -0.2510  -22.3754  -50.8956 H         1 UNK         0.0600 
    210 H210       -1.7774  -25.0859  -49.9006 H         1 UNK         0.3000 
    211 H211       -3.6053  -25.9921  -50.7130 H         1 UNK         0.0600 
    212 H212       -1.9761  -27.3155  -52.9437 H         1 UNK         0.0600 
    213 H213       -3.5826  -27.7678  -52.3978 H         1 UNK         0.0600 
    214 H214       -2.2067  -27.9881  -51.3295 H         1 UNK         0.0600 
    215 H215       -2.6317  -23.3947  -51.5287 H         1 UNK         0.3000 
    216 H216       -3.7838  -22.8445  -54.1973 H         1 UNK         0.0600 
    217 H217       -2.8888  -20.5735  -53.8025 H         1 UNK         0.0600 
    218 H218       -1.6267  -21.7612  -53.5198 H         1 UNK         0.0600 
    219 H219       -2.4366  -20.9932  -52.1560 H         1 UNK         0.0600 
    220 H220       -4.8267  -23.0249  -50.9285 H         1 UNK         0.3000 
    221 H221       -6.7664  -20.9919  -50.7550 H         1 UNK         0.0600 
    222 H222       -6.7216  -23.7982  -49.5193 H         1 UNK         0.0600 
    223 H223       -6.0697  -22.3238  -48.8056 H         1 UNK         0.0600 
    224 H224       -7.8009  -22.5006  -49.0203 H         1 UNK         0.0600 
    225 H225       -6.9506  -24.1658  -52.3193 H         1 UNK         0.3000 
    226 H226       -9.7484  -24.1214  -52.9689 H         1 UNK         0.0600 
    227 H227       -8.4198  -26.2166  -52.8643 H         1 UNK         0.0600 
    228 H228       -9.1015  -26.0167  -54.4702 H         1 UNK         0.0600 
    229 H229       -7.3986  -25.6680  -54.1938 H         1 UNK         0.0600 
    230 H230       -6.9937  -22.4924  -54.3497 H         1 UNK         0.3000 
    231 H231       -8.3472  -21.9261  -56.9314 H         1 UNK         0.0600 
    232 H232       -6.1359  -21.0889  -57.6110 H         1 UNK         0.0600 
    233 H233       -5.9613  -22.7101  -56.9611 H         1 UNK         0.0600 
    234 H234       -5.4949  -21.3139  -55.9909 H         1 UNK         0.0600 
    235 H235       -8.4501  -20.7209  -53.8730 H         1 UNK         0.3000 
    236 H236       -9.0296  -18.8545  -52.8564 H         1 UNK         0.0600 
    237 H237      -10.9079  -18.8206  -54.4835 H         1 UNK         0.0600 
    238 H238      -10.4302  -17.1930  -54.0282 H         1 UNK         0.0600 
    239 H239       -9.9574  -17.8353  -55.5936 H         1 UNK         0.0600 
    240 H240       -6.5309  -18.9687  -52.8737 H         1 UNK         0.3000 
    241 H241       -4.8435  -17.1762  -54.0248 H         1 UNK         0.0600 
    242 H242       -4.1796  -14.9770  -53.7802 H         1 UNK         0.3800 
    243 H243       -4.9772  -13.8773  -52.6921 H         1 UNK         0.3800 
    244 H244       -4.5697  -17.8023  -51.0450 H         1 UNK         0.0800 
    245 H245       -4.4822  -19.0869  -52.2017 H         1 UNK         0.0800 
    246 H246       -2.5207  -17.0745  -50.1103 H         1 UNK         0.0800 
    247 H247       -2.3801  -15.6827  -51.1590 H         1 UNK         0.0800 
@<TRIPOS>BOND
     1    1    2 1    
     2    1  127 1    
     3    1  128 1    
     4    1  129 1    
     5    2    3 2    
     6    2    4 am   BACKBONE|DICT|INTERRES
     7    4    5 1    
     8    4  130 1    
     9    5    6 1    
    10    5   65 1    
    11    5  131 1    
    12    6    7 1    
    13    6  132 1    
    14    6  133 1    
    15    7    8 1    
    16    8    9 1    
    17    8  134 1    
    18    8  135 1    
    19    9   10 ar   
    20    9   14 ar   
    21   10   11 ar   
    22   10  136 1    
    23   11   12 ar   
    24   11  126 1    
    25   12   13 ar   
    26   12  137 1    
    27   13   14 ar   
    28   13   15 1    
    29   14  138 1    
    30   15   16 1    
    31   15  139 1    
    32   15  140 1    
    33   16   17 1    
    34   17   18 1    
    35   17  141 1    
    36   17  142 1    
    37   18   19 1    
    38   18   67 1    
    39   18  143 1    
    40   19   20 am   BACKBONE|DICT|INTERRES
    41   19  144 1    
    42   20   21 2    
    43   20   22 1    
    44   22   23 1    
    45   22   24 1    
    46   22  145 1    
    47   23  146 1    
    48   23  147 1    
    49   23  148 1    
    50   24   25 am   BACKBONE|DICT|INTERRES
    51   24  149 1    
    52   25   26 2    
    53   25   27 1    
    54   27   28 1    
    55   27   29 1    
    56   27  150 1    
    57   28  151 1    
    58   28  152 1    
    59   28  153 1    
    60   29   30 am   BACKBONE|DICT|INTERRES
    61   29  154 1    
    62   30   31 2    
    63   30   32 1    
    64   32   33 1    
    65   32   34 1    
    66   32  155 1    
    67   33  156 1    
    68   33  157 1    
    69   33  158 1    
    70   34   35 am   BACKBONE|DICT|INTERRES
    71   34  159 1    
    72   35   36 2    
    73   35   37 1    
    74   37   38 1    
    75   37   39 1    
    76   37  160 1    
    77   38  161 1    
    78   38  162 1    
    79   38  163 1    
    80   39   40 am   BACKBONE|DICT|INTERRES
    81   39  164 1    
    82   40   41 2    
    83   40   42 1    
    84   42   43 1    
    85   42   44 1    
    86   42  165 1    
    87   43  166 1    
    88   43  167 1    
    89   43  168 1    
    90   44   45 am   BACKBONE|DICT|INTERRES
    91   44  169 1    
    92   45   46 2    
    93   45   47 1    
    94   47   48 1    
    95   47   49 1    
    96   47  170 1    
    97   48  171 1    
    98   48  172 1    
    99   48  173 1    
   100   49   50 am   BACKBONE|DICT|INTERRES
   101   49  174 1    
   102   50   51 2    
   103   50   52 1    
   104   52   53 1    
   105   52   54 1    
   106   52  175 1    
   107   53  176 1    
   108   53  177 1    
   109   53  178 1    
   110   54   55 am   BACKBONE|DICT|INTERRES
   111   54  179 1    
   112   55   56 2    
   113   55   57 1    
   114   57   58 1    
   115   57   59 1    
   116   57  180 1    
   117   58  181 1    
   118   58  182 1    
   119   58  183 1    
   120   59   60 am   BACKBONE|DICT|INTERRES
   121   59  184 1    
   122   60   61 2    
   123   60   62 1    
   124   62   63 1    
   125   62   64 1    
   126   62  185 1    
   127   63  186 1    
   128   63  187 1    
   129   63  188 1    
   130   64   65 am   BACKBONE|DICT|INTERRES
   131   64  189 1    
   132   65   66 2    
   133   67   68 2    
   134   67   69 am   BACKBONE|DICT|INTERRES
   135   69   70 1    
   136   69  190 1    
   137   70   71 1    
   138   70   72 1    
   139   70  191 1    
   140   71  192 1    
   141   71  193 1    
   142   71  194 1    
   143   72   73 2    
   144   72   74 am   BACKBONE|DICT|INTERRES
   145   74   75 1    
   146   74  195 1    
   147   75   76 1    
   148   75   77 1    
   149   75  196 1    
   150   76  197 1    
   151   76  198 1    
   152   76  199 1    
   153   77   78 2    
   154   77   79 am   BACKBONE|DICT|INTERRES
   155   79   80 1    
   156   79  200 1    
   157   80   81 1    
   158   80   82 1    
   159   80  201 1    
   160   81  202 1    
   161   81  203 1    
   162   81  204 1    
   163   82   83 2    
   164   82   84 am   BACKBONE|DICT|INTERRES
   165   84   85 1    
   166   84  205 1    
   167   85   86 1    
   168   85   87 1    
   169   85  206 1    
   170   86  207 1    
   171   86  208 1    
   172   86  209 1    
   173   87   88 2    
   174   87   89 am   BACKBONE|DICT|INTERRES
   175   89   90 1    
   176   89  210 1    
   177   90   91 1    
   178   90   92 1    
   179   90  211 1    
   180   91  212 1    
   181   91  213 1    
   182   91  214 1    
   183   92   93 2    
   184   92   94 am   BACKBONE|DICT|INTERRES
   185   94   95 1    
   186   94  215 1    
   187   95   96 1    
   188   95   97 1    
   189   95  216 1    
   190   96  217 1    
   191   96  218 1    
   192   96  219 1    
   193   97   98 2    
   194   97   99 am   BACKBONE|DICT|INTERRES
   195   99  100 1    
   196   99  220 1    
   197  100  101 1    
   198  100  102 1    
   199  100  221 1    
   200  101  222 1    
   201  101  223 1    
   202  101  224 1    
   203  102  103 2    
   204  102  104 am   BACKBONE|DICT|INTERRES
   205  104  105 1    
   206  104  225 1    
   207  105  106 1    
   208  105  107 1    
   209  105  226 1    
   210  106  227 1    
   211  106  228 1    
   212  106  229 1    
   213  107  108 2    
   214  107  109 am   BACKBONE|DICT|INTERRES
   215  109  110 1    
   216  109  230 1    
   217  110  111 1    
   218  110  112 1    
   219  110  231 1    
   220  111  232 1    
   221  111  233 1    
   222  111  234 1    
   223  112  113 2    
   224  112  114 am   BACKBONE|DICT|INTERRES
   225  114  115 1    
   226  114  235 1    
   227  115  116 1    
   228  115  117 1    
   229  115  236 1    
   230  116  237 1    
   231  116  238 1    
   232  116  239 1    
   233  117  118 2    
   234  117  119 am   BACKBONE|DICT|INTERRES
   235  119  120 1    
   236  119  240 1    
   237  120  121 1    
   238  120  124 1    
   239  120  241 1    
   240  121  122 am   BACKBONE|DICT|INTERRES
   241  121  123 2    
   242  122  242 1    
   243  122  243 1    
   244  124  125 1    
   245  124  244 1    
   246  124  245 1    
   247  125  126 1    
   248  126  246 1    
   249  126  247 1    
@<TRIPOS>SUBSTRUCTURE
     1 UNK         1 GROUP             0       ****    0 ROOT    
