@<TRIPOS>MOLECULE
3R540
247   249    1
SMALL
USER_CHARGES


@<TRIPOS>ATOM
      1 CA          0.3712  -10.2804  -41.9417 C.3       0 UNK        -0.1800 
      2 C           1.2752  -10.0333  -43.1407 C.2       0 UNK         0.5000 
      3 O           2.0331   -9.0623  -43.1502 O.2       0 UNK        -0.5000 
      4 N           1.2115  -10.9109  -44.1477 N.am      1 UNK        -0.5000 
      5 CA          2.0355  -10.8846  -45.3590 C.3       1 UNK         0.1400 
      6 C6          1.2788  -11.4148  -46.6069 C.3       23 UNK        -0.0398 
      7 S7          0.3810  -12.9916  -46.3932 S.3       23 UNK        -0.2404 
      8 C8          0.1024  -13.4228  -48.1410 C.3       23 UNK        -0.0205 
      9 C9         -0.6857  -14.7150  -48.3156 C.ar      23 UNK        -0.0193 
     10 C10        -1.8404  -14.7340  -49.1054 C.ar      23 UNK        -0.1150 
     11 C11        -2.5427  -15.9259  -49.3098 C.ar      23 UNK        -0.0193 
     12 C12        -2.0950  -17.0994  -48.6995 C.ar      23 UNK        -0.1150 
     13 C13        -0.9301  -17.1009  -47.9268 C.ar      23 UNK        -0.0193 
     14 C14        -0.2339  -15.9047  -47.7359 C.ar      23 UNK        -0.1150 
     15 C15        -0.4154  -18.3881  -47.3018 C.3       23 UNK        -0.0205 
     16 S16        -0.0745  -19.6754  -48.5422 S.3       23 UNK        -0.2404 
     17 C17        -1.5577  -20.7261  -48.3595 C.3       23 UNK        -0.0398 
     18 CA         -1.2623  -21.9438  -47.4575 C.3       11 UNK         0.1400 
     19 N          -0.8925  -21.5540  -46.0969 N.am      11 UNK        -0.5000 
     20 C          -0.1908  -22.3167  -45.2523 C.2       10 UNK         0.5000 
     21 O           0.2148  -23.4460  -45.5259 O.2       10 UNK        -0.5000 
     22 CA          0.0535  -21.7232  -43.8545 C.3       10 UNK         0.1400 
     23 CB          1.2548  -20.7673  -43.8807 C.3       10 UNK        -0.1800 
     24 N          -1.1239  -21.0133  -43.3489 N.am      10 UNK        -0.5000 
     25 C          -2.2664  -21.6230  -42.9986 C.2       9 UNK         0.5000 
     26 O          -2.4258  -22.8432  -43.0450 O.2       9 UNK        -0.5000 
     27 CA         -3.4441  -20.7263  -42.5679 C.3       9 UNK         0.1400 
     28 CB         -3.3856  -20.4548  -41.0576 C.3       9 UNK        -0.1800 
     29 N          -3.5147  -19.4495  -43.2812 N.am      9 UNK        -0.5000 
     30 C          -3.6252  -19.3047  -44.6090 C.2       8 UNK         0.5000 
     31 O          -3.6808  -20.2472  -45.3977 O.2       8 UNK        -0.5000 
     32 CA         -3.6286  -17.8665  -45.1595 C.3       8 UNK         0.1400 
     33 CB         -5.0695  -17.3569  -45.3049 C.3       8 UNK        -0.1800 
     34 N          -2.8510  -16.8949  -44.3812 N.am      8 UNK        -0.5000 
     35 C          -1.5687  -17.0081  -44.0049 C.2       7 UNK         0.5000 
     36 O          -0.8811  -18.0192  -44.1659 O.2       7 UNK        -0.5000 
     37 CA         -0.9830  -15.7974  -43.2738 C.3       7 UNK         0.1400 
     38 CB         -1.3558  -15.8418  -41.7795 C.3       7 UNK        -0.1800 
     39 N           0.4679  -15.7759  -43.4282 N.am      7 UNK        -0.5000 
     40 C           1.2349  -14.7016  -43.2278 C.2       6 UNK         0.5000 
     41 O           0.7815  -13.5949  -42.9334 O.2       6 UNK        -0.5000 
     42 CA          2.7603  -14.8705  -43.3399 C.3       6 UNK         0.1400 
     43 CB          3.3324  -15.5940  -42.1053 C.3       6 UNK        -0.1800 
     44 N           3.2525  -15.4649  -44.5897 N.am      6 UNK        -0.5000 
     45 C           3.1364  -16.7291  -45.0196 C.2       5 UNK         0.5000 
     46 O           2.4295  -17.5707  -44.4664 O.2       5 UNK        -0.5000 
     47 CA          4.0300  -17.1612  -46.2038 C.3       5 UNK         0.1400 
     48 CB          3.3249  -18.1143  -47.1923 C.3       5 UNK        -0.1800 
     49 N           4.7306  -16.0672  -46.8922 N.am      5 UNK        -0.5000 
     50 C           4.2255  -15.1797  -47.7621 C.2       4 UNK         0.5000 
     51 O           3.0437  -15.1415  -48.0953 O.2       4 UNK        -0.5000 
     52 CA          5.2284  -14.1667  -48.3449 C.3       4 UNK         0.1400 
     53 CB          4.5546  -12.9825  -49.0624 C.3       4 UNK        -0.1800 
     54 N           6.0920  -13.6619  -47.2797 N.am      4 UNK        -0.5000 
     55 C           7.4252  -13.5464  -47.3340 C.2       3 UNK         0.5000 
     56 O           8.0888  -13.8468  -48.3275 O.2       3 UNK        -0.5000 
     57 CA          8.1533  -13.0599  -46.0585 C.3       3 UNK         0.1400 
     58 CB          9.2516  -12.0206  -46.3677 C.3       3 UNK        -0.1800 
     59 N           7.2555  -12.5983  -44.9890 N.am      3 UNK        -0.5000 
     60 C           6.4837  -11.5027  -44.9861 C.2       2 UNK         0.5000 
     61 O           6.4815  -10.6460  -45.8728 O.2       2 UNK        -0.5000 
     62 CA          5.5219  -11.3664  -43.7908 C.3       2 UNK         0.1400 
     63 CB          6.0717  -10.3698  -42.7599 C.3       2 UNK        -0.1800 
     64 N           4.1843  -10.9401  -44.2021 N.am      2 UNK        -0.5000 
     65 C           3.3950  -11.5647  -45.0874 C.2       1 UNK         0.5000 
     66 O           3.6955  -12.6321  -45.6275 O.2       1 UNK        -0.5000 
     67 C          -2.4303  -22.9456  -47.4528 C.2       11 UNK         0.5000 
     68 O          -2.5053  -23.7750  -48.3567 O.2       11 UNK        -0.5000 
     69 N          -3.3048  -22.8859  -46.4396 N.am      12 UNK        -0.5000 
     70 CA         -4.3470  -23.8805  -46.1867 C.3       12 UNK         0.1400 
     71 CB         -5.3386  -23.3456  -45.1442 C.3       12 UNK        -0.1800 
     72 C          -3.7539  -25.2320  -45.7571 C.2       12 UNK         0.5000 
     73 O          -4.1783  -26.2645  -46.2746 O.2       12 UNK        -0.5000 
     74 N          -2.7428  -25.2010  -44.8760 N.am      13 UNK        -0.5000 
     75 CA         -1.9768  -26.3766  -44.4515 C.3       13 UNK         0.1400 
     76 CB         -1.0469  -25.9929  -43.2907 C.3       13 UNK        -0.1800 
     77 C          -1.1822  -27.0231  -45.6043 C.2       13 UNK         0.5000 
     78 O          -1.1054  -28.2497  -45.6774 O.2       13 UNK        -0.5000 
     79 N          -0.6443  -26.1893  -46.5056 N.am      14 UNK        -0.5000 
     80 CA          0.0372  -26.6067  -47.7346 C.3       14 UNK         0.1400 
     81 CB          0.9133  -25.4446  -48.2282 C.3       14 UNK        -0.1800 
     82 C          -0.9233  -27.0600  -48.8567 C.2       14 UNK         0.5000 
     83 O          -0.4546  -27.5924  -49.8629 O.2       14 UNK        -0.5000 
     84 N          -2.2309  -26.8129  -48.6837 N.am      15 UNK        -0.5000 
     85 CA         -3.3384  -27.0503  -49.6190 C.3       15 UNK         0.1400 
     86 CB         -3.4650  -28.5435  -49.9815 C.3       15 UNK        -0.1800 
     87 C          -3.3264  -26.1397  -50.8669 C.2       15 UNK         0.5000 
     88 O          -4.1153  -26.3576  -51.7860 O.2       15 UNK        -0.5000 
     89 N          -2.4879  -25.0970  -50.8646 N.am      16 UNK        -0.5000 
     90 CA         -2.4207  -24.0684  -51.9009 C.3       16 UNK         0.1400 
     91 CB         -1.1209  -23.2674  -51.7376 C.3       16 UNK        -0.1800 
     92 C          -3.6466  -23.1400  -51.8680 C.2       16 UNK         0.5000 
     93 O          -4.1591  -22.7711  -52.9245 O.2       16 UNK        -0.5000 
     94 N          -4.1320  -22.8152  -50.6603 N.am      17 UNK        -0.5000 
     95 CA         -5.3629  -22.0408  -50.4745 C.3       17 UNK         0.1400 
     96 CB         -5.4272  -21.4667  -49.0525 C.3       17 UNK        -0.1800 
     97 C          -6.6205  -22.8709  -50.7937 C.2       17 UNK         0.5000 
     98 O          -7.6005  -22.3124  -51.2842 O.2       17 UNK        -0.5000 
     99 N          -6.5548  -24.1922  -50.5669 N.am      18 UNK        -0.5000 
    100 CA        -7.5958  -25.1528  -50.9468 C.3       18 UNK         0.1400 
    101 CB        -7.3430  -26.4957  -50.2444 C.3       18 UNK        -0.1800 
    102 C         -7.6864  -25.3330  -52.4752 C.2       18 UNK         0.5000 
    103 O         -8.7882  -25.4470  -53.0121 O.2       18 UNK        -0.5000 
    104 N         -6.5287  -25.2938  -53.1506 N.am      19 UNK        -0.5000 
    105 CA        -6.3951  -25.2500  -54.6095 C.3       19 UNK         0.1400 
    106 CB        -4.9627  -25.6626  -54.9851 C.3       19 UNK        -0.1800 
    107 C         -6.7408  -23.8727  -55.2198 C.2       19 UNK         0.5000 
    108 O         -6.7995  -23.7589  -56.4448 O.2       19 UNK        -0.5000 
    109 N         -6.9613  -22.8631  -54.3643 N.am      20 UNK        -0.5000 
    110 CA        -7.3104  -21.4754  -54.6724 C.3       20 UNK         0.1400 
    111 CB        -8.6880  -21.3912  -55.3625 C.3       20 UNK        -0.1800 
    112 C         -6.1992  -20.7253  -55.4328 C.2       20 UNK         0.5000 
    113 O         -6.4930  -19.9386  -56.3354 O.2       20 UNK        -0.5000 
    114 N         -4.9374  -20.9471  -55.0319 N.am      21 UNK        -0.5000 
    115 CA        -3.7459  -20.3073  -55.6050 C.3       21 UNK         0.1400 
    116 CB        -2.4888  -20.8960  -54.9463 C.3       21 UNK        -0.1800 
    117 C         -3.7403  -18.7676  -55.4924 C.2       21 UNK         0.5000 
    118 O         -3.1551  -18.0998  -56.3461 O.2       21 UNK        -0.5000 
    119 N         -4.4139  -18.2379  -54.4636 N.am      22 UNK        -0.5000 
    120 CA        -4.6664  -16.8009  -54.2648 C.3       22 UNK         0.1400 
    121 C         -5.8299  -16.2296  -55.1320 C.2       22 UNK         0.5000 
    122 N         -6.5536  -17.0250  -55.9120 N.am      22 UNK        -0.7600 
    123 O         -6.0773  -15.0270  -55.1068 O.2       22 UNK        -0.5000 
    124 C124       -4.8650  -16.4589  -52.7643 C.3       23 UNK        -0.0398 
    125 S125       -3.3720  -16.8140  -51.7805 S.3       23 UNK        -0.2404 
    126 C126       -3.7617  -15.9623  -50.2188 C.3       23 UNK        -0.0205 
    127 H127        0.9719  -10.4882  -41.0564 H         1 UNK         0.0600 
    128 H128       -0.2959  -11.1270  -42.1068 H         1 UNK         0.0600 
    129 H129       -0.2402   -9.4002  -41.7435 H         1 UNK         0.0600 
    130 H130        0.6528  -11.7496  -44.0309 H         1 UNK         0.3000 
    131 H131        2.2744   -9.8433  -45.5865 H         1 UNK         0.0600 
    132 H132        0.5401  -10.6708  -46.9075 H         1 UNK         0.0800 
    133 H133        1.9612  -11.5005  -47.4533 H         1 UNK         0.0800 
    134 H134       -0.4134  -12.5928  -48.6262 H         1 UNK         0.0800 
    135 H135        1.0629  -13.5264  -48.6463 H         1 UNK         0.0800 
    136 H136       -2.1808  -13.8249  -49.5808 H         1 UNK         0.1150 
    137 H137       -2.6361  -18.0192  -48.8644 H         1 UNK         0.1150 
    138 H138        0.6695  -15.8951  -47.1419 H         1 UNK         0.1150 
    139 H139        0.4900  -18.2025  -46.7242 H         1 UNK         0.0800 
    140 H140       -1.1435  -18.7557  -46.5846 H         1 UNK         0.0800 
    141 H141       -1.8582  -21.0461  -49.3582 H         1 UNK         0.0800 
    142 H142       -2.3921  -20.1457  -47.9643 H         1 UNK         0.0800 
    143 H143       -0.4101  -22.4669  -47.8952 H         1 UNK         0.0600 
    144 H144       -1.2289  -20.6605  -45.7705 H         1 UNK         0.3000 
    145 H145        0.2816  -22.5451  -43.1725 H         1 UNK         0.0600 
    146 H146        1.4538  -20.3516  -42.8929 H         1 UNK         0.0600 
    147 H147        2.1586  -21.2835  -44.2063 H         1 UNK         0.0600 
    148 H148        1.0898  -19.9344  -44.5653 H         1 UNK         0.0600 
    149 H149       -1.0784  -20.0001  -43.3402 H         1 UNK         0.3000 
    150 H150       -4.3660  -21.2704  -42.7804 H         1 UNK         0.0600 
    151 H151       -2.5015  -19.8759  -40.7869 H         1 UNK         0.0600 
    152 H152       -3.3527  -21.3881  -40.4937 H         1 UNK         0.0600 
    153 H153       -4.2643  -19.9045  -40.7207 H         1 UNK         0.0600 
    154 H154       -3.4559  -18.6141  -42.7184 H         1 UNK         0.3000 
    155 H155       -3.1962  -17.9030  -46.1584 H         1 UNK         0.0600 
    156 H156       -5.5567  -17.2453  -44.3355 H         1 UNK         0.0600 
    157 H157       -5.6710  -18.0477  -45.8978 H         1 UNK         0.0600 
    158 H158       -5.0974  -16.3912  -45.8101 H         1 UNK         0.0600 
    159 H159       -3.3301  -16.0315  -44.1699 H         1 UNK         0.3000 
    160 H160       -1.3974  -14.8946  -43.7282 H         1 UNK         0.0600 
    161 H161       -0.9301  -16.7177  -41.2882 H         1 UNK         0.0600 
    162 H162       -2.4371  -15.8809  -41.6430 H         1 UNK         0.0600 
    163 H163       -0.9990  -14.9570  -41.2522 H         1 UNK         0.0600 
    164 H164        0.8997  -16.6503  -43.7232 H         1 UNK         0.3000 
    165 H165        3.1760  -13.8636  -43.3182 H         1 UNK         0.0600 
    166 H166        3.0474  -15.0782  -41.1875 H         1 UNK         0.0600 
    167 H167        2.9697  -16.6191  -42.0254 H         1 UNK         0.0600 
    168 H168        4.4215  -15.6243  -42.1356 H         1 UNK         0.0600 
    169 H169        3.7595  -14.8194  -45.1818 H         1 UNK         0.3000 
    170 H170        4.8244  -17.7452  -45.7372 H         1 UNK         0.0600 
    171 H171        2.5081  -17.6267  -47.7223 H         1 UNK         0.0600 
    172 H172        4.0240  -18.4922  -47.9379 H         1 UNK         0.0600 
    173 H173        2.9070  -18.9800  -46.6769 H         1 UNK         0.0600 
    174 H174        5.7166  -15.9940  -46.6837 H         1 UNK         0.3000 
    175 H175        5.8186  -14.7166  -49.0806 H         1 UNK         0.0600 
    176 H176        3.9390  -12.4005  -48.3777 H         1 UNK         0.0600 
    177 H177        5.2971  -12.3121  -49.4952 H         1 UNK         0.0600 
    178 H178        3.9135  -13.3258  -49.8751 H         1 UNK         0.0600 
    179 H179        5.6062  -13.3614  -46.4432 H         1 UNK         0.3000 
    180 H180        8.6533  -13.9421  -45.6563 H         1 UNK         0.0600 
    181 H181        8.8524  -11.1423  -46.8750 H         1 UNK         0.0600 
    182 H182       10.0186  -12.4457  -47.0160 H         1 UNK         0.0600 
    183 H183        9.7482  -11.6872  -45.4565 H         1 UNK         0.0600 
    184 H184        7.1814  -13.2292  -44.2026 H         1 UNK         0.3000 
    185 H185        5.4170  -12.3400  -43.3078 H         1 UNK         0.0600 
    186 H186        5.4237  -10.3080  -41.8853 H         1 UNK         0.0600 
    187 H187        7.0599  -10.6726  -42.4113 H         1 UNK         0.0600 
    188 H188        6.1644   -9.3676  -43.1806 H         1 UNK         0.0600 
    189 H189        3.8363  -10.0825  -43.7906 H         1 UNK         0.3000 
    190 H190       -3.2503  -22.1034  -45.7952 H         1 UNK         0.3000 
    191 H191       -4.8930  -24.0518  -47.1157 H         1 UNK         0.0600 
    192 H192       -5.7646  -22.3923  -45.4580 H         1 UNK         0.0600 
    193 H193       -6.1655  -24.0422  -45.0018 H         1 UNK         0.0600 
    194 H194       -4.8654  -23.1984  -44.1741 H         1 UNK         0.0600 
    195 H195       -2.4852  -24.3142  -44.4548 H         1 UNK         0.3000 
    196 H196       -2.6869  -27.1201  -44.0836 H         1 UNK         0.0600 
    197 H197       -0.4883  -26.8595  -42.9350 H         1 UNK         0.0600 
    198 H198       -1.6134  -25.6014  -42.4455 H         1 UNK         0.0600 
    199 H199       -0.3225  -25.2340  -43.5862 H         1 UNK         0.0600 
    200 H200       -0.6797  -25.1931  -46.3214 H         1 UNK         0.3000 
    201 H201        0.6898  -27.4501  -47.5002 H         1 UNK         0.0600 
    202 H202        1.5141  -25.7448  -49.0876 H         1 UNK         0.0600 
    203 H203        1.6021  -25.1089  -47.4526 H         1 UNK         0.0600 
    204 H204        0.3098  -24.5910  -48.5354 H         1 UNK         0.0600 
    205 H205       -2.5029  -26.3653  -47.8180 H         1 UNK         0.3000 
    206 H206       -4.2401  -26.7765  -49.0700 H         1 UNK         0.0600 
    207 H207       -3.4855  -29.1657  -49.0868 H         1 UNK         0.0600 
    208 H208       -4.3882  -28.7354  -50.5295 H         1 UNK         0.0600 
    209 H209       -2.6407  -28.8820  -50.6092 H         1 UNK         0.0600 
    210 H210       -1.9624  -24.9239  -50.0171 H         1 UNK         0.3000 
    211 H211       -2.3995  -24.5591  -52.8761 H         1 UNK         0.0600 
    212 H212       -1.0518  -22.8026  -50.7543 H         1 UNK         0.0600 
    213 H213       -1.0515  -22.4752  -52.4841 H         1 UNK         0.0600 
    214 H214       -0.2484  -23.9089  -51.8629 H         1 UNK         0.0600 
    215 H215       -3.6610  -23.1690  -49.8342 H         1 UNK         0.3000 
    216 H216       -5.3418  -21.1967  -51.1678 H         1 UNK         0.0600 
    217 H217       -6.2934  -20.8136  -48.9391 H         1 UNK         0.0600 
    218 H218       -4.5447  -20.8718  -48.8219 H         1 UNK         0.0600 
    219 H219       -5.5160  -22.2496  -48.3030 H         1 UNK         0.0600 
    220 H220       -5.7052  -24.5708  -50.1793 H         1 UNK         0.3000 
    221 H221       -8.5563  -24.7661  -50.5993 H         1 UNK         0.0600 
    222 H222       -6.4159  -26.9618  -50.5764 H         1 UNK         0.0600 
    223 H223       -7.2901  -26.3734  -49.1624 H         1 UNK         0.0600 
    224 H224       -8.1509  -27.1982  -50.4524 H         1 UNK         0.0600 
    225 H225       -5.6610  -25.2927  -52.6261 H         1 UNK         0.3000 
    226 H226       -7.0840  -25.9789  -55.0409 H         1 UNK         0.0600 
    227 H227       -4.8364  -25.7033  -56.0676 H         1 UNK         0.0600 
    228 H228       -4.2270  -24.9587  -54.5958 H         1 UNK         0.0600 
    229 H229       -4.7208  -26.6508  -54.5932 H         1 UNK         0.0600 
    230 H230       -6.8706  -23.0706  -53.3797 H         1 UNK         0.3000 
    231 H231       -7.4017  -20.9694  -53.7106 H         1 UNK         0.0600 
    232 H232       -8.6681  -21.8192  -56.3651 H         1 UNK         0.0600 
    233 H233       -9.0145  -20.3549  -55.4572 H         1 UNK         0.0600 
    234 H234       -9.4489  -21.9183  -54.7870 H         1 UNK         0.0600 
    235 H235       -4.7685  -21.6216  -54.2885 H         1 UNK         0.3000 
    236 H236       -3.7220  -20.5559  -56.6679 H         1 UNK         0.0600 
    237 H237       -2.4409  -21.9768  -55.0812 H         1 UNK         0.0600 
    238 H238       -1.5830  -20.4735  -55.3830 H         1 UNK         0.0600 
    239 H239       -2.4645  -20.6896  -53.8755 H         1 UNK         0.0600 
    240 H240       -4.8537  -18.8646  -53.8073 H         1 UNK         0.3000 
    241 H241       -3.7780  -16.2616  -54.5990 H         1 UNK         0.0600 
    242 H242       -6.3705  -18.0209  -55.9817 H         1 UNK         0.3800 
    243 H243       -7.2939  -16.6233  -56.4650 H         1 UNK         0.3800 
    244 H244       -5.0997  -15.4001  -52.6412 H         1 UNK         0.0800 
    245 H245       -5.7079  -17.0133  -52.3487 H         1 UNK         0.0800 
    246 H246       -4.5820  -16.4770  -49.7163 H         1 UNK         0.0800 
    247 H247       -4.1088  -14.9496  -50.4297 H         1 UNK         0.0800 
@<TRIPOS>BOND
     1    1    2 1    
     2    1  127 1    
     3    1  128 1    
     4    1  129 1    
     5    2    3 2    
     6    2    4 am   BACKBONE|DICT|INTERRES
     7    4    5 1    
     8    4  130 1    
     9    5    6 1    
    10    5   65 1    
    11    5  131 1    
    12    6    7 1    
    13    6  132 1    
    14    6  133 1    
    15    7    8 1    
    16    8    9 1    
    17    8  134 1    
    18    8  135 1    
    19    9   10 ar   
    20    9   14 ar   
    21   10   11 ar   
    22   10  136 1    
    23   11   12 ar   
    24   11  126 1    
    25   12   13 ar   
    26   12  137 1    
    27   13   14 ar   
    28   13   15 1    
    29   14  138 1    
    30   15   16 1    
    31   15  139 1    
    32   15  140 1    
    33   16   17 1    
    34   17   18 1    
    35   17  141 1    
    36   17  142 1    
    37   18   19 1    
    38   18   67 1    
    39   18  143 1    
    40   19   20 am   BACKBONE|DICT|INTERRES
    41   19  144 1    
    42   20   21 2    
    43   20   22 1    
    44   22   23 1    
    45   22   24 1    
    46   22  145 1    
    47   23  146 1    
    48   23  147 1    
    49   23  148 1    
    50   24   25 am   BACKBONE|DICT|INTERRES
    51   24  149 1    
    52   25   26 2    
    53   25   27 1    
    54   27   28 1    
    55   27   29 1    
    56   27  150 1    
    57   28  151 1    
    58   28  152 1    
    59   28  153 1    
    60   29   30 am   BACKBONE|DICT|INTERRES
    61   29  154 1    
    62   30   31 2    
    63   30   32 1    
    64   32   33 1    
    65   32   34 1    
    66   32  155 1    
    67   33  156 1    
    68   33  157 1    
    69   33  158 1    
    70   34   35 am   BACKBONE|DICT|INTERRES
    71   34  159 1    
    72   35   36 2    
    73   35   37 1    
    74   37   38 1    
    75   37   39 1    
    76   37  160 1    
    77   38  161 1    
    78   38  162 1    
    79   38  163 1    
    80   39   40 am   BACKBONE|DICT|INTERRES
    81   39  164 1    
    82   40   41 2    
    83   40   42 1    
    84   42   43 1    
    85   42   44 1    
    86   42  165 1    
    87   43  166 1    
    88   43  167 1    
    89   43  168 1    
    90   44   45 am   BACKBONE|DICT|INTERRES
    91   44  169 1    
    92   45   46 2    
    93   45   47 1    
    94   47   48 1    
    95   47   49 1    
    96   47  170 1    
    97   48  171 1    
    98   48  172 1    
    99   48  173 1    
   100   49   50 am   BACKBONE|DICT|INTERRES
   101   49  174 1    
   102   50   51 2    
   103   50   52 1    
   104   52   53 1    
   105   52   54 1    
   106   52  175 1    
   107   53  176 1    
   108   53  177 1    
   109   53  178 1    
   110   54   55 am   BACKBONE|DICT|INTERRES
   111   54  179 1    
   112   55   56 2    
   113   55   57 1    
   114   57   58 1    
   115   57   59 1    
   116   57  180 1    
   117   58  181 1    
   118   58  182 1    
   119   58  183 1    
   120   59   60 am   BACKBONE|DICT|INTERRES
   121   59  184 1    
   122   60   61 2    
   123   60   62 1    
   124   62   63 1    
   125   62   64 1    
   126   62  185 1    
   127   63  186 1    
   128   63  187 1    
   129   63  188 1    
   130   64   65 am   BACKBONE|DICT|INTERRES
   131   64  189 1    
   132   65   66 2    
   133   67   68 2    
   134   67   69 am   BACKBONE|DICT|INTERRES
   135   69   70 1    
   136   69  190 1    
   137   70   71 1    
   138   70   72 1    
   139   70  191 1    
   140   71  192 1    
   141   71  193 1    
   142   71  194 1    
   143   72   73 2    
   144   72   74 am   BACKBONE|DICT|INTERRES
   145   74   75 1    
   146   74  195 1    
   147   75   76 1    
   148   75   77 1    
   149   75  196 1    
   150   76  197 1    
   151   76  198 1    
   152   76  199 1    
   153   77   78 2    
   154   77   79 am   BACKBONE|DICT|INTERRES
   155   79   80 1    
   156   79  200 1    
   157   80   81 1    
   158   80   82 1    
   159   80  201 1    
   160   81  202 1    
   161   81  203 1    
   162   81  204 1    
   163   82   83 2    
   164   82   84 am   BACKBONE|DICT|INTERRES
   165   84   85 1    
   166   84  205 1    
   167   85   86 1    
   168   85   87 1    
   169   85  206 1    
   170   86  207 1    
   171   86  208 1    
   172   86  209 1    
   173   87   88 2    
   174   87   89 am   BACKBONE|DICT|INTERRES
   175   89   90 1    
   176   89  210 1    
   177   90   91 1    
   178   90   92 1    
   179   90  211 1    
   180   91  212 1    
   181   91  213 1    
   182   91  214 1    
   183   92   93 2    
   184   92   94 am   BACKBONE|DICT|INTERRES
   185   94   95 1    
   186   94  215 1    
   187   95   96 1    
   188   95   97 1    
   189   95  216 1    
   190   96  217 1    
   191   96  218 1    
   192   96  219 1    
   193   97   98 2    
   194   97   99 am   BACKBONE|DICT|INTERRES
   195   99  100 1    
   196   99  220 1    
   197  100  101 1    
   198  100  102 1    
   199  100  221 1    
   200  101  222 1    
   201  101  223 1    
   202  101  224 1    
   203  102  103 2    
   204  102  104 am   BACKBONE|DICT|INTERRES
   205  104  105 1    
   206  104  225 1    
   207  105  106 1    
   208  105  107 1    
   209  105  226 1    
   210  106  227 1    
   211  106  228 1    
   212  106  229 1    
   213  107  108 2    
   214  107  109 am   BACKBONE|DICT|INTERRES
   215  109  110 1    
   216  109  230 1    
   217  110  111 1    
   218  110  112 1    
   219  110  231 1    
   220  111  232 1    
   221  111  233 1    
   222  111  234 1    
   223  112  113 2    
   224  112  114 am   BACKBONE|DICT|INTERRES
   225  114  115 1    
   226  114  235 1    
   227  115  116 1    
   228  115  117 1    
   229  115  236 1    
   230  116  237 1    
   231  116  238 1    
   232  116  239 1    
   233  117  118 2    
   234  117  119 am   BACKBONE|DICT|INTERRES
   235  119  120 1    
   236  119  240 1    
   237  120  121 1    
   238  120  124 1    
   239  120  241 1    
   240  121  122 am   BACKBONE|DICT|INTERRES
   241  121  123 2    
   242  122  242 1    
   243  122  243 1    
   244  124  125 1    
   245  124  244 1    
   246  124  245 1    
   247  125  126 1    
   248  126  246 1    
   249  126  247 1    
@<TRIPOS>SUBSTRUCTURE
     1 UNK         1 GROUP             0       ****    0 ROOT    
