@<TRIPOS>MOLECULE
3R540
247   249    1
SMALL
USER_CHARGES


@<TRIPOS>ATOM
      1 CA          0.4495  -15.4869  -48.6934 C.3       0 UNK        -0.1800 
      2 C          -0.3864  -14.2080  -48.7405 C.2       0 UNK         0.5000 
      3 O          -1.4050  -14.1355  -48.0586 O.2       0 UNK        -0.5000 
      4 N          -0.0132  -13.1552  -49.4850 N.am      1 UNK        -0.5000 
      5 CA          1.1309  -12.9834  -50.3991 C.3       1 UNK         0.1400 
      6 C6          1.0128  -13.7663  -51.7397 C.3       23 UNK        -0.0398 
      7 S7         -0.6337  -13.6150  -52.5268 S.3       23 UNK        -0.2404 
      8 C8         -0.8747  -15.2497  -53.3014 C.3       23 UNK        -0.0205 
      9 C9         -0.8941  -16.3879  -52.2902 C.ar      23 UNK        -0.0193 
     10 C10         0.2138  -17.2314  -52.1706 C.ar      23 UNK        -0.1150 
     11 C11         0.2245  -18.2600  -51.2269 C.ar      23 UNK        -0.0193 
     12 C12        -0.8949  -18.4591  -50.4156 C.ar      23 UNK        -0.1150 
     13 C13        -2.0130  -17.6263  -50.5258 C.ar      23 UNK        -0.0193 
     14 C14        -2.0087  -16.5942  -51.4701 C.ar      23 UNK        -0.1150 
     15 C15        -3.2083  -17.8387  -49.6072 C.3       23 UNK        -0.0205 
     16 S16        -2.7668  -17.4925  -47.8715 S.3       23 UNK        -0.2404 
     17 C17        -3.7236  -18.7476  -46.9589 C.3       23 UNK        -0.0398 
     18 CA         -3.1064  -20.1658  -47.0566 C.3       11 UNK         0.1400 
     19 N          -1.7216  -20.2208  -46.5735 N.am      11 UNK        -0.5000 
     20 C          -0.7932  -21.0954  -46.9818 C.2       10 UNK         0.5000 
     21 O          -1.0060  -21.9657  -47.8273 O.2       10 UNK        -0.5000 
     22 CA          0.5721  -21.0616  -46.2799 C.3       10 UNK         0.1400 
     23 CB          1.4630  -19.9612  -46.8689 C.3       10 UNK        -0.1800 
     24 N           0.4733  -20.9007  -44.8309 N.am      10 UNK        -0.5000 
     25 C          -0.1188  -21.7709  -43.9995 C.2       9 UNK         0.5000 
     26 O          -0.7141  -22.7824  -44.3747 O.2       9 UNK        -0.5000 
     27 CA         -0.0217  -21.4587  -42.4982 C.3       9 UNK         0.1400 
     28 CB          1.3792  -21.7933  -41.9626 C.3       9 UNK        -0.1800 
     29 N          -0.3167  -20.0519  -42.2368 N.am      9 UNK        -0.5000 
     30 C          -1.5402  -19.5782  -41.9666 C.2       8 UNK         0.5000 
     31 O          -2.5329  -20.2917  -41.8177 O.2       8 UNK        -0.5000 
     32 CA         -1.6918  -18.0476  -41.8487 C.3       8 UNK         0.1400 
     33 CB         -1.5430  -17.6090  -40.3839 C.3       8 UNK        -0.1800 
     34 N          -0.7548  -17.2840  -42.6769 N.am      8 UNK        -0.5000 
     35 C          -0.6777  -17.3597  -44.0136 C.2       7 UNK         0.5000 
     36 O          -1.3942  -18.0870  -44.6985 O.2       7 UNK        -0.5000 
     37 CA          0.4250  -16.5334  -44.6974 C.3       7 UNK         0.1400 
     38 CB         -0.0414  -15.0889  -44.9209 C.3       7 UNK        -0.1800 
     39 N           1.6920  -16.5259  -43.9654 N.am      7 UNK        -0.5000 
     40 C           2.4039  -17.6063  -43.6136 C.2       6 UNK         0.5000 
     41 O           2.0458  -18.7655  -43.8206 O.2       6 UNK        -0.5000 
     42 CA          3.7190  -17.3414  -42.8675 C.3       6 UNK         0.1400 
     43 CB          4.8026  -16.8219  -43.8264 C.3       6 UNK        -0.1800 
     44 N           3.5109  -16.3794  -41.7881 N.am      6 UNK        -0.5000 
     45 C           3.0350  -16.6995  -40.5770 C.2       5 UNK         0.5000 
     46 O           2.8002  -17.8534  -40.2169 O.2       5 UNK        -0.5000 
     47 CA          2.7623  -15.5357  -39.6041 C.3       5 UNK         0.1400 
     48 CB          4.0018  -15.2547  -38.7411 C.3       5 UNK        -0.1800 
     49 N           2.3547  -14.2983  -40.2725 N.am      5 UNK        -0.5000 
     50 C           1.2059  -14.1391  -40.9434 C.2       4 UNK         0.5000 
     51 O           0.3621  -15.0248  -41.0803 O.2       4 UNK        -0.5000 
     52 CA          0.9858  -12.7704  -41.6153 C.3       4 UNK         0.1400 
     53 CB          0.4118  -11.7640  -40.6067 C.3       4 UNK        -0.1800 
     54 N           2.1792  -12.1952  -42.2489 N.am      4 UNK        -0.5000 
     55 C           2.9431  -12.8072  -43.1635 C.2       3 UNK         0.5000 
     56 O           2.8229  -13.9939  -43.4756 O.2       3 UNK        -0.5000 
     57 CA          4.0443  -11.9620  -43.8313 C.3       3 UNK         0.1400 
     58 CB          5.3580  -12.0880  -43.0453 C.3       3 UNK        -0.1800 
     59 N           4.2743  -12.3905  -45.2134 N.am      3 UNK        -0.5000 
     60 C           3.3599  -12.3182  -46.1897 C.2       2 UNK         0.5000 
     61 O           2.2805  -11.7281  -46.0729 O.2       2 UNK        -0.5000 
     62 CA          3.6929  -13.0510  -47.5008 C.3       2 UNK         0.1400 
     63 CB          3.9810  -14.5471  -47.2441 C.3       2 UNK        -0.1800 
     64 N           2.5516  -12.9019  -48.3982 N.am      2 UNK        -0.5000 
     65 C           2.5066  -13.1616  -49.7095 C.2       1 UNK         0.5000 
     66 O           3.4830  -13.5341  -50.3615 O.2       1 UNK        -0.5000 
     67 C          -3.9807  -21.2568  -46.3994 C.2       11 UNK         0.5000 
     68 O          -5.0571  -20.9675  -45.8762 O.2       11 UNK        -0.5000 
     69 N          -3.4880  -22.4959  -46.4571 N.am      12 UNK        -0.5000 
     70 CA         -4.1109  -23.7322  -46.0124 C.3       12 UNK         0.1400 
     71 CB         -4.3376  -23.7455  -44.4869 C.3       12 UNK        -0.1800 
     72 C          -3.2179  -24.9022  -46.4436 C.2       12 UNK         0.5000 
     73 O          -3.6966  -25.8139  -47.1190 O.2       12 UNK        -0.5000 
     74 N          -1.9388  -24.8560  -46.0404 N.am      13 UNK        -0.5000 
     75 CA         -0.9785  -25.9397  -46.2476 C.3       13 UNK         0.1400 
     76 CB          0.1205  -25.8573  -45.1763 C.3       13 UNK        -0.1800 
     77 C          -0.3532  -25.9415  -47.6521 C.2       13 UNK         0.5000 
     78 O          -0.1908  -27.0150  -48.2339 O.2       13 UNK        -0.5000 
     79 N           0.0092  -24.7565  -48.1605 N.am      14 UNK        -0.5000 
     80 CA          0.6601  -24.5902  -49.4608 C.3       14 UNK         0.1400 
     81 CB          1.6972  -23.4569  -49.3812 C.3       14 UNK        -0.1800 
     82 C          -0.3871  -24.3197  -50.5493 C.2       14 UNK         0.5000 
     83 O          -0.4354  -25.0374  -51.5490 O.2       14 UNK        -0.5000 
     84 N          -1.2294  -23.3108  -50.3094 N.am      15 UNK        -0.5000 
     85 CA         -2.3777  -22.9662  -51.1311 C.3       15 UNK         0.1400 
     86 CB         -2.5561  -21.4450  -51.1115 C.3       15 UNK        -0.1800 
     87 C          -3.6037  -23.6788  -50.5513 C.2       15 UNK         0.5000 
     88 O          -4.1242  -23.2484  -49.5186 O.2       15 UNK        -0.5000 
     89 N          -4.0143  -24.7707  -51.2086 N.am      16 UNK        -0.5000 
     90 CA         -5.1368  -25.6291  -50.8285 C.3       16 UNK         0.1400 
     91 CB         -5.3025  -26.7348  -51.8828 C.3       16 UNK        -0.1800 
     92 C          -6.4446  -24.8362  -50.6516 C.2       16 UNK         0.5000 
     93 O          -6.9458  -24.2592  -51.6194 O.2       16 UNK        -0.5000 
     94 N          -6.9300  -24.7861  -49.4028 N.am      17 UNK        -0.5000 
     95 CA         -8.1070  -24.0395  -48.9420 C.3       17 UNK         0.1400 
     96 CB         -9.3971  -24.6671  -49.5104 C.3       17 UNK        -0.1800 
     97 C          -8.0216  -22.5183  -49.2056 C.2       17 UNK         0.5000 
     98 O          -9.0564  -21.8715  -49.3781 O.2       17 UNK        -0.5000 
     99 N          -6.7925  -21.9792  -49.2569 N.am      18 UNK        -0.5000 
    100 CA        -6.3998  -20.5973  -49.5598 C.3       18 UNK         0.1400 
    101 CB        -7.0491  -19.5912  -48.5894 C.3       18 UNK        -0.1800 
    102 C         -6.6518  -20.1766  -51.0192 C.2       18 UNK         0.5000 
    103 O         -5.7455  -19.6447  -51.6606 O.2       18 UNK        -0.5000 
    104 N         -7.8733  -20.4192  -51.5092 N.am      19 UNK        -0.5000 
    105 CA        -8.4140  -19.9726  -52.7942 C.3       19 UNK         0.1400 
    106 CB        -9.8862  -20.4032  -52.8811 C.3       19 UNK        -0.1800 
    107 C         -7.6413  -20.4538  -54.0360 C.2       19 UNK         0.5000 
    108 O         -7.7058  -19.7921  -55.0730 O.2       19 UNK        -0.5000 
    109 N         -6.9253  -21.5805  -53.9193 N.am      20 UNK        -0.5000 
    110 CA        -6.0750  -22.1251  -54.9784 C.3       20 UNK         0.1400 
    111 CB        -5.6380  -23.5456  -54.5887 C.3       20 UNK        -0.1800 
    112 C         -4.8391  -21.2551  -55.2859 C.2       20 UNK         0.5000 
    113 O         -4.3751  -21.2661  -56.4273 O.2       20 UNK        -0.5000 
    114 N         -4.3341  -20.5377  -54.2670 N.am      21 UNK        -0.5000 
    115 CA        -3.0770  -19.7761  -54.2358 C.3       21 UNK         0.1400 
    116 CB        -3.1372  -18.5857  -55.2154 C.3       21 UNK        -0.1800 
    117 C         -1.8207  -20.6530  -54.4623 C.2       21 UNK         0.5000 
    118 O         -1.9244  -21.8620  -54.6846 O.2       21 UNK        -0.5000 
    119 N         -0.6411  -20.0297  -54.3688 N.am      22 UNK        -0.5000 
    120 CA         0.6587  -20.6757  -54.6339 C.3       22 UNK         0.1400 
    121 C          1.1506  -20.5064  -56.1023 C.2       22 UNK         0.5000 
    122 N          0.4288  -19.8153  -56.9768 N.am      22 UNK        -0.7600 
    123 O          2.2037  -21.0246  -56.4636 O.2       22 UNK        -0.5000 
    124 C124        1.7454  -20.2326  -53.6232 C.3       23 UNK        -0.0398 
    125 S125        1.3379  -20.7112  -51.9095 S.3       23 UNK        -0.2404 
    126 C126        1.4634  -19.1200  -51.0413 C.3       23 UNK        -0.0205 
    127 H127        0.9790  -15.6871  -49.6200 H         1 UNK         0.0600 
    128 H128       -0.1884  -16.3463  -48.4975 H         1 UNK         0.0600 
    129 H129        1.1758  -15.4303  -47.8848 H         1 UNK         0.0600 
    130 H130       -0.6183  -12.3473  -49.4515 H         1 UNK         0.3000 
    131 H131        1.1010  -11.9260  -50.6660 H         1 UNK         0.0600 
    132 H132        1.7481  -13.3895  -52.4525 H         1 UNK         0.0800 
    133 H133        1.2631  -14.8143  -51.5993 H         1 UNK         0.0800 
    134 H134       -0.0939  -15.4086  -54.0468 H         1 UNK         0.0800 
    135 H135       -1.8184  -15.2429  -53.8486 H         1 UNK         0.0800 
    136 H136        1.0826  -17.0659  -52.7918 H         1 UNK         0.1150 
    137 H137       -0.8862  -19.2483  -49.6767 H         1 UNK         0.1150 
    138 H138       -2.8630  -15.9376  -51.5562 H         1 UNK         0.1150 
    139 H139       -4.0419  -17.1968  -49.8956 H         1 UNK         0.0800 
    140 H140       -3.5602  -18.8621  -49.7245 H         1 UNK         0.0800 
    141 H141       -4.7431  -18.7347  -47.3384 H         1 UNK         0.0800 
    142 H142       -3.7865  -18.4350  -45.9155 H         1 UNK         0.0800 
    143 H143       -3.0955  -20.4235  -48.1118 H         1 UNK         0.0600 
    144 H144       -1.4856  -19.5433  -45.8512 H         1 UNK         0.3000 
    145 H145        1.0612  -22.0206  -46.4624 H         1 UNK         0.0600 
    146 H146        2.4245  -19.9107  -46.3578 H         1 UNK         0.0600 
    147 H147        1.6685  -20.1626  -47.9185 H         1 UNK         0.0600 
    148 H148        0.9931  -18.9801  -46.8036 H         1 UNK         0.0600 
    149 H149        0.9623  -20.1008  -44.4354 H         1 UNK         0.3000 
    150 H150       -0.7390  -22.0949  -41.9753 H         1 UNK         0.0600 
    151 H151        1.6257  -22.8403  -42.1440 H         1 UNK         0.0600 
    152 H152        1.4379  -21.6267  -40.8869 H         1 UNK         0.0600 
    153 H153        2.1521  -21.1867  -42.4361 H         1 UNK         0.0600 
    154 H154        0.4367  -19.3937  -42.3884 H         1 UNK         0.3000 
    155 H155       -2.7014  -17.7961  -42.1796 H         1 UNK         0.0600 
    156 H156       -0.5261  -17.7644  -40.0206 H         1 UNK         0.0600 
    157 H157       -2.2158  -18.1702  -39.7341 H         1 UNK         0.0600 
    158 H158       -1.7842  -16.5529  -40.2631 H         1 UNK         0.0600 
    159 H159       -0.1531  -16.6271  -42.1893 H         1 UNK         0.3000 
    160 H160        0.6153  -16.9786  -45.6748 H         1 UNK         0.0600 
    161 H161       -0.2380  -14.5821  -43.9769 H         1 UNK         0.0600 
    162 H162       -0.9629  -15.0652  -45.5038 H         1 UNK         0.0600 
    163 H163        0.7045  -14.5088  -45.4650 H         1 UNK         0.0600 
    164 H164        2.0752  -15.6081  -43.7463 H         1 UNK         0.3000 
    165 H165        4.0678  -18.2877  -42.4482 H         1 UNK         0.0600 
    166 H166        5.7489  -16.6741  -43.3060 H         1 UNK         0.0600 
    167 H167        4.9821  -17.5348  -44.6320 H         1 UNK         0.0600 
    168 H168        4.5238  -15.8736  -44.2863 H         1 UNK         0.0600 
    169 H169        3.5984  -15.4017  -42.0335 H         1 UNK         0.3000 
    170 H170        1.9489  -15.8442  -38.9438 H         1 UNK         0.0600 
    171 H171        4.3188  -16.1527  -38.2089 H         1 UNK         0.0600 
    172 H172        4.8446  -14.9163  -39.3452 H         1 UNK         0.0600 
    173 H173        3.7960  -14.4902  -37.9917 H         1 UNK         0.0600 
    174 H174        2.9960  -13.5203  -40.2262 H         1 UNK         0.3000 
    175 H175        0.2437  -12.9123  -42.4023 H         1 UNK         0.0600 
    176 H176        1.1269  -11.5331  -39.8162 H         1 UNK         0.0600 
    177 H177        0.1364  -10.8289  -41.0947 H         1 UNK         0.0600 
    178 H178       -0.4881  -12.1569  -40.1312 H         1 UNK         0.0600 
    179 H179        2.3659  -11.2257  -42.0371 H         1 UNK         0.3000 
    180 H180        3.7332  -10.9154  -43.8420 H         1 UNK         0.0600 
    181 H181        5.7100  -13.1202  -43.0123 H         1 UNK         0.0600 
    182 H182        5.2325  -11.7513  -42.0154 H         1 UNK         0.0600 
    183 H183        6.1447  -11.4790  -43.4910 H         1 UNK         0.0600 
    184 H184        5.1232  -12.9094  -45.3809 H         1 UNK         0.3000 
    185 H185        4.5648  -12.5747  -47.9530 H         1 UNK         0.0600 
    186 H186        4.9029  -14.6795  -46.6776 H         1 UNK         0.0600 
    187 H187        3.1800  -15.0184  -46.6729 H         1 UNK         0.0600 
    188 H188        4.1004  -15.1034  -48.1735 H         1 UNK         0.0600 
    189 H189        1.7258  -12.5376  -47.9367 H         1 UNK         0.3000 
    190 H190       -2.6094  -22.6120  -46.9528 H         1 UNK         0.3000 
    191 H191       -5.0726  -23.8326  -46.5192 H         1 UNK         0.0600 
    192 H192       -3.4204  -23.5241  -43.9399 H         1 UNK         0.0600 
    193 H193       -4.6929  -24.7213  -44.1536 H         1 UNK         0.0600 
    194 H194       -5.0873  -23.0141  -44.1866 H         1 UNK         0.0600 
    195 H195       -1.6230  -24.0778  -45.4653 H         1 UNK         0.3000 
    196 H196       -1.4970  -26.8918  -46.1142 H         1 UNK         0.0600 
    197 H197        0.8151  -26.6935  -45.2651 H         1 UNK         0.0600 
    198 H198       -0.3032  -25.8912  -44.1724 H         1 UNK         0.0600 
    199 H199        0.7020  -24.9387  -45.2631 H         1 UNK         0.0600 
    200 H200       -0.2291  -23.9099  -47.6607 H         1 UNK         0.3000 
    201 H201        1.1963  -25.5032  -49.7286 H         1 UNK         0.0600 
    202 H202        2.4414  -23.6576  -48.6106 H         1 UNK         0.0600 
    203 H203        1.2405  -22.4922  -49.1611 H         1 UNK         0.0600 
    204 H204        2.2292  -23.3542  -50.3276 H         1 UNK         0.0600 
    205 H205       -1.1421  -22.8003  -49.4338 H         1 UNK         0.3000 
    206 H206       -2.2242  -23.2780  -52.1666 H         1 UNK         0.0600 
    207 H207       -1.7173  -20.9497  -51.5973 H         1 UNK         0.0600 
    208 H208       -3.4688  -21.1511  -51.6268 H         1 UNK         0.0600 
    209 H209       -2.6138  -21.0630  -50.0975 H         1 UNK         0.0600 
    210 H210       -3.5062  -25.0518  -52.0342 H         1 UNK         0.3000 
    211 H211       -4.8774  -26.1023  -49.8790 H         1 UNK         0.0600 
    212 H212       -5.5093  -26.3216  -52.8710 H         1 UNK         0.0600 
    213 H213       -6.1289  -27.3984  -51.6252 H         1 UNK         0.0600 
    214 H214       -4.4045  -27.3485  -51.9565 H         1 UNK         0.0600 
    215 H215       -6.4139  -25.2662  -48.6782 H         1 UNK         0.3000 
    216 H216       -8.1348  -24.1532  -47.8575 H         1 UNK         0.0600 
    217 H217      -10.2837  -24.2176  -49.0616 H         1 UNK         0.0600 
    218 H218       -9.4394  -25.7366  -49.3047 H         1 UNK         0.0600 
    219 H219       -9.4720  -24.5297  -50.5896 H         1 UNK         0.0600 
    220 H220       -6.0060  -22.6160  -49.1657 H         1 UNK         0.3000 
    221 H221       -5.3215  -20.5620  -49.4018 H         1 UNK         0.0600 
    222 H222       -8.1278  -19.5198  -48.7292 H         1 UNK         0.0600 
    223 H223       -6.8703  -19.8676  -47.5511 H         1 UNK         0.0600 
    224 H224       -6.6439  -18.5902  -48.7415 H         1 UNK         0.0600 
    225 H225       -8.5237  -20.8895  -50.8848 H         1 UNK         0.3000 
    226 H226       -8.3760  -18.8816  -52.7974 H         1 UNK         0.0600 
    227 H227      -10.4703  -19.9797  -52.0639 H         1 UNK         0.0600 
    228 H228      -10.3408  -20.0653  -53.8134 H         1 UNK         0.0600 
    229 H229       -9.9883  -21.4885  -52.8388 H         1 UNK         0.0600 
    230 H230       -6.9485  -22.0850  -53.0430 H         1 UNK         0.3000 
    231 H231       -6.6703  -22.1904  -55.8916 H         1 UNK         0.0600 
    232 H232       -6.4987  -24.1974  -54.4376 H         1 UNK         0.0600 
    233 H233       -5.0517  -23.5450  -53.6695 H         1 UNK         0.0600 
    234 H234       -5.0228  -23.9943  -55.3696 H         1 UNK         0.0600 
    235 H235       -4.8413  -20.5534  -53.3900 H         1 UNK         0.3000 
    236 H236       -2.9989  -19.3675  -53.2271 H         1 UNK         0.0600 
    237 H237       -3.1116  -18.9115  -56.2555 H         1 UNK         0.0600 
    238 H238       -4.0486  -18.0054  -55.0698 H         1 UNK         0.0600 
    239 H239       -2.2995  -17.9043  -55.0643 H         1 UNK         0.0600 
    240 H240       -0.6109  -19.0474  -54.1398 H         1 UNK         0.3000 
    241 H241        0.5481  -21.7541  -54.5059 H         1 UNK         0.0600 
    242 H242       -0.4478  -19.4003  -56.7074 H         1 UNK         0.3800 
    243 H243        0.7580  -19.7207  -57.9250 H         1 UNK         0.3800 
    244 H244        1.9108  -19.1573  -53.6915 H         1 UNK         0.0800 
    245 H245        2.7035  -20.6987  -53.8592 H         1 UNK         0.0800 
    246 H246        2.3584  -18.5880  -51.3673 H         1 UNK         0.0800 
    247 H247        1.6059  -19.3129  -49.9799 H         1 UNK         0.0800 
@<TRIPOS>BOND
     1    1    2 1    
     2    1  127 1    
     3    1  128 1    
     4    1  129 1    
     5    2    3 2    
     6    2    4 am   BACKBONE|DICT|INTERRES
     7    4    5 1    
     8    4  130 1    
     9    5    6 1    
    10    5   65 1    
    11    5  131 1    
    12    6    7 1    
    13    6  132 1    
    14    6  133 1    
    15    7    8 1    
    16    8    9 1    
    17    8  134 1    
    18    8  135 1    
    19    9   10 ar   
    20    9   14 ar   
    21   10   11 ar   
    22   10  136 1    
    23   11   12 ar   
    24   11  126 1    
    25   12   13 ar   
    26   12  137 1    
    27   13   14 ar   
    28   13   15 1    
    29   14  138 1    
    30   15   16 1    
    31   15  139 1    
    32   15  140 1    
    33   16   17 1    
    34   17   18 1    
    35   17  141 1    
    36   17  142 1    
    37   18   19 1    
    38   18   67 1    
    39   18  143 1    
    40   19   20 am   BACKBONE|DICT|INTERRES
    41   19  144 1    
    42   20   21 2    
    43   20   22 1    
    44   22   23 1    
    45   22   24 1    
    46   22  145 1    
    47   23  146 1    
    48   23  147 1    
    49   23  148 1    
    50   24   25 am   BACKBONE|DICT|INTERRES
    51   24  149 1    
    52   25   26 2    
    53   25   27 1    
    54   27   28 1    
    55   27   29 1    
    56   27  150 1    
    57   28  151 1    
    58   28  152 1    
    59   28  153 1    
    60   29   30 am   BACKBONE|DICT|INTERRES
    61   29  154 1    
    62   30   31 2    
    63   30   32 1    
    64   32   33 1    
    65   32   34 1    
    66   32  155 1    
    67   33  156 1    
    68   33  157 1    
    69   33  158 1    
    70   34   35 am   BACKBONE|DICT|INTERRES
    71   34  159 1    
    72   35   36 2    
    73   35   37 1    
    74   37   38 1    
    75   37   39 1    
    76   37  160 1    
    77   38  161 1    
    78   38  162 1    
    79   38  163 1    
    80   39   40 am   BACKBONE|DICT|INTERRES
    81   39  164 1    
    82   40   41 2    
    83   40   42 1    
    84   42   43 1    
    85   42   44 1    
    86   42  165 1    
    87   43  166 1    
    88   43  167 1    
    89   43  168 1    
    90   44   45 am   BACKBONE|DICT|INTERRES
    91   44  169 1    
    92   45   46 2    
    93   45   47 1    
    94   47   48 1    
    95   47   49 1    
    96   47  170 1    
    97   48  171 1    
    98   48  172 1    
    99   48  173 1    
   100   49   50 am   BACKBONE|DICT|INTERRES
   101   49  174 1    
   102   50   51 2    
   103   50   52 1    
   104   52   53 1    
   105   52   54 1    
   106   52  175 1    
   107   53  176 1    
   108   53  177 1    
   109   53  178 1    
   110   54   55 am   BACKBONE|DICT|INTERRES
   111   54  179 1    
   112   55   56 2    
   113   55   57 1    
   114   57   58 1    
   115   57   59 1    
   116   57  180 1    
   117   58  181 1    
   118   58  182 1    
   119   58  183 1    
   120   59   60 am   BACKBONE|DICT|INTERRES
   121   59  184 1    
   122   60   61 2    
   123   60   62 1    
   124   62   63 1    
   125   62   64 1    
   126   62  185 1    
   127   63  186 1    
   128   63  187 1    
   129   63  188 1    
   130   64   65 am   BACKBONE|DICT|INTERRES
   131   64  189 1    
   132   65   66 2    
   133   67   68 2    
   134   67   69 am   BACKBONE|DICT|INTERRES
   135   69   70 1    
   136   69  190 1    
   137   70   71 1    
   138   70   72 1    
   139   70  191 1    
   140   71  192 1    
   141   71  193 1    
   142   71  194 1    
   143   72   73 2    
   144   72   74 am   BACKBONE|DICT|INTERRES
   145   74   75 1    
   146   74  195 1    
   147   75   76 1    
   148   75   77 1    
   149   75  196 1    
   150   76  197 1    
   151   76  198 1    
   152   76  199 1    
   153   77   78 2    
   154   77   79 am   BACKBONE|DICT|INTERRES
   155   79   80 1    
   156   79  200 1    
   157   80   81 1    
   158   80   82 1    
   159   80  201 1    
   160   81  202 1    
   161   81  203 1    
   162   81  204 1    
   163   82   83 2    
   164   82   84 am   BACKBONE|DICT|INTERRES
   165   84   85 1    
   166   84  205 1    
   167   85   86 1    
   168   85   87 1    
   169   85  206 1    
   170   86  207 1    
   171   86  208 1    
   172   86  209 1    
   173   87   88 2    
   174   87   89 am   BACKBONE|DICT|INTERRES
   175   89   90 1    
   176   89  210 1    
   177   90   91 1    
   178   90   92 1    
   179   90  211 1    
   180   91  212 1    
   181   91  213 1    
   182   91  214 1    
   183   92   93 2    
   184   92   94 am   BACKBONE|DICT|INTERRES
   185   94   95 1    
   186   94  215 1    
   187   95   96 1    
   188   95   97 1    
   189   95  216 1    
   190   96  217 1    
   191   96  218 1    
   192   96  219 1    
   193   97   98 2    
   194   97   99 am   BACKBONE|DICT|INTERRES
   195   99  100 1    
   196   99  220 1    
   197  100  101 1    
   198  100  102 1    
   199  100  221 1    
   200  101  222 1    
   201  101  223 1    
   202  101  224 1    
   203  102  103 2    
   204  102  104 am   BACKBONE|DICT|INTERRES
   205  104  105 1    
   206  104  225 1    
   207  105  106 1    
   208  105  107 1    
   209  105  226 1    
   210  106  227 1    
   211  106  228 1    
   212  106  229 1    
   213  107  108 2    
   214  107  109 am   BACKBONE|DICT|INTERRES
   215  109  110 1    
   216  109  230 1    
   217  110  111 1    
   218  110  112 1    
   219  110  231 1    
   220  111  232 1    
   221  111  233 1    
   222  111  234 1    
   223  112  113 2    
   224  112  114 am   BACKBONE|DICT|INTERRES
   225  114  115 1    
   226  114  235 1    
   227  115  116 1    
   228  115  117 1    
   229  115  236 1    
   230  116  237 1    
   231  116  238 1    
   232  116  239 1    
   233  117  118 2    
   234  117  119 am   BACKBONE|DICT|INTERRES
   235  119  120 1    
   236  119  240 1    
   237  120  121 1    
   238  120  124 1    
   239  120  241 1    
   240  121  122 am   BACKBONE|DICT|INTERRES
   241  121  123 2    
   242  122  242 1    
   243  122  243 1    
   244  124  125 1    
   245  124  244 1    
   246  124  245 1    
   247  125  126 1    
   248  126  246 1    
   249  126  247 1    
@<TRIPOS>SUBSTRUCTURE
     1 UNK         1 GROUP             0       ****    0 ROOT    
