@<TRIPOS>MOLECULE
3R540
247   249    1
SMALL
USER_CHARGES


@<TRIPOS>ATOM
      1 CA          6.0754  -11.8042  -52.5710 C.3       0 UNK        -0.1800 
      2 C           5.4800  -12.6945  -51.4889 C.2       0 UNK         0.5000 
      3 O           6.0373  -13.7513  -51.1901 O.2       0 UNK        -0.5000 
      4 N           4.3482  -12.2767  -50.9086 N.am      1 UNK        -0.5000 
      5 CA          3.6722  -12.9625  -49.8032 C.3       1 UNK         0.1400 
      6 C6          2.1992  -12.4944  -49.6722 C.3       23 UNK        -0.0398 
      7 S7          1.1422  -13.7571  -48.8830 S.3       23 UNK        -0.2404 
      8 C8          0.3333  -14.4800  -50.3433 C.3       23 UNK        -0.0205 
      9 C9         -0.3887  -15.7701  -49.9916 C.ar      23 UNK        -0.0193 
     10 C10        -1.6389  -15.7293  -49.3688 C.ar      23 UNK        -0.1150 
     11 C11        -2.3076  -16.9116  -49.0382 C.ar      23 UNK        -0.0193 
     12 C12        -1.7133  -18.1417  -49.3364 C.ar      23 UNK        -0.1150 
     13 C13        -0.4678  -18.1959  -49.9710 C.ar      23 UNK        -0.0193 
     14 C14         0.1895  -17.0058  -50.2944 C.ar      23 UNK        -0.1150 
     15 C15         0.1524  -19.5365  -50.3412 C.3       23 UNK        -0.0205 
     16 S16         1.6737  -19.9157  -49.4065 S.3       23 UNK        -0.2404 
     17 C17         1.0686  -20.0175  -47.6886 C.3       23 UNK        -0.0398 
     18 CA          0.7807  -21.4585  -47.1975 C.3       11 UNK         0.1400 
     19 N           0.6232  -21.5046  -45.7417 N.am      11 UNK        -0.5000 
     20 C           0.4196  -22.6073  -45.0065 C.2       10 UNK         0.5000 
     21 O           0.4118  -23.7488  -45.4656 O.2       10 UNK        -0.5000 
     22 CA          0.1148  -22.3925  -43.5127 C.3       10 UNK         0.1400 
     23 CB          1.4053  -22.1536  -42.7153 C.3       10 UNK        -0.1800 
     24 N          -0.8224  -21.2902  -43.2858 N.am      10 UNK        -0.5000 
     25 C          -2.0909  -21.2766  -43.7223 C.2       9 UNK         0.5000 
     26 O          -2.6185  -22.2167  -44.3168 O.2       9 UNK        -0.5000 
     27 CA         -2.8926  -19.9815  -43.4989 C.3       9 UNK         0.1400 
     28 CB         -3.4129  -19.9022  -42.0562 C.3       9 UNK        -0.1800 
     29 N          -2.1217  -18.7786  -43.8177 N.am      9 UNK        -0.5000 
     30 C          -1.6629  -18.4767  -45.0411 C.2       8 UNK         0.5000 
     31 O          -1.8882  -19.1610  -46.0383 O.2       8 UNK        -0.5000 
     32 CA         -0.7520  -17.2401  -45.1626 C.3       8 UNK         0.1400 
     33 CB         -1.5719  -15.9424  -45.2027 C.3       8 UNK        -0.1800 
     34 N           0.2250  -17.1582  -44.0777 N.am      8 UNK        -0.5000 
     35 C           1.1866  -18.0611  -43.8428 C.2       7 UNK         0.5000 
     36 O           1.3896  -19.0440  -44.5524 O.2       7 UNK        -0.5000 
     37 CA          2.0277  -17.8633  -42.5717 C.3       7 UNK         0.1400 
     38 CB          3.1361  -16.8270  -42.7970 C.3       7 UNK        -0.1800 
     39 N           1.2041  -17.4652  -41.4322 N.am      7 UNK        -0.5000 
     40 C           0.3282  -18.2728  -40.8187 C.2       6 UNK         0.5000 
     41 O           0.1407  -19.4477  -41.1353 O.2       6 UNK        -0.5000 
     42 CA         -0.5041  -17.6457  -39.6865 C.3       6 UNK         0.1400 
     43 CB          0.2848  -17.6443  -38.3687 C.3       6 UNK        -0.1800 
     44 N          -0.9338  -16.2813  -39.9987 N.am      6 UNK        -0.5000 
     45 C          -1.8085  -15.9727  -40.9658 C.2       5 UNK         0.5000 
     46 O          -2.3534  -16.8068  -41.6875 O.2       5 UNK        -0.5000 
     47 CA         -2.0894  -14.4773  -41.1919 C.3       5 UNK         0.1400 
     48 CB         -3.1451  -13.9687  -40.1988 C.3       5 UNK        -0.1800 
     49 N          -0.8939  -13.6327  -41.1094 N.am      5 UNK        -0.5000 
     50 C           0.1637  -13.7309  -41.9245 C.2       4 UNK         0.5000 
     51 O           0.2991  -14.6141  -42.7746 O.2       4 UNK        -0.5000 
     52 CA          1.2587  -12.6715  -41.7706 C.3       4 UNK         0.1400 
     53 CB          2.4414  -13.2091  -40.9494 C.3       4 UNK        -0.1800 
     54 N           1.7081  -12.3122  -43.1103 N.am      4 UNK        -0.5000 
     55 C           2.0151  -11.0783  -43.5232 C.2       3 UNK         0.5000 
     56 O           2.0446  -10.0988  -42.7752 O.2       3 UNK        -0.5000 
     57 CA          2.3109  -10.9147  -45.0307 C.3       3 UNK         0.1400 
     58 CB          3.0444   -9.5982  -45.3637 C.3       3 UNK        -0.1800 
     59 N           3.0099  -12.0591  -45.6281 N.am      3 UNK        -0.5000 
     60 C           4.2298  -12.5228  -45.3108 C.2       2 UNK         0.5000 
     61 O           4.9242  -12.0773  -44.3967 O.2       2 UNK        -0.5000 
     62 CA          4.7768  -13.6765  -46.1769 C.3       2 UNK         0.1400 
     63 CB          4.5024  -15.0274  -45.5012 C.3       2 UNK        -0.1800 
     64 N           4.2215  -13.7063  -47.5330 N.am      2 UNK        -0.5000 
     65 C           4.4433  -12.7805  -48.4758 C.2       1 UNK         0.5000 
     66 O           5.1822  -11.8051  -48.3151 O.2       1 UNK        -0.5000 
     67 C          -0.4401  -22.0701  -47.9120 C.2       11 UNK         0.5000 
     68 O          -0.2718  -22.9516  -48.7542 O.2       11 UNK        -0.5000 
     69 N          -1.6442  -21.6195  -47.5341 N.am      12 UNK        -0.5000 
     70 CA         -2.9138  -22.0980  -48.0736 C.3       12 UNK         0.1400 
     71 CB         -4.0638  -21.2512  -47.5041 C.3       12 UNK        -0.1800 
     72 C          -3.1526  -23.5979  -47.8233 C.2       12 UNK         0.5000 
     73 O          -3.5328  -24.3171  -48.7496 O.2       12 UNK        -0.5000 
     74 N          -2.8865  -24.0449  -46.5881 N.am      13 UNK        -0.5000 
     75 CA         -2.9863  -25.4429  -46.1690 C.3       13 UNK         0.1400 
     76 CB         -2.7902  -25.5354  -44.6482 C.3       13 UNK        -0.1800 
     77 C          -1.9963  -26.3664  -46.9025 C.2       13 UNK         0.5000 
     78 O          -2.3687  -27.4822  -47.2674 O.2       13 UNK        -0.5000 
     79 N          -0.7642  -25.8844  -47.1173 N.am      14 UNK        -0.5000 
     80 CA          0.2755  -26.5858  -47.8694 C.3       14 UNK         0.1400 
     81 CB          1.6314  -25.9054  -47.6261 C.3       14 UNK        -0.1800 
     82 C          -0.0289  -26.6638  -49.3767 C.2       14 UNK         0.5000 
     83 O           0.2692  -27.6844  -49.9985 O.2       14 UNK        -0.5000 
     84 N          -0.6035  -25.5886  -49.9335 N.am      15 UNK        -0.5000 
     85 CA         -0.9644  -25.4660  -51.3433 C.3       15 UNK         0.1400 
     86 CB         -1.3688  -24.0167  -51.6515 C.3       15 UNK        -0.1800 
     87 C          -2.0772  -26.4358  -51.7703 C.2       15 UNK         0.5000 
     88 O          -1.8598  -27.2412  -52.6763 O.2       15 UNK        -0.5000 
     89 N          -3.2492  -26.3145  -51.1258 N.am      16 UNK        -0.5000 
     90 CA         -4.4807  -27.0707  -51.4006 C.3       16 UNK         0.1400 
     91 CB         -4.3205  -28.5309  -50.9298 C.3       16 UNK        -0.1800 
     92 C          -4.9699  -26.9606  -52.8690 C.2       16 UNK         0.5000 
     93 O          -5.4830  -27.9347  -53.4236 O.2       16 UNK        -0.5000 
     94 N          -4.7896  -25.7804  -53.4776 N.am      17 UNK        -0.5000 
     95 CA         -5.1075  -25.4798  -54.8755 C.3       17 UNK         0.1400 
     96 CB         -3.9217  -25.8908  -55.7735 C.3       17 UNK        -0.1800 
     97 C          -5.4988  -23.9948  -55.0042 C.2       17 UNK         0.5000 
     98 O          -6.0962  -23.4477  -54.0774 O.2       17 UNK        -0.5000 
     99 N          -5.1368  -23.3329  -56.1133 N.am      18 UNK        -0.5000 
    100 CA        -5.3997  -21.9059  -56.3624 C.3       18 UNK         0.1400 
    101 CB        -4.9329  -21.5458  -57.7802 C.3       18 UNK        -0.1800 
    102 C         -4.7521  -20.9622  -55.3263 C.2       18 UNK         0.5000 
    103 O         -5.2950  -19.8949  -55.0369 O.2       18 UNK        -0.5000 
    104 N         -3.6295  -21.4006  -54.7440 N.am      19 UNK        -0.5000 
    105 CA        -2.9561  -20.7392  -53.6289 C.3       19 UNK         0.1400 
    106 CB        -1.4640  -21.1072  -53.6503 C.3       19 UNK        -0.1800 
    107 C         -3.6170  -21.0098  -52.2585 C.2       19 UNK         0.5000 
    108 O         -3.2821  -20.3145  -51.3034 O.2       19 UNK        -0.5000 
    109 N         -4.5754  -21.9490  -52.1735 N.am      20 UNK        -0.5000 
    110 CA        -5.4443  -22.1187  -50.9998 C.3       20 UNK         0.1400 
    111 CB        -5.9360  -23.5666  -50.8851 C.3       20 UNK        -0.1800 
    112 C         -6.6268  -21.1370  -51.0212 C.2       20 UNK         0.5000 
    113 O         -7.0971  -20.7283  -49.9603 O.2       20 UNK        -0.5000 
    114 N         -7.0429  -20.7292  -52.2287 N.am      21 UNK        -0.5000 
    115 CA        -7.9084  -19.5706  -52.4619 C.3       21 UNK         0.1400 
    116 CB        -8.6081  -19.7361  -53.8206 C.3       21 UNK        -0.1800 
    117 C         -7.1267  -18.2381  -52.3922 C.2       21 UNK         0.5000 
    118 O         -7.7429  -17.1730  -52.4454 O.2       21 UNK        -0.5000 
    119 N         -5.7948  -18.3272  -52.2642 N.am      22 UNK        -0.5000 
    120 CA        -4.8305  -17.2264  -52.1142 C.3       22 UNK         0.1400 
    121 C         -4.6842  -16.3502  -53.3931 C.2       22 UNK         0.5000 
    122 N         -4.9180  -16.8979  -54.5816 N.am      22 UNK        -0.7600 
    123 O         -4.3351  -15.1751  -53.3203 O.2       22 UNK        -0.5000 
    124 C124       -5.0403  -16.4140  -50.8043 C.3       23 UNK        -0.0398 
    125 S125       -5.0331  -17.4988  -49.3294 S.3       23 UNK        -0.2404 
    126 C126       -3.6554  -16.8519  -48.3309 C.3       23 UNK        -0.0205 
    127 H127        5.4729  -10.9112  -52.7388 H         1 UNK         0.0600 
    128 H128        6.1426  -12.3505  -53.5118 H         1 UNK         0.0600 
    129 H129        7.0791  -11.4884  -52.2862 H         1 UNK         0.0600 
    130 H130        3.9621  -11.3818  -51.1732 H         1 UNK         0.3000 
    131 H131        3.6735  -14.0278  -50.0465 H         1 UNK         0.0600 
    132 H132        1.7835  -12.2731  -50.6565 H         1 UNK         0.0800 
    133 H133        2.1242  -11.5611  -49.1105 H         1 UNK         0.0800 
    134 H134        1.0790  -14.6673  -51.1179 H         1 UNK         0.0800 
    135 H135       -0.3740  -13.7618  -50.7609 H         1 UNK         0.0800 
    136 H136       -2.0843  -14.7729  -49.1334 H         1 UNK         0.1150 
    137 H137       -2.2299  -19.0570  -49.0836 H         1 UNK         0.1150 
    138 H138        1.1532  -17.0454  -50.7826 H         1 UNK         0.1150 
    139 H139       -0.5701  -20.3442  -50.2177 H         1 UNK         0.0800 
    140 H140        0.4038  -19.5171  -51.4018 H         1 UNK         0.0800 
    141 H141        0.2017  -19.3716  -47.5579 H         1 UNK         0.0800 
    142 H142        1.8527  -19.5785  -47.0715 H         1 UNK         0.0800 
    143 H143        1.6465  -22.0792  -47.4370 H         1 UNK         0.0600 
    144 H144        0.6695  -20.6092  -45.2612 H         1 UNK         0.3000 
    145 H145       -0.3502  -23.3057  -43.1358 H         1 UNK         0.0600 
    146 H146        1.1994  -22.0767  -41.6476 H         1 UNK         0.0600 
    147 H147        2.1070  -22.9770  -42.8533 H         1 UNK         0.0600 
    148 H148        1.9087  -21.2377  -43.0246 H         1 UNK         0.0600 
    149 H149       -0.4728  -20.4941  -42.7624 H         1 UNK         0.3000 
    150 H150       -3.7557  -20.0083  -44.1671 H         1 UNK         0.0600 
    151 H151       -3.9957  -20.7883  -41.8016 H         1 UNK         0.0600 
    152 H152       -4.0612  -19.0366  -41.9193 H         1 UNK         0.0600 
    153 H153       -2.5978  -19.8261  -41.3363 H         1 UNK         0.0600 
    154 H154       -1.9443  -18.1356  -43.0515 H         1 UNK         0.3000 
    155 H155       -0.2026  -17.3220  -46.1028 H         1 UNK         0.0600 
    156 H156       -2.1320  -15.7906  -44.2801 H         1 UNK         0.0600 
    157 H157       -2.2873  -15.9537  -46.0230 H         1 UNK         0.0600 
    158 H158       -0.9274  -15.0754  -45.3493 H         1 UNK         0.0600 
    159 H159        0.1581  -16.3462  -43.4691 H         1 UNK         0.3000 
    160 H160        2.5021  -18.8172  -42.3313 H         1 UNK         0.0600 
    161 H161        2.7304  -15.8554  -43.0794 H         1 UNK         0.0600 
    162 H162        3.8055  -17.1507  -43.5945 H         1 UNK         0.0600 
    163 H163        3.7414  -16.6920  -41.9006 H         1 UNK         0.0600 
    164 H164        1.2578  -16.4999  -41.1446 H         1 UNK         0.3000 
    165 H165       -1.3961  -18.2608  -39.5496 H         1 UNK         0.0600 
    166 H166       -0.3249  -17.2726  -37.5450 H         1 UNK         0.0600 
    167 H167        0.6046  -18.6534  -38.1052 H         1 UNK         0.0600 
    168 H168        1.1786  -17.0226  -38.4326 H         1 UNK         0.0600 
    169 H169       -0.5287  -15.5337  -39.4550 H         1 UNK         0.3000 
    170 H170       -2.4966  -14.3719  -42.1997 H         1 UNK         0.0600 
    171 H171       -4.0530  -14.5713  -40.2516 H         1 UNK         0.0600 
    172 H172       -2.7844  -14.0078  -39.1702 H         1 UNK         0.0600 
    173 H173       -3.4281  -12.9388  -40.4169 H         1 UNK         0.0600 
    174 H174       -0.9206  -12.8855  -40.4303 H         1 UNK         0.3000 
    175 H175        0.8346  -11.8000  -41.2672 H         1 UNK         0.0600 
    176 H176        2.9011  -14.0770  -41.4223 H         1 UNK         0.0600 
    177 H177        3.2133  -12.4484  -40.8318 H         1 UNK         0.0600 
    178 H178        2.1220  -13.5069  -39.9501 H         1 UNK         0.0600 
    179 H179        1.6572  -13.0633  -43.7859 H         1 UNK         0.3000 
    180 H180        1.3361  -10.8724  -45.5186 H         1 UNK         0.0600 
    181 H181        4.0086   -9.5330  -44.8587 H         1 UNK         0.0600 
    182 H182        2.4558   -8.7326  -45.0577 H         1 UNK         0.0600 
    183 H183        3.2210   -9.5061  -46.4355 H         1 UNK         0.0600 
    184 H184        2.5242  -12.5183  -46.3853 H         1 UNK         0.3000 
    185 H185        5.8580  -13.5449  -46.2559 H         1 UNK         0.0600 
    186 H186        4.9601  -15.8473  -46.0548 H         1 UNK         0.0600 
    187 H187        4.9162  -15.0475  -44.4922 H         1 UNK         0.0600 
    188 H188        3.4330  -15.2286  -45.4253 H         1 UNK         0.0600 
    189 H189        3.5912  -14.4680  -47.7412 H         1 UNK         0.3000 
    190 H190       -1.6982  -20.8668  -46.8518 H         1 UNK         0.3000 
    191 H191       -2.8691  -21.9494  -49.1527 H         1 UNK         0.0600 
    192 H192       -4.0582  -21.2458  -46.4145 H         1 UNK         0.0600 
    193 H193       -5.0361  -21.6309  -47.8191 H         1 UNK         0.0600 
    194 H194       -3.9940  -20.2171  -47.8418 H         1 UNK         0.0600 
    195 H195       -2.6101  -23.3755  -45.8745 H         1 UNK         0.3000 
    196 H196       -3.9954  -25.7875  -46.4037 H         1 UNK         0.0600 
    197 H197       -2.8753  -26.5669  -44.3042 H         1 UNK         0.0600 
    198 H198       -3.5430  -24.9519  -44.1180 H         1 UNK         0.0600 
    199 H199       -1.8091  -25.1668  -44.3467 H         1 UNK         0.0600 
    200 H200       -0.5157  -24.9766  -46.7355 H         1 UNK         0.3000 
    201 H201        0.3383  -27.6078  -47.4898 H         1 UNK         0.0600 
    202 H202        1.8956  -25.9219  -46.5686 H         1 UNK         0.0600 
    203 H203        1.6236  -24.8645  -47.9519 H         1 UNK         0.0600 
    204 H204        2.4285  -26.4148  -48.1688 H         1 UNK         0.0600 
    205 H205       -0.7466  -24.7640  -49.3579 H         1 UNK         0.3000 
    206 H206       -0.0787  -25.6995  -51.9378 H         1 UNK         0.0600 
    207 H207       -0.5145  -23.3438  -51.5756 H         1 UNK         0.0600 
    208 H208       -1.7646  -23.9415  -52.6635 H         1 UNK         0.0600 
    209 H209       -2.1400  -23.6516  -50.9734 H         1 UNK         0.0600 
    210 H210       -3.3081  -25.6359  -50.3719 H         1 UNK         0.3000 
    211 H211       -5.2617  -26.6200  -50.7874 H         1 UNK         0.0600 
    212 H212       -3.5893  -29.0717  -51.5314 H         1 UNK         0.0600 
    213 H213       -5.2651  -29.0717  -50.9965 H         1 UNK         0.0600 
    214 H214       -3.9957  -28.5746  -49.8898 H         1 UNK         0.0600 
    215 H215       -4.4165  -25.0133  -52.9394 H         1 UNK         0.3000 
    216 H216       -5.9873  -26.0531  -55.1740 H         1 UNK         0.0600 
    217 H217       -4.1587  -25.7726  -56.8313 H         1 UNK         0.0600 
    218 H218       -3.6641  -26.9398  -55.6252 H         1 UNK         0.0600 
    219 H219       -3.0298  -25.3011  -55.5578 H         1 UNK         0.0600 
    220 H220       -4.6451  -23.8341  -56.8392 H         1 UNK         0.3000 
    221 H221       -6.4795  -21.7524  -56.3082 H         1 UNK         0.0600 
    222 H222       -3.8614  -21.7075  -57.9048 H         1 UNK         0.0600 
    223 H223       -5.4529  -22.1419  -58.5303 H         1 UNK         0.0600 
    224 H224       -5.1351  -20.4973  -58.0036 H         1 UNK         0.0600 
    225 H225       -3.2422  -22.2790  -55.0550 H         1 UNK         0.3000 
    226 H226       -3.0185  -19.6586  -53.7761 H         1 UNK         0.0600 
    227 H227       -0.9387  -20.5292  -54.4107 H         1 UNK         0.0600 
    228 H228       -0.9816  -20.8974  -52.6966 H         1 UNK         0.0600 
    229 H229       -1.3010  -22.1580  -53.8797 H         1 UNK         0.0600 
    230 H230       -4.8567  -22.4576  -53.0047 H         1 UNK         0.3000 
    231 H231       -4.8672  -21.9029  -50.1056 H         1 UNK         0.0600 
    232 H232       -5.1028  -24.2599  -50.9561 H         1 UNK         0.0600 
    233 H233       -6.6656  -23.8235  -51.6520 H         1 UNK         0.0600 
    234 H234       -6.4131  -23.7333  -49.9187 H         1 UNK         0.0600 
    235 H235       -6.6318  -21.1513  -53.0493 H         1 UNK         0.3000 
    236 H236       -8.6772  -19.5387  -51.6871 H         1 UNK         0.0600 
    237 H237       -9.3061  -18.9180  -54.0018 H         1 UNK         0.0600 
    238 H238       -7.8966  -19.7461  -54.6460 H         1 UNK         0.0600 
    239 H239       -9.1793  -20.6638  -53.8593 H         1 UNK         0.0600 
    240 H240       -5.3970  -19.2515  -52.2166 H         1 UNK         0.3000 
    241 H241       -3.8572  -17.7085  -52.0181 H         1 UNK         0.0600 
    242 H242       -5.1806  -17.8746  -54.6627 H         1 UNK         0.3800 
    243 H243       -4.8207  -16.3371  -55.4129 H         1 UNK         0.3800 
    244 H244       -5.9870  -15.8736  -50.8344 H         1 UNK         0.0800 
    245 H245       -4.2643  -15.6553  -50.6972 H         1 UNK         0.0800 
    246 H246       -3.5966  -17.4402  -47.4147 H         1 UNK         0.0800 
    247 H247       -3.8905  -15.8312  -48.0257 H         1 UNK         0.0800 
@<TRIPOS>BOND
     1    1    2 1    
     2    1  127 1    
     3    1  128 1    
     4    1  129 1    
     5    2    3 2    
     6    2    4 am   BACKBONE|DICT|INTERRES
     7    4    5 1    
     8    4  130 1    
     9    5    6 1    
    10    5   65 1    
    11    5  131 1    
    12    6    7 1    
    13    6  132 1    
    14    6  133 1    
    15    7    8 1    
    16    8    9 1    
    17    8  134 1    
    18    8  135 1    
    19    9   10 ar   
    20    9   14 ar   
    21   10   11 ar   
    22   10  136 1    
    23   11   12 ar   
    24   11  126 1    
    25   12   13 ar   
    26   12  137 1    
    27   13   14 ar   
    28   13   15 1    
    29   14  138 1    
    30   15   16 1    
    31   15  139 1    
    32   15  140 1    
    33   16   17 1    
    34   17   18 1    
    35   17  141 1    
    36   17  142 1    
    37   18   19 1    
    38   18   67 1    
    39   18  143 1    
    40   19   20 am   BACKBONE|DICT|INTERRES
    41   19  144 1    
    42   20   21 2    
    43   20   22 1    
    44   22   23 1    
    45   22   24 1    
    46   22  145 1    
    47   23  146 1    
    48   23  147 1    
    49   23  148 1    
    50   24   25 am   BACKBONE|DICT|INTERRES
    51   24  149 1    
    52   25   26 2    
    53   25   27 1    
    54   27   28 1    
    55   27   29 1    
    56   27  150 1    
    57   28  151 1    
    58   28  152 1    
    59   28  153 1    
    60   29   30 am   BACKBONE|DICT|INTERRES
    61   29  154 1    
    62   30   31 2    
    63   30   32 1    
    64   32   33 1    
    65   32   34 1    
    66   32  155 1    
    67   33  156 1    
    68   33  157 1    
    69   33  158 1    
    70   34   35 am   BACKBONE|DICT|INTERRES
    71   34  159 1    
    72   35   36 2    
    73   35   37 1    
    74   37   38 1    
    75   37   39 1    
    76   37  160 1    
    77   38  161 1    
    78   38  162 1    
    79   38  163 1    
    80   39   40 am   BACKBONE|DICT|INTERRES
    81   39  164 1    
    82   40   41 2    
    83   40   42 1    
    84   42   43 1    
    85   42   44 1    
    86   42  165 1    
    87   43  166 1    
    88   43  167 1    
    89   43  168 1    
    90   44   45 am   BACKBONE|DICT|INTERRES
    91   44  169 1    
    92   45   46 2    
    93   45   47 1    
    94   47   48 1    
    95   47   49 1    
    96   47  170 1    
    97   48  171 1    
    98   48  172 1    
    99   48  173 1    
   100   49   50 am   BACKBONE|DICT|INTERRES
   101   49  174 1    
   102   50   51 2    
   103   50   52 1    
   104   52   53 1    
   105   52   54 1    
   106   52  175 1    
   107   53  176 1    
   108   53  177 1    
   109   53  178 1    
   110   54   55 am   BACKBONE|DICT|INTERRES
   111   54  179 1    
   112   55   56 2    
   113   55   57 1    
   114   57   58 1    
   115   57   59 1    
   116   57  180 1    
   117   58  181 1    
   118   58  182 1    
   119   58  183 1    
   120   59   60 am   BACKBONE|DICT|INTERRES
   121   59  184 1    
   122   60   61 2    
   123   60   62 1    
   124   62   63 1    
   125   62   64 1    
   126   62  185 1    
   127   63  186 1    
   128   63  187 1    
   129   63  188 1    
   130   64   65 am   BACKBONE|DICT|INTERRES
   131   64  189 1    
   132   65   66 2    
   133   67   68 2    
   134   67   69 am   BACKBONE|DICT|INTERRES
   135   69   70 1    
   136   69  190 1    
   137   70   71 1    
   138   70   72 1    
   139   70  191 1    
   140   71  192 1    
   141   71  193 1    
   142   71  194 1    
   143   72   73 2    
   144   72   74 am   BACKBONE|DICT|INTERRES
   145   74   75 1    
   146   74  195 1    
   147   75   76 1    
   148   75   77 1    
   149   75  196 1    
   150   76  197 1    
   151   76  198 1    
   152   76  199 1    
   153   77   78 2    
   154   77   79 am   BACKBONE|DICT|INTERRES
   155   79   80 1    
   156   79  200 1    
   157   80   81 1    
   158   80   82 1    
   159   80  201 1    
   160   81  202 1    
   161   81  203 1    
   162   81  204 1    
   163   82   83 2    
   164   82   84 am   BACKBONE|DICT|INTERRES
   165   84   85 1    
   166   84  205 1    
   167   85   86 1    
   168   85   87 1    
   169   85  206 1    
   170   86  207 1    
   171   86  208 1    
   172   86  209 1    
   173   87   88 2    
   174   87   89 am   BACKBONE|DICT|INTERRES
   175   89   90 1    
   176   89  210 1    
   177   90   91 1    
   178   90   92 1    
   179   90  211 1    
   180   91  212 1    
   181   91  213 1    
   182   91  214 1    
   183   92   93 2    
   184   92   94 am   BACKBONE|DICT|INTERRES
   185   94   95 1    
   186   94  215 1    
   187   95   96 1    
   188   95   97 1    
   189   95  216 1    
   190   96  217 1    
   191   96  218 1    
   192   96  219 1    
   193   97   98 2    
   194   97   99 am   BACKBONE|DICT|INTERRES
   195   99  100 1    
   196   99  220 1    
   197  100  101 1    
   198  100  102 1    
   199  100  221 1    
   200  101  222 1    
   201  101  223 1    
   202  101  224 1    
   203  102  103 2    
   204  102  104 am   BACKBONE|DICT|INTERRES
   205  104  105 1    
   206  104  225 1    
   207  105  106 1    
   208  105  107 1    
   209  105  226 1    
   210  106  227 1    
   211  106  228 1    
   212  106  229 1    
   213  107  108 2    
   214  107  109 am   BACKBONE|DICT|INTERRES
   215  109  110 1    
   216  109  230 1    
   217  110  111 1    
   218  110  112 1    
   219  110  231 1    
   220  111  232 1    
   221  111  233 1    
   222  111  234 1    
   223  112  113 2    
   224  112  114 am   BACKBONE|DICT|INTERRES
   225  114  115 1    
   226  114  235 1    
   227  115  116 1    
   228  115  117 1    
   229  115  236 1    
   230  116  237 1    
   231  116  238 1    
   232  116  239 1    
   233  117  118 2    
   234  117  119 am   BACKBONE|DICT|INTERRES
   235  119  120 1    
   236  119  240 1    
   237  120  121 1    
   238  120  124 1    
   239  120  241 1    
   240  121  122 am   BACKBONE|DICT|INTERRES
   241  121  123 2    
   242  122  242 1    
   243  122  243 1    
   244  124  125 1    
   245  124  244 1    
   246  124  245 1    
   247  125  126 1    
   248  126  246 1    
   249  126  247 1    
@<TRIPOS>SUBSTRUCTURE
     1 UNK         1 GROUP             0       ****    0 ROOT    
