@<TRIPOS>MOLECULE
3R540
247   249    1
SMALL
USER_CHARGES


@<TRIPOS>ATOM
      1 CA          1.8840  -10.2533  -52.6636 C.3       0 UNK        -0.1800 
      2 C           1.6818  -11.5749  -51.9357 C.2       0 UNK         0.5000 
      3 O           2.6140  -12.3740  -51.8490 O.2       0 UNK        -0.5000 
      4 N           0.4682  -11.8062  -51.4184 N.am      1 UNK        -0.5000 
      5 CA          0.0814  -13.0158  -50.6812 C.3       1 UNK         0.1400 
      6 C6         -1.4527  -13.0923  -50.4748 C.3       23 UNK        -0.0398 
      7 S7         -2.3167  -13.4982  -52.0302 S.3       23 UNK        -0.2404 
      8 C8         -3.1093  -15.0907  -51.6155 C.3       23 UNK        -0.0205 
      9 C9         -2.1379  -16.1362  -51.0762 C.ar      23 UNK        -0.0193 
     10 C10        -0.9625  -16.4488  -51.7675 C.ar      23 UNK        -0.1150 
     11 C11        -0.0646  -17.3896  -51.2582 C.ar      23 UNK        -0.0193 
     12 C12        -0.3606  -18.0353  -50.0537 C.ar      23 UNK        -0.1150 
     13 C13        -1.5343  -17.7403  -49.3546 C.ar      23 UNK        -0.0193 
     14 C14        -2.4148  -16.7847  -49.8680 C.ar      23 UNK        -0.1150 
     15 C15        -1.8381  -18.4359  -48.0362 C.3       23 UNK        -0.0205 
     16 S16        -3.0409  -19.7783  -48.2501 S.3       23 UNK        -0.2404 
     17 C17        -2.9242  -20.6305  -46.6442 C.3       23 UNK        -0.0398 
     18 CA         -1.9716  -21.8468  -46.7115 C.3       11 UNK         0.1400 
     19 N          -0.5577  -21.4597  -46.6801 N.am      11 UNK        -0.5000 
     20 C           0.4267  -22.2210  -47.1736 C.2       10 UNK         0.5000 
     21 O           0.2433  -23.3334  -47.6654 O.2       10 UNK        -0.5000 
     22 CA          1.8606  -21.6745  -47.0588 C.3       10 UNK         0.1400 
     23 CB          2.1002  -20.5686  -48.0975 C.3       10 UNK        -0.1800 
     24 N           2.2154  -21.1704  -45.7297 N.am      10 UNK        -0.5000 
     25 C           2.1084  -21.8478  -44.5790 C.2       9 UNK         0.5000 
     26 O           1.6094  -22.9688  -44.4906 O.2       9 UNK        -0.5000 
     27 CA          2.6369  -21.1693  -43.3085 C.3       9 UNK         0.1400 
     28 CB          3.7204  -20.1031  -43.5650 C.3       9 UNK        -0.1800 
     29 N           1.5194  -20.5628  -42.5938 N.am      9 UNK        -0.5000 
     30 C           1.2868  -20.6931  -41.2809 C.2       8 UNK         0.5000 
     31 O           1.9726  -21.3968  -40.5377 O.2       8 UNK        -0.5000 
     32 CA          0.1063  -19.9039  -40.6790 C.3       8 UNK         0.1400 
     33 CB          0.5698  -19.0422  -39.4918 C.3       8 UNK        -0.1800 
     34 N          -0.5277  -19.0241  -41.6601 N.am      8 UNK        -0.5000 
     35 C          -1.7143  -19.2395  -42.2427 C.2       7 UNK         0.5000 
     36 O          -2.4259  -20.2157  -42.0090 O.2       7 UNK        -0.5000 
     37 CA         -2.1908  -18.1934  -43.2705 C.3       7 UNK         0.1400 
     38 CB         -3.1677  -17.2116  -42.6075 C.3       7 UNK        -0.1800 
     39 N          -1.1023  -17.4468  -43.9110 N.am      7 UNK        -0.5000 
     40 C          -0.1388  -17.9936  -44.6677 C.2       6 UNK         0.5000 
     41 O          -0.1130  -19.1864  -44.9759 O.2       6 UNK        -0.5000 
     42 CA          1.0299  -17.0905  -45.1021 C.3       6 UNK         0.1400 
     43 CB          0.8350  -16.5698  -46.5303 C.3       6 UNK        -0.1800 
     44 N           1.2951  -15.9657  -44.2037 N.am      6 UNK        -0.5000 
     45 C           1.6973  -16.0775  -42.9290 C.2       5 UNK         0.5000 
     46 O           1.7630  -17.1494  -42.3267 O.2       5 UNK        -0.5000 
     47 CA          2.0782  -14.7761  -42.2072 C.3       5 UNK         0.1400 
     48 CB          3.4596  -14.2878  -42.6710 C.3       5 UNK        -0.1800 
     49 N           1.0873  -13.7352  -42.4675 N.am      5 UNK        -0.5000 
     50 C           0.1156  -13.3789  -41.6173 C.2       4 UNK         0.5000 
     51 O           0.0079  -13.8217  -40.4731 O.2       4 UNK        -0.5000 
     52 CA         -0.9293  -12.3668  -42.1325 C.3       4 UNK         0.1400 
     53 CB         -0.5306  -10.9361  -41.7399 C.3       4 UNK        -0.1800 
     54 N          -1.1477  -12.4201  -43.5806 N.am      4 UNK        -0.5000 
     55 C          -1.5972  -13.4905  -44.2497 C.2       3 UNK         0.5000 
     56 O          -1.8875  -14.5596  -43.7163 O.2       3 UNK        -0.5000 
     57 CA         -1.6870  -13.3713  -45.7805 C.3       3 UNK         0.1400 
     58 CB         -3.0659  -12.8423  -46.2008 C.3       3 UNK        -0.1800 
     59 N          -0.6458  -12.5537  -46.4119 N.am      3 UNK        -0.5000 
     60 C           0.6820  -12.6781  -46.2557 C.2       2 UNK         0.5000 
     61 O           1.2115  -13.3884  -45.3980 O.2       2 UNK        -0.5000 
     62 CA          1.5464  -11.8967  -47.2702 C.3       2 UNK         0.1400 
     63 CB          3.0356  -12.2968  -47.2219 C.3       2 UNK        -0.1800 
     64 N           1.0180  -12.0058  -48.6393 N.am      2 UNK        -0.5000 
     65 C           0.8021  -13.1428  -49.3248 C.2       1 UNK         0.5000 
     66 O           1.1188  -14.2615  -48.9239 O.2       1 UNK        -0.5000 
     67 C          -2.3091  -22.8929  -45.6334 C.2       11 UNK         0.5000 
     68 O          -3.2520  -23.6571  -45.8349 O.2       11 UNK        -0.5000 
     69 N          -1.5337  -22.9568  -44.5419 N.am      12 UNK        -0.5000 
     70 CA         -1.6580  -24.0115  -43.5341 C.3       12 UNK         0.1400 
     71 CB         -0.9215  -23.6095  -42.2467 C.3       12 UNK        -0.1800 
     72 C          -1.1468  -25.3584  -44.0759 C.2       12 UNK         0.5000 
     73 O          -1.8225  -26.3751  -43.9174 O.2       12 UNK        -0.5000 
     74 N           0.0135  -25.3271  -44.7456 N.am      13 UNK        -0.5000 
     75 CA          0.6438  -26.4764  -45.3937 C.3       13 UNK         0.1400 
     76 CB          2.0670  -26.0930  -45.8275 C.3       13 UNK        -0.1800 
     77 C          -0.1661  -27.0082  -46.5903 C.2       13 UNK         0.5000 
     78 O          -0.3225  -28.2221  -46.7265 O.2       13 UNK        -0.5000 
     79 N          -0.6786  -26.0936  -47.4249 N.am      14 UNK        -0.5000 
     80 CA         -1.4718  -26.4087  -48.6153 C.3       14 UNK         0.1400 
     81 CB         -1.3974  -25.2215  -49.5873 C.3       14 UNK        -0.1800 
     82 C          -2.9435  -26.7541  -48.3155 C.2       14 UNK         0.5000 
     83 O          -3.6531  -27.1560  -49.2369 O.2       14 UNK        -0.5000 
     84 N          -3.3916  -26.5599  -47.0655 N.am      15 UNK        -0.5000 
     85 CA         -4.7716  -26.7219  -46.5899 C.3       15 UNK         0.1400 
     86 CB         -5.1914  -28.2063  -46.6112 C.3       15 UNK        -0.1800 
     87 C          -5.7486  -25.7978  -47.3486 C.2       15 UNK         0.5000 
     88 O          -6.7536  -26.2528  -47.8966 O.2       15 UNK        -0.5000 
     89 N          -5.3836  -24.5098  -47.3916 N.am      16 UNK        -0.5000 
     90 CA         -6.0516  -23.3758  -48.0380 C.3       16 UNK         0.1400 
     91 CB         -7.4864  -23.1896  -47.5061 C.3       16 UNK        -0.1800 
     92 C          -6.0068  -23.3718  -49.5798 C.2       16 UNK         0.5000 
     93 O          -6.4595  -22.3959  -50.1767 O.2       16 UNK        -0.5000 
     94 N          -5.4329  -24.4029  -50.2189 N.am      17 UNK        -0.5000 
     95 CA         -5.3279  -24.5039  -51.6812 C.3       17 UNK         0.1400 
     96 CB         -4.8674  -25.9164  -52.0683 C.3       17 UNK        -0.1800 
     97 C          -4.4049  -23.4400  -52.3112 C.2       17 UNK         0.5000 
     98 O          -4.5907  -23.0841  -53.4752 O.2       17 UNK        -0.5000 
     99 N          -3.4501  -22.9277  -51.5225 N.am      18 UNK        -0.5000 
    100 CA        -2.5338  -21.8519  -51.9020 C.3       18 UNK         0.1400 
    101 CB        -1.3377  -21.8441  -50.9366 C.3       18 UNK        -0.1800 
    102 C         -3.1963  -20.4609  -51.9717 C.2       18 UNK         0.5000 
    103 O         -2.5857  -19.5459  -52.5205 O.2       18 UNK        -0.5000 
    104 N         -4.4284  -20.3125  -51.4560 N.am      19 UNK        -0.5000 
    105 CA        -5.1628  -19.0424  -51.4071 C.3       19 UNK         0.1400 
    106 CB        -6.4557  -19.2244  -50.6005 C.3       19 UNK        -0.1800 
    107 C         -5.4665  -18.4317  -52.7894 C.2       19 UNK         0.5000 
    108 O         -5.6562  -17.2189  -52.8876 O.2       19 UNK        -0.5000 
    109 N         -5.4505  -19.2598  -53.8427 N.am      20 UNK        -0.5000 
    110 CA        -5.5174  -18.8626  -55.2494 C.3       20 UNK         0.1400 
    111 CB        -6.0030  -20.0690  -56.0728 C.3       20 UNK        -0.1800 
    112 C         -4.1674  -18.3001  -55.7549 C.2       20 UNK         0.5000 
    113 O         -3.6343  -18.7771  -56.7590 O.2       20 UNK        -0.5000 
    114 N         -3.6262  -17.3097  -55.0299 N.am      21 UNK        -0.5000 
    115 CA        -2.3835  -16.5710  -55.2910 C.3       21 UNK         0.1400 
    116 CB        -2.5824  -15.6248  -56.4926 C.3       21 UNK        -0.1800 
    117 C         -1.1302  -17.4652  -55.4415 C.2       21 UNK         0.5000 
    118 O         -0.2292  -17.1280  -56.2119 O.2       21 UNK        -0.5000 
    119 N         -1.1060  -18.6008  -54.7296 N.am      22 UNK        -0.5000 
    120 CA        -0.1260  -19.6927  -54.8607 C.3       22 UNK         0.1400 
    121 C         -0.1010  -20.3824  -56.2642 C.2       22 UNK         0.5000 
    122 N         -1.1231  -20.2391  -57.1006 N.am      22 UNK        -0.7600 
    123 O          0.8407  -21.0983  -56.5945 O.2       22 UNK        -0.5000 
    124 C124        1.2849  -19.3009  -54.3306 C.3       23 UNK        -0.0398 
    125 S125        1.3943  -19.4020  -52.5107 S.3       23 UNK        -0.2404 
    126 C126        1.2501  -17.6672  -51.9751 C.3       23 UNK        -0.0205 
    127 H127        0.9764   -9.6491  -52.6681 H         1 UNK         0.0600 
    128 H128        2.6737   -9.6768  -52.1818 H         1 UNK         0.0600 
    129 H129        2.1759  -10.4355  -53.6978 H         1 UNK         0.0600 
    130 H130       -0.2621  -11.1212  -51.5511 H         1 UNK         0.3000 
    131 H131        0.3925  -13.8783  -51.2750 H         1 UNK         0.0600 
    132 H132       -1.8409  -12.1455  -50.0959 H         1 UNK         0.0800 
    133 H133       -1.7133  -13.8364  -49.7198 H         1 UNK         0.0800 
    134 H134       -3.5958  -15.4851  -52.5067 H         1 UNK         0.0800 
    135 H135       -3.9067  -14.9003  -50.8956 H         1 UNK         0.0800 
    136 H136       -0.7289  -15.9352  -52.6877 H         1 UNK         0.1150 
    137 H137        0.3309  -18.7654  -49.6613 H         1 UNK         0.1150 
    138 H138       -3.3193  -16.5518  -49.3241 H         1 UNK         0.1150 
    139 H139       -0.9224  -18.8506  -47.6178 H         1 UNK         0.0800 
    140 H140       -2.2170  -17.7153  -47.3100 H         1 UNK         0.0800 
    141 H141       -3.9386  -20.9360  -46.3810 H         1 UNK         0.0800 
    142 H142       -2.6086  -19.9321  -45.8728 H         1 UNK         0.0800 
    143 H143       -2.1603  -22.3529  -47.6603 H         1 UNK         0.0600 
    144 H144       -0.3264  -20.5892  -46.2080 H         1 UNK         0.3000 
    145 H145        2.5377  -22.5014  -47.2822 H         1 UNK         0.0600 
    146 H146        3.1543  -20.2954  -48.1467 H         1 UNK         0.0600 
    147 H147        1.8025  -20.8922  -49.0962 H         1 UNK         0.0600 
    148 H148        1.5333  -19.6691  -47.8587 H         1 UNK         0.0600 
    149 H149        2.6249  -20.2495  -45.7005 H         1 UNK         0.3000 
    150 H150        3.0877  -21.9649  -42.7118 H         1 UNK         0.0600 
    151 H151        3.3266  -19.2288  -44.0811 H         1 UNK         0.0600 
    152 H152        4.5399  -20.5071  -44.1609 H         1 UNK         0.0600 
    153 H153        4.1481  -19.7565  -42.6240 H         1 UNK         0.0600 
    154 H154        0.8815  -20.0079  -43.1499 H         1 UNK         0.3000 
    155 H155       -0.6102  -20.6374  -40.3043 H         1 UNK         0.0600 
    156 H156        1.3257  -18.3160  -39.7938 H         1 UNK         0.0600 
    157 H157        1.0017  -19.6576  -38.7017 H         1 UNK         0.0600 
    158 H158       -0.2646  -18.4942  -39.0539 H         1 UNK         0.0600 
    159 H159        0.0170  -18.2126  -41.9329 H         1 UNK         0.3000 
    160 H160       -2.7384  -18.7267  -44.0457 H         1 UNK         0.0600 
    161 H161       -2.6669  -16.5826  -41.8704 H         1 UNK         0.0600 
    162 H162       -3.9731  -17.7409  -42.0964 H         1 UNK         0.0600 
    163 H163       -3.6323  -16.5602  -43.3476 H         1 UNK         0.0600 
    164 H164       -1.0788  -16.4485  -43.7293 H         1 UNK         0.3000 
    165 H165        1.9273  -17.7095  -45.1047 H         1 UNK         0.0600 
    166 H166        1.6445  -15.8986  -46.8176 H         1 UNK         0.0600 
    167 H167        0.8363  -17.3875  -47.2491 H         1 UNK         0.0600 
    168 H168       -0.1032  -16.0297  -46.6455 H         1 UNK         0.0600 
    169 H169        1.2690  -15.0407  -44.6270 H         1 UNK         0.3000 
    170 H170        2.1393  -14.9908  -41.1382 H         1 UNK         0.0600 
    171 H171        3.4696  -14.0465  -43.7349 H         1 UNK         0.0600 
    172 H172        4.2211  -15.0495  -42.4988 H         1 UNK         0.0600 
    173 H173        3.7632  -13.3949  -42.1242 H         1 UNK         0.0600 
    174 H174        1.0751  -13.3530  -43.4073 H         1 UNK         0.3000 
    175 H175       -1.8783  -12.6035  -41.6471 H         1 UNK         0.0600 
    176 H176        0.3998  -10.6320  -42.2211 H         1 UNK         0.0600 
    177 H177       -1.3039  -10.2198  -42.0181 H         1 UNK         0.0600 
    178 H178       -0.3853  -10.8527  -40.6619 H         1 UNK         0.0600 
    179 H179       -0.9139  -11.5915  -44.1073 H         1 UNK         0.3000 
    180 H180       -1.5868  -14.3796  -46.1830 H         1 UNK         0.0600 
    181 H181       -3.1904  -12.8793  -47.2833 H         1 UNK         0.0600 
    182 H182       -3.2160  -11.8110  -45.8791 H         1 UNK         0.0600 
    183 H183       -3.8653  -13.4426  -45.7639 H         1 UNK         0.0600 
    184 H184       -0.9669  -11.9220  -47.1301 H         1 UNK         0.3000 
    185 H185        1.4767  -10.8452  -46.9889 H         1 UNK         0.0600 
    186 H186        3.6201  -11.7279  -47.9448 H         1 UNK         0.0600 
    187 H187        3.4598  -12.1031  -46.2360 H         1 UNK         0.0600 
    188 H188        3.1790  -13.3567  -47.4349 H         1 UNK         0.0600 
    189 H189        0.7412  -11.1366  -49.0737 H         1 UNK         0.3000 
    190 H190       -0.7375  -22.3404  -44.4677 H         1 UNK         0.3000 
    191 H191       -2.7155  -24.1290  -43.2870 H         1 UNK         0.0600 
    192 H192       -1.0471  -24.3706  -41.4759 H         1 UNK         0.0600 
    193 H193       -1.3133  -22.6759  -41.8450 H         1 UNK         0.0600 
    194 H194        0.1488  -23.4831  -42.4055 H         1 UNK         0.0600 
    195 H195        0.5227  -24.4470  -44.7913 H         1 UNK         0.3000 
    196 H196        0.7169  -27.2791  -44.6570 H         1 UNK         0.0600 
    197 H197        2.0620  -25.2660  -46.5389 H         1 UNK         0.0600 
    198 H198        2.6709  -25.7910  -44.9716 H         1 UNK         0.0600 
    199 H199        2.5722  -26.9346  -46.3028 H         1 UNK         0.0600 
    200 H200       -0.4456  -25.1140  -47.2856 H         1 UNK         0.3000 
    201 H201       -1.0297  -27.2761  -49.1096 H         1 UNK         0.0600 
    202 H202       -1.8616  -24.3307  -49.1643 H         1 UNK         0.0600 
    203 H203       -1.9036  -25.4451  -50.5262 H         1 UNK         0.0600 
    204 H204       -0.3634  -24.9778  -49.8320 H         1 UNK         0.0600 
    205 H205       -2.7355  -26.2033  -46.3842 H         1 UNK         0.3000 
    206 H206       -4.7790  -26.3925  -45.5497 H         1 UNK         0.0600 
    207 H207       -4.4896  -28.8208  -46.0474 H         1 UNK         0.0600 
    208 H208       -6.1750  -28.3383  -46.1591 H         1 UNK         0.0600 
    209 H209       -5.2435  -28.6023  -47.6257 H         1 UNK         0.0600 
    210 H210       -4.5383  -24.2607  -46.8776 H         1 UNK         0.3000 
    211 H211       -5.4808  -22.4981  -47.7318 H         1 UNK         0.0600 
    212 H212       -7.9180  -22.2553  -47.8671 H         1 UNK         0.0600 
    213 H213       -7.5019  -23.1526  -46.4168 H         1 UNK         0.0600 
    214 H214       -8.1476  -23.9953  -47.8258 H         1 UNK         0.0600 
    215 H215       -5.0997  -25.1910  -49.6796 H         1 UNK         0.3000 
    216 H216       -6.3269  -24.3522  -52.0953 H         1 UNK         0.0600 
    217 H217       -3.8536  -26.1194  -51.7247 H         1 UNK         0.0600 
    218 H218       -4.8760  -26.0451  -53.1513 H         1 UNK         0.0600 
    219 H219       -5.5237  -26.6771  -51.6450 H         1 UNK         0.0600 
    220 H220       -3.3819  -23.2707  -50.5772 H         1 UNK         0.3000 
    221 H221       -2.1518  -22.0653  -52.9024 H         1 UNK         0.0600 
    222 H222       -0.7390  -22.7480  -51.0433 H         1 UNK         0.0600 
    223 H223       -1.6545  -21.7721  -49.8980 H         1 UNK         0.0600 
    224 H224       -0.6783  -20.9983  -51.1308 H         1 UNK         0.0600 
    225 H225       -4.8908  -21.1121  -51.0421 H         1 UNK         0.3000 
    226 H226       -4.5337  -18.3281  -50.8745 H         1 UNK         0.0600 
    227 H227       -7.1347  -19.9268  -51.0849 H         1 UNK         0.0600 
    228 H228       -6.2454  -19.5948  -49.5968 H         1 UNK         0.0600 
    229 H229       -6.9854  -18.2771  -50.4923 H         1 UNK         0.0600 
    230 H230       -5.2504  -20.2339  -53.6649 H         1 UNK         0.3000 
    231 H231       -6.2573  -18.0668  -55.3560 H         1 UNK         0.0600 
    232 H232       -5.3059  -20.9058  -56.0089 H         1 UNK         0.0600 
    233 H233       -6.1105  -19.8080  -57.1264 H         1 UNK         0.0600 
    234 H234       -6.9760  -20.4170  -55.7257 H         1 UNK         0.0600 
    235 H235       -4.1441  -17.0242  -54.2055 H         1 UNK         0.3000 
    236 H236       -2.2092  -15.9464  -54.4167 H         1 UNK         0.0600 
    237 H237       -3.4551  -14.9871  -56.3517 H         1 UNK         0.0600 
    238 H238       -1.7221  -14.9672  -56.6229 H         1 UNK         0.0600 
    239 H239       -2.7174  -16.1782  -57.4225 H         1 UNK         0.0600 
    240 H240       -1.8487  -18.7811  -54.0579 H         1 UNK         0.3000 
    241 H241       -0.5041  -20.4843  -54.2134 H         1 UNK         0.0600 
    242 H242       -1.0940  -20.7024  -57.9946 H         1 UNK         0.3800 
    243 H243       -1.9288  -19.6666  -56.8638 H         1 UNK         0.3800 
    244 H244        1.5893  -18.3167  -54.6856 H         1 UNK         0.0800 
    245 H245        2.0499  -19.9850  -54.6993 H         1 UNK         0.0800 
    246 H246        2.0691  -17.4479  -51.2888 H         1 UNK         0.0800 
    247 H247        1.3800  -16.9938  -52.8230 H         1 UNK         0.0800 
@<TRIPOS>BOND
     1    1    2 1    
     2    1  127 1    
     3    1  128 1    
     4    1  129 1    
     5    2    3 2    
     6    2    4 am   BACKBONE|DICT|INTERRES
     7    4    5 1    
     8    4  130 1    
     9    5    6 1    
    10    5   65 1    
    11    5  131 1    
    12    6    7 1    
    13    6  132 1    
    14    6  133 1    
    15    7    8 1    
    16    8    9 1    
    17    8  134 1    
    18    8  135 1    
    19    9   10 ar   
    20    9   14 ar   
    21   10   11 ar   
    22   10  136 1    
    23   11   12 ar   
    24   11  126 1    
    25   12   13 ar   
    26   12  137 1    
    27   13   14 ar   
    28   13   15 1    
    29   14  138 1    
    30   15   16 1    
    31   15  139 1    
    32   15  140 1    
    33   16   17 1    
    34   17   18 1    
    35   17  141 1    
    36   17  142 1    
    37   18   19 1    
    38   18   67 1    
    39   18  143 1    
    40   19   20 am   BACKBONE|DICT|INTERRES
    41   19  144 1    
    42   20   21 2    
    43   20   22 1    
    44   22   23 1    
    45   22   24 1    
    46   22  145 1    
    47   23  146 1    
    48   23  147 1    
    49   23  148 1    
    50   24   25 am   BACKBONE|DICT|INTERRES
    51   24  149 1    
    52   25   26 2    
    53   25   27 1    
    54   27   28 1    
    55   27   29 1    
    56   27  150 1    
    57   28  151 1    
    58   28  152 1    
    59   28  153 1    
    60   29   30 am   BACKBONE|DICT|INTERRES
    61   29  154 1    
    62   30   31 2    
    63   30   32 1    
    64   32   33 1    
    65   32   34 1    
    66   32  155 1    
    67   33  156 1    
    68   33  157 1    
    69   33  158 1    
    70   34   35 am   BACKBONE|DICT|INTERRES
    71   34  159 1    
    72   35   36 2    
    73   35   37 1    
    74   37   38 1    
    75   37   39 1    
    76   37  160 1    
    77   38  161 1    
    78   38  162 1    
    79   38  163 1    
    80   39   40 am   BACKBONE|DICT|INTERRES
    81   39  164 1    
    82   40   41 2    
    83   40   42 1    
    84   42   43 1    
    85   42   44 1    
    86   42  165 1    
    87   43  166 1    
    88   43  167 1    
    89   43  168 1    
    90   44   45 am   BACKBONE|DICT|INTERRES
    91   44  169 1    
    92   45   46 2    
    93   45   47 1    
    94   47   48 1    
    95   47   49 1    
    96   47  170 1    
    97   48  171 1    
    98   48  172 1    
    99   48  173 1    
   100   49   50 am   BACKBONE|DICT|INTERRES
   101   49  174 1    
   102   50   51 2    
   103   50   52 1    
   104   52   53 1    
   105   52   54 1    
   106   52  175 1    
   107   53  176 1    
   108   53  177 1    
   109   53  178 1    
   110   54   55 am   BACKBONE|DICT|INTERRES
   111   54  179 1    
   112   55   56 2    
   113   55   57 1    
   114   57   58 1    
   115   57   59 1    
   116   57  180 1    
   117   58  181 1    
   118   58  182 1    
   119   58  183 1    
   120   59   60 am   BACKBONE|DICT|INTERRES
   121   59  184 1    
   122   60   61 2    
   123   60   62 1    
   124   62   63 1    
   125   62   64 1    
   126   62  185 1    
   127   63  186 1    
   128   63  187 1    
   129   63  188 1    
   130   64   65 am   BACKBONE|DICT|INTERRES
   131   64  189 1    
   132   65   66 2    
   133   67   68 2    
   134   67   69 am   BACKBONE|DICT|INTERRES
   135   69   70 1    
   136   69  190 1    
   137   70   71 1    
   138   70   72 1    
   139   70  191 1    
   140   71  192 1    
   141   71  193 1    
   142   71  194 1    
   143   72   73 2    
   144   72   74 am   BACKBONE|DICT|INTERRES
   145   74   75 1    
   146   74  195 1    
   147   75   76 1    
   148   75   77 1    
   149   75  196 1    
   150   76  197 1    
   151   76  198 1    
   152   76  199 1    
   153   77   78 2    
   154   77   79 am   BACKBONE|DICT|INTERRES
   155   79   80 1    
   156   79  200 1    
   157   80   81 1    
   158   80   82 1    
   159   80  201 1    
   160   81  202 1    
   161   81  203 1    
   162   81  204 1    
   163   82   83 2    
   164   82   84 am   BACKBONE|DICT|INTERRES
   165   84   85 1    
   166   84  205 1    
   167   85   86 1    
   168   85   87 1    
   169   85  206 1    
   170   86  207 1    
   171   86  208 1    
   172   86  209 1    
   173   87   88 2    
   174   87   89 am   BACKBONE|DICT|INTERRES
   175   89   90 1    
   176   89  210 1    
   177   90   91 1    
   178   90   92 1    
   179   90  211 1    
   180   91  212 1    
   181   91  213 1    
   182   91  214 1    
   183   92   93 2    
   184   92   94 am   BACKBONE|DICT|INTERRES
   185   94   95 1    
   186   94  215 1    
   187   95   96 1    
   188   95   97 1    
   189   95  216 1    
   190   96  217 1    
   191   96  218 1    
   192   96  219 1    
   193   97   98 2    
   194   97   99 am   BACKBONE|DICT|INTERRES
   195   99  100 1    
   196   99  220 1    
   197  100  101 1    
   198  100  102 1    
   199  100  221 1    
   200  101  222 1    
   201  101  223 1    
   202  101  224 1    
   203  102  103 2    
   204  102  104 am   BACKBONE|DICT|INTERRES
   205  104  105 1    
   206  104  225 1    
   207  105  106 1    
   208  105  107 1    
   209  105  226 1    
   210  106  227 1    
   211  106  228 1    
   212  106  229 1    
   213  107  108 2    
   214  107  109 am   BACKBONE|DICT|INTERRES
   215  109  110 1    
   216  109  230 1    
   217  110  111 1    
   218  110  112 1    
   219  110  231 1    
   220  111  232 1    
   221  111  233 1    
   222  111  234 1    
   223  112  113 2    
   224  112  114 am   BACKBONE|DICT|INTERRES
   225  114  115 1    
   226  114  235 1    
   227  115  116 1    
   228  115  117 1    
   229  115  236 1    
   230  116  237 1    
   231  116  238 1    
   232  116  239 1    
   233  117  118 2    
   234  117  119 am   BACKBONE|DICT|INTERRES
   235  119  120 1    
   236  119  240 1    
   237  120  121 1    
   238  120  124 1    
   239  120  241 1    
   240  121  122 am   BACKBONE|DICT|INTERRES
   241  121  123 2    
   242  122  242 1    
   243  122  243 1    
   244  124  125 1    
   245  124  244 1    
   246  124  245 1    
   247  125  126 1    
   248  126  246 1    
   249  126  247 1    
@<TRIPOS>SUBSTRUCTURE
     1 UNK         1 GROUP             0       ****    0 ROOT    
