@<TRIPOS>MOLECULE
3R540
247   249    1
SMALL
USER_CHARGES


@<TRIPOS>ATOM
      1 CA         -3.8782   -6.3226  -49.1540 C.3       0 UNK        -0.1800 
      2 C          -3.2551   -7.6842  -49.4281 C.2       0 UNK         0.5000 
      3 O          -2.6530   -7.8790  -50.4839 O.2       0 UNK        -0.5000 
      4 N          -3.4046   -8.6242  -48.4854 N.am      1 UNK        -0.5000 
      5 CA         -2.8443   -9.9792  -48.5451 C.3       1 UNK         0.1400 
      6 C6         -3.4848  -10.8854  -47.4588 C.3       23 UNK        -0.0398 
      7 S7         -2.8821  -12.6094  -47.4295 S.3       23 UNK        -0.2404 
      8 C8         -4.1171  -13.4448  -48.4660 C.3       23 UNK        -0.0205 
      9 C9         -3.7586  -14.9103  -48.6506 C.ar      23 UNK        -0.0193 
     10 C10        -2.8379  -15.2858  -49.6335 C.ar      23 UNK        -0.1150 
     11 C11        -2.5002  -16.6294  -49.8115 C.ar      23 UNK        -0.0193 
     12 C12        -3.0812  -17.5982  -48.9883 C.ar      23 UNK        -0.1150 
     13 C13        -4.0082  -17.2385  -48.0058 C.ar      23 UNK        -0.0193 
     14 C14        -4.3459  -15.8910  -47.8446 C.ar      23 UNK        -0.1150 
     15 C15        -4.6496  -18.3090  -47.1333 C.3       23 UNK        -0.0205 
     16 S16        -4.0782  -18.1781  -45.4089 S.3       23 UNK        -0.2404 
     17 C17        -4.3973  -19.8228  -44.6760 C.3       23 UNK        -0.0398 
     18 CA         -3.9692  -21.0630  -45.5065 C.3       11 UNK         0.1400 
     19 N          -2.6196  -20.9606  -46.0753 N.am      11 UNK        -0.5000 
     20 C          -2.1108  -21.8243  -46.9664 C.2       10 UNK         0.5000 
     21 O          -2.7545  -22.7508  -47.4561 O.2       10 UNK        -0.5000 
     22 CA         -0.6271  -21.6692  -47.3372 C.3       10 UNK         0.1400 
     23 CB         -0.4531  -20.6977  -48.5094 C.3       10 UNK        -0.1800 
     24 N           0.1887  -21.2449  -46.2001 N.am      10 UNK        -0.5000 
     25 C           0.4981  -22.0391  -45.1659 C.2       9 UNK         0.5000 
     26 O           0.1558  -23.2181  -45.0903 O.2       9 UNK        -0.5000 
     27 CA          1.2836  -21.4091  -44.0006 C.3       9 UNK         0.1400 
     28 CB          2.7874  -21.3947  -44.3119 C.3       9 UNK        -0.1800 
     29 N           0.8407  -20.0543  -43.6748 N.am      9 UNK        -0.5000 
     30 C          -0.3932  -19.7320  -43.2617 C.2       8 UNK         0.5000 
     31 O          -1.2783  -20.5588  -43.0409 O.2       8 UNK        -0.5000 
     32 CA         -0.7129  -18.2303  -43.1352 C.3       8 UNK         0.1400 
     33 CB         -0.2775  -17.6987  -41.7631 C.3       8 UNK        -0.1800 
     34 N          -0.1186  -17.4076  -44.1939 N.am      8 UNK        -0.5000 
     35 C          -0.3116  -17.5965  -45.5085 C.2       7 UNK         0.5000 
     36 O          -0.9594  -18.5287  -45.9769 O.2       7 UNK        -0.5000 
     37 CA          0.3845  -16.6180  -46.4612 C.3       7 UNK         0.1400 
     38 CB         -0.3312  -15.2587  -46.4801 C.3       7 UNK        -0.1800 
     39 N           1.7970  -16.4695  -46.1105 N.am      7 UNK        -0.5000 
     40 C           2.7231  -17.4027  -46.3803 C.2       6 UNK         0.5000 
     41 O           2.5046  -18.4060  -47.0594 O.2       6 UNK        -0.5000 
     42 CA          4.1166  -17.2195  -45.7494 C.3       6 UNK         0.1400 
     43 CB          5.0655  -16.4618  -46.6891 C.3       6 UNK        -0.1800 
     44 N           4.0710  -16.5505  -44.4487 N.am      6 UNK        -0.5000 
     45 C           3.5831  -17.1200  -43.3368 C.2       5 UNK         0.5000 
     46 O           3.1282  -18.2628  -43.3001 O.2       5 UNK        -0.5000 
     47 CA          3.5638  -16.2637  -42.0571 C.3       5 UNK         0.1400 
     48 CB          4.8777  -16.4316  -41.2800 C.3       5 UNK        -0.1800 
     49 N           3.3274  -14.8404  -42.2989 N.am      5 UNK        -0.5000 
     50 C           2.2546  -14.3202  -42.9102 C.2       4 UNK         0.5000 
     51 O           1.3314  -14.9994  -43.3637 O.2       4 UNK        -0.5000 
     52 CA          2.2126  -12.7879  -43.0722 C.3       4 UNK         0.1400 
     53 CB          3.2534  -12.0309  -42.2170 C.3       4 UNK        -0.1800 
     54 N           2.3273  -12.3873  -44.4752 N.am      4 UNK        -0.5000 
     55 C           3.2981  -12.6841  -45.3480 C.2       3 UNK         0.5000 
     56 O           4.2601  -13.4034  -45.0729 O.2       3 UNK        -0.5000 
     57 CA          3.2096  -12.0693  -46.7650 C.3       3 UNK         0.1400 
     58 CB          2.6782  -13.0940  -47.7836 C.3       3 UNK        -0.1800 
     59 N           2.4783  -10.7963  -46.9024 N.am      3 UNK        -0.5000 
     60 C           1.1792  -10.5389  -46.6857 C.2       2 UNK         0.5000 
     61 O           0.4068  -11.3399  -46.1547 O.2       2 UNK        -0.5000 
     62 CA          0.6477   -9.1463  -47.1010 C.3       2 UNK         0.1400 
     63 CB          1.4887   -8.4544  -48.1972 C.3       2 UNK        -0.1800 
     64 N          -0.7672   -9.2025  -47.4905 N.am      2 UNK        -0.5000 
     65 C          -1.3005   -9.9537  -48.4690 C.2       1 UNK         0.5000 
     66 O          -0.6415  -10.5936  -49.2910 O.2       1 UNK        -0.5000 
     67 C          -4.1275  -22.3485  -44.6648 C.2       11 UNK         0.5000 
     68 O          -5.1532  -23.0210  -44.7717 O.2       11 UNK        -0.5000 
     69 N          -3.0998  -22.6751  -43.8665 N.am      12 UNK        -0.5000 
     70 CA         -3.0230  -23.8891  -43.0536 C.3       12 UNK         0.1400 
     71 CB         -1.8612  -23.7641  -42.0561 C.3       12 UNK        -0.1800 
     72 C          -2.8835  -25.1675  -43.9009 C.2       12 UNK         0.5000 
     73 O          -3.5462  -26.1628  -43.6055 O.2       12 UNK        -0.5000 
     74 N          -2.0393  -25.1161  -44.9418 N.am      13 UNK        -0.5000 
     75 CA         -1.8416  -26.1974  -45.9111 C.3       13 UNK         0.1400 
     76 CB         -0.6243  -25.8715  -46.7882 C.3       13 UNK        -0.1800 
     77 C          -3.0800  -26.4519  -46.7902 C.2       13 UNK         0.5000 
     78 O          -3.3265  -27.5968  -47.1737 O.2       13 UNK        -0.5000 
     79 N          -3.8313  -25.3810  -47.0844 N.am      14 UNK        -0.5000 
     80 CA         -5.0566  -25.3416  -47.8785 C.3       14 UNK         0.1400 
     81 CB         -6.2155  -26.0241  -47.1191 C.3       14 UNK        -0.1800 
     82 C          -4.8065  -25.8887  -49.2952 C.2       14 UNK         0.5000 
     83 O          -3.9688  -25.3334  -50.0082 O.2       14 UNK        -0.5000 
     84 N          -5.4960  -26.9732  -49.6727 N.am      15 UNK        -0.5000 
     85 CA         -5.4156  -27.6324  -50.9787 C.3       15 UNK         0.1400 
     86 CB         -6.3801  -28.8273  -50.9953 C.3       15 UNK        -0.1800 
     87 C          -3.9988  -28.0796  -51.3917 C.2       15 UNK         0.5000 
     88 O          -3.7081  -28.1050  -52.5872 O.2       15 UNK        -0.5000 
     89 N          -3.1284  -28.3709  -50.4136 N.am      16 UNK        -0.5000 
     90 CA         -1.7244  -28.7284  -50.6376 C.3       16 UNK         0.1400 
     91 CB         -1.1381  -29.3159  -49.3457 C.3       16 UNK        -0.1800 
     92 C          -0.8603  -27.5579  -51.1553 C.2       16 UNK         0.5000 
     93 O           0.1532  -27.8073  -51.8086 O.2       16 UNK        -0.5000 
     94 N          -1.2807  -26.3150  -50.8820 N.am      17 UNK        -0.5000 
     95 CA         -0.6729  -25.0836  -51.3981 C.3       17 UNK         0.1400 
     96 CB         -0.4264  -24.1318  -50.2158 C.3       17 UNK        -0.1800 
     97 C          -1.5661  -24.4030  -52.4554 C.2       17 UNK         0.5000 
     98 O          -1.2204  -23.3195  -52.9305 O.2       17 UNK        -0.5000 
     99 N          -2.7152  -25.0222  -52.7696 N.am      18 UNK        -0.5000 
    100 CA        -3.8299  -24.4869  -53.5571 C.3       18 UNK         0.1400 
    101 CB        -3.4712  -24.4380  -55.0560 C.3       18 UNK        -0.1800 
    102 C         -4.3901  -23.1640  -52.9826 C.2       18 UNK         0.5000 
    103 O         -4.7994  -22.2786  -53.7361 O.2       18 UNK        -0.5000 
    104 N         -4.3950  -23.0760  -51.6424 N.am      19 UNK        -0.5000 
    105 CA        -4.8717  -21.9870  -50.7898 C.3       19 UNK         0.1400 
    106 CB        -6.4083  -22.0632  -50.6657 C.3       19 UNK        -0.1800 
    107 C         -4.3418  -20.6100  -51.2357 C.2       19 UNK         0.5000 
    108 O         -3.1510  -20.3412  -51.0755 O.2       19 UNK        -0.5000 
    109 N         -5.2249  -19.7877  -51.8195 N.am      20 UNK        -0.5000 
    110 CA        -4.9719  -18.4360  -52.3243 C.3       20 UNK         0.1400 
    111 CB        -6.3042  -17.8342  -52.7968 C.3       20 UNK        -0.1800 
    112 C         -3.9054  -18.3324  -53.4358 C.2       20 UNK         0.5000 
    113 O         -3.4504  -17.2237  -53.7199 O.2       20 UNK        -0.5000 
    114 N         -3.5017  -19.4632  -54.0302 N.am      21 UNK        -0.5000 
    115 CA        -2.3746  -19.5421  -54.9585 C.3       21 UNK         0.1400 
    116 CB        -2.4197  -20.8904  -55.6856 C.3       21 UNK        -0.1800 
    117 C         -1.0033  -19.3608  -54.2740 C.2       21 UNK         0.5000 
    118 O         -0.0763  -18.8853  -54.9311 O.2       21 UNK        -0.5000 
    119 N         -0.8915  -19.7347  -52.9879 N.am      22 UNK        -0.5000 
    120 CA         0.3500  -19.7006  -52.1896 C.3       22 UNK         0.1400 
    121 C          1.4808  -20.6130  -52.7643 C.2       22 UNK         0.5000 
    122 N          1.1580  -21.7945  -53.2758 N.am      22 UNK        -0.7600 
    123 O          2.6603  -20.2705  -52.7440 O.2       22 UNK        -0.5000 
    124 C124        0.8084  -18.2442  -51.8490 C.3       23 UNK        -0.0398 
    125 S125        0.0549  -17.5973  -50.3173 S.3       23 UNK        -0.2404 
    126 C126       -1.5593  -17.0464  -50.9304 C.3       23 UNK        -0.0205 
    127 H127       -4.3852   -6.2945  -48.1891 H         1 UNK         0.0600 
    128 H128       -4.6068   -6.0806  -49.9277 H         1 UNK         0.0600 
    129 H129       -3.1084   -5.5509  -49.1558 H         1 UNK         0.0600 
    130 H130       -3.9207   -8.3962  -47.6474 H         1 UNK         0.3000 
    131 H131       -3.1108  -10.3984  -49.5179 H         1 UNK         0.0600 
    132 H132       -3.3043  -10.4647  -46.4683 H         1 UNK         0.0800 
    133 H133       -4.5688  -10.8966  -47.5801 H         1 UNK         0.0800 
    134 H134       -5.1034  -13.3487  -48.0094 H         1 UNK         0.0800 
    135 H135       -4.1728  -12.9520  -49.4379 H         1 UNK         0.0800 
    136 H136       -2.3906  -14.5300  -50.2639 H         1 UNK         0.1150 
    137 H137       -2.8168  -18.6369  -49.1247 H         1 UNK         0.1150 
    138 H138       -5.0582  -15.6071  -47.0827 H         1 UNK         0.1150 
    139 H139       -5.7353  -18.2096  -47.1644 H         1 UNK         0.0800 
    140 H140       -4.4153  -19.2905  -47.5419 H         1 UNK         0.0800 
    141 H141       -5.4633  -19.8821  -44.4501 H         1 UNK         0.0800 
    142 H142       -3.8901  -19.8264  -43.7095 H         1 UNK         0.0800 
    143 H143       -4.6641  -21.1613  -46.3423 H         1 UNK         0.0600 
    144 H144       -2.0500  -20.1727  -45.7785 H         1 UNK         0.3000 
    145 H145       -0.2640  -22.6444  -47.6645 H         1 UNK         0.0600 
    146 H146        0.5899  -20.6337  -48.8192 H         1 UNK         0.0600 
    147 H147       -0.7897  -19.6927  -48.2595 H         1 UNK         0.0600 
    148 H148       -1.0351  -21.0286  -49.3703 H         1 UNK         0.0600 
    149 H149        0.4279  -20.2623  -46.1585 H         1 UNK         0.3000 
    150 H150        1.1232  -22.0323  -43.1186 H         1 UNK         0.0600 
    151 H151        3.1446  -22.3928  -44.5686 H         1 UNK         0.0600 
    152 H152        3.3639  -21.0552  -43.4513 H         1 UNK         0.0600 
    153 H153        3.0178  -20.7352  -45.1499 H         1 UNK         0.0600 
    154 H154        1.5309  -19.3155  -43.7732 H         1 UNK         0.3000 
    155 H155       -1.7958  -18.1181  -43.2144 H         1 UNK         0.0600 
    156 H156       -0.7902  -18.2302  -40.9604 H         1 UNK         0.0600 
    157 H157       -0.5101  -16.6392  -41.6544 H         1 UNK         0.0600 
    158 H158        0.7928  -17.8276  -41.6076 H         1 UNK         0.0600 
    159 H159        0.4304  -16.6062  -43.8945 H         1 UNK         0.3000 
    160 H160        0.3098  -17.0385  -47.4652 H         1 UNK         0.0600 
    161 H161       -0.1048  -14.6551  -45.6015 H         1 UNK         0.0600 
    162 H162       -1.4141  -15.3887  -46.5194 H         1 UNK         0.0600 
    163 H163       -0.0601  -14.6889  -47.3664 H         1 UNK         0.0600 
    164 H164        2.0338  -15.7136  -45.4832 H         1 UNK         0.3000 
    165 H165        4.5324  -18.2183  -45.5989 H         1 UNK         0.0600 
    166 H166        6.0844  -16.4654  -46.3018 H         1 UNK         0.0600 
    167 H167        5.0916  -16.9242  -47.6767 H         1 UNK         0.0600 
    168 H168        4.7651  -15.4239  -46.8187 H         1 UNK         0.0600 
    169 H169        4.3842  -15.5877  -44.4140 H         1 UNK         0.3000 
    170 H170        2.7511  -16.6268  -41.4271 H         1 UNK         0.0600 
    171 H171        5.7302  -16.0503  -41.8437 H         1 UNK         0.0600 
    172 H172        4.8426  -15.9057  -40.3258 H         1 UNK         0.0600 
    173 H173        5.0712  -17.4830  -41.0629 H         1 UNK         0.0600 
    174 H174        4.0493  -14.2064  -41.9890 H         1 UNK         0.3000 
    175 H175        1.2214  -12.4754  -42.7408 H         1 UNK         0.0600 
    176 H176        4.2779  -12.2491  -42.5204 H         1 UNK         0.0600 
    177 H177        3.1114  -10.9534  -42.3016 H         1 UNK         0.0600 
    178 H178        3.1548  -12.2825  -41.1602 H         1 UNK         0.0600 
    179 H179        1.5285  -11.8864  -44.8586 H         1 UNK         0.3000 
    180 H180        4.2394  -11.8434  -47.0458 H         1 UNK         0.0600 
    181 H181        3.1923  -14.0503  -47.7023 H         1 UNK         0.0600 
    182 H182        2.8166  -12.7381  -48.8045 H         1 UNK         0.0600 
    183 H183        1.6164  -13.2817  -47.6430 H         1 UNK         0.0600 
    184 H184        3.0286  -10.0435  -47.2913 H         1 UNK         0.3000 
    185 H185        0.6923   -8.5246  -46.2059 H         1 UNK         0.0600 
    186 H186        1.0315   -7.5136  -48.5040 H         1 UNK         0.0600 
    187 H187        2.4909   -8.2169  -47.8396 H         1 UNK         0.0600 
    188 H188        1.5914   -9.0770  -49.0867 H         1 UNK         0.0600 
    189 H189       -1.4027   -8.7170  -46.8743 H         1 UNK         0.3000 
    190 H190       -2.3195  -22.0285  -43.7893 H         1 UNK         0.3000 
    191 H191       -3.9503  -23.9690  -42.4824 H         1 UNK         0.0600 
    192 H192       -1.9940  -22.9011  -41.4034 H         1 UNK         0.0600 
    193 H193       -0.9029  -23.6528  -42.5640 H         1 UNK         0.0600 
    194 H194       -1.7957  -24.6473  -41.4196 H         1 UNK         0.0600 
    195 H195       -1.4674  -24.2861  -45.0688 H         1 UNK         0.3000 
    196 H196       -1.6314  -27.1158  -45.3592 H         1 UNK         0.0600 
    197 H197        0.2809  -25.7779  -46.1884 H         1 UNK         0.0600 
    198 H198       -0.7675  -24.9360  -47.3271 H         1 UNK         0.0600 
    199 H199       -0.4436  -26.6507  -47.5278 H         1 UNK         0.0600 
    200 H200       -3.4682  -24.4686  -46.8269 H         1 UNK         0.3000 
    201 H201       -5.3112  -24.2876  -47.9985 H         1 UNK         0.0600 
    202 H202       -6.3675  -25.5520  -46.1480 H         1 UNK         0.0600 
    203 H203       -6.0286  -27.0835  -46.9406 H         1 UNK         0.0600 
    204 H204       -7.1543  -25.9346  -47.6671 H         1 UNK         0.0600 
    205 H205       -6.1344  -27.3824  -49.0061 H         1 UNK         0.3000 
    206 H206       -5.7548  -26.9109  -51.7245 H         1 UNK         0.0600 
    207 H207       -6.1148  -29.5679  -50.2397 H         1 UNK         0.0600 
    208 H208       -7.4064  -28.5098  -50.8097 H         1 UNK         0.0600 
    209 H209       -6.3673  -29.3278  -51.9646 H         1 UNK         0.0600 
    210 H210       -3.4323  -28.2966  -49.4505 H         1 UNK         0.3000 
    211 H211       -1.6959  -29.5090  -51.4008 H         1 UNK         0.0600 
    212 H212       -1.1743  -28.6015  -48.5249 H         1 UNK         0.0600 
    213 H213       -0.0956  -29.6057  -49.4840 H         1 UNK         0.0600 
    214 H214       -1.6841  -30.2070  -49.0357 H         1 UNK         0.0600 
    215 H215       -2.1391  -26.1912  -50.3551 H         1 UNK         0.3000 
    216 H216        0.2863  -25.2924  -51.8754 H         1 UNK         0.0600 
    217 H217        0.0271  -23.1966  -50.5469 H         1 UNK         0.0600 
    218 H218        0.2533  -24.5782  -49.4907 H         1 UNK         0.0600 
    219 H219       -1.3562  -23.8829  -49.7018 H         1 UNK         0.0600 
    220 H220       -2.8832  -25.9232  -52.3446 H         1 UNK         0.3000 
    221 H221       -4.6442  -25.2047  -53.4507 H         1 UNK         0.0600 
    222 H222       -2.5569  -23.8787  -55.2431 H         1 UNK         0.0600 
    223 H223       -3.3181  -25.4444  -55.4453 H         1 UNK         0.0600 
    224 H224       -4.2680  -23.9844  -55.6464 H         1 UNK         0.0600 
    225 H225       -4.0319  -23.8763  -51.1295 H         1 UNK         0.3000 
    226 H226       -4.4507  -22.1657  -49.7989 H         1 UNK         0.0600 
    227 H227       -6.7122  -23.0120  -50.2229 H         1 UNK         0.0600 
    228 H228       -6.7934  -21.2725  -50.0203 H         1 UNK         0.0600 
    229 H229       -6.9042  -21.9816  -51.6336 H         1 UNK         0.0600 
    230 H230       -6.1649  -20.1325  -51.9466 H         1 UNK         0.3000 
    231 H231       -4.6131  -17.8396  -51.4843 H         1 UNK         0.0600 
    232 H232       -6.1710  -16.8083  -53.1430 H         1 UNK         0.0600 
    233 H233       -7.0352  -17.8082  -51.9884 H         1 UNK         0.0600 
    234 H234       -6.7322  -18.4061  -53.6211 H         1 UNK         0.0600 
    235 H235       -3.9390  -20.3399  -53.7664 H         1 UNK         0.3000 
    236 H236       -2.4870  -18.7504  -55.7022 H         1 UNK         0.0600 
    237 H237       -2.2511  -21.7062  -54.9848 H         1 UNK         0.0600 
    238 H238       -3.3813  -21.0534  -56.1727 H         1 UNK         0.0600 
    239 H239       -1.6462  -20.9500  -56.4521 H         1 UNK         0.0600 
    240 H240       -1.7080  -20.1011  -52.5091 H         1 UNK         0.3000 
    241 H241        0.0987  -20.1898  -51.2506 H         1 UNK         0.0600 
    242 H242        1.8862  -22.3799  -53.6507 H         1 UNK         0.3800 
    243 H243        0.2025  -22.1436  -53.2469 H         1 UNK         0.3800 
    244 H244        0.6173  -17.5575  -52.6740 H         1 UNK         0.0800 
    245 H245        1.8831  -18.1898  -51.6749 H         1 UNK         0.0800 
    246 H246       -1.4247  -16.2409  -51.6538 H         1 UNK         0.0800 
    247 H247       -2.0184  -17.8731  -51.4638 H         1 UNK         0.0800 
@<TRIPOS>BOND
     1    1    2 1    
     2    1  127 1    
     3    1  128 1    
     4    1  129 1    
     5    2    3 2    
     6    2    4 am   BACKBONE|DICT|INTERRES
     7    4    5 1    
     8    4  130 1    
     9    5    6 1    
    10    5   65 1    
    11    5  131 1    
    12    6    7 1    
    13    6  132 1    
    14    6  133 1    
    15    7    8 1    
    16    8    9 1    
    17    8  134 1    
    18    8  135 1    
    19    9   10 ar   
    20    9   14 ar   
    21   10   11 ar   
    22   10  136 1    
    23   11   12 ar   
    24   11  126 1    
    25   12   13 ar   
    26   12  137 1    
    27   13   14 ar   
    28   13   15 1    
    29   14  138 1    
    30   15   16 1    
    31   15  139 1    
    32   15  140 1    
    33   16   17 1    
    34   17   18 1    
    35   17  141 1    
    36   17  142 1    
    37   18   19 1    
    38   18   67 1    
    39   18  143 1    
    40   19   20 am   BACKBONE|DICT|INTERRES
    41   19  144 1    
    42   20   21 2    
    43   20   22 1    
    44   22   23 1    
    45   22   24 1    
    46   22  145 1    
    47   23  146 1    
    48   23  147 1    
    49   23  148 1    
    50   24   25 am   BACKBONE|DICT|INTERRES
    51   24  149 1    
    52   25   26 2    
    53   25   27 1    
    54   27   28 1    
    55   27   29 1    
    56   27  150 1    
    57   28  151 1    
    58   28  152 1    
    59   28  153 1    
    60   29   30 am   BACKBONE|DICT|INTERRES
    61   29  154 1    
    62   30   31 2    
    63   30   32 1    
    64   32   33 1    
    65   32   34 1    
    66   32  155 1    
    67   33  156 1    
    68   33  157 1    
    69   33  158 1    
    70   34   35 am   BACKBONE|DICT|INTERRES
    71   34  159 1    
    72   35   36 2    
    73   35   37 1    
    74   37   38 1    
    75   37   39 1    
    76   37  160 1    
    77   38  161 1    
    78   38  162 1    
    79   38  163 1    
    80   39   40 am   BACKBONE|DICT|INTERRES
    81   39  164 1    
    82   40   41 2    
    83   40   42 1    
    84   42   43 1    
    85   42   44 1    
    86   42  165 1    
    87   43  166 1    
    88   43  167 1    
    89   43  168 1    
    90   44   45 am   BACKBONE|DICT|INTERRES
    91   44  169 1    
    92   45   46 2    
    93   45   47 1    
    94   47   48 1    
    95   47   49 1    
    96   47  170 1    
    97   48  171 1    
    98   48  172 1    
    99   48  173 1    
   100   49   50 am   BACKBONE|DICT|INTERRES
   101   49  174 1    
   102   50   51 2    
   103   50   52 1    
   104   52   53 1    
   105   52   54 1    
   106   52  175 1    
   107   53  176 1    
   108   53  177 1    
   109   53  178 1    
   110   54   55 am   BACKBONE|DICT|INTERRES
   111   54  179 1    
   112   55   56 2    
   113   55   57 1    
   114   57   58 1    
   115   57   59 1    
   116   57  180 1    
   117   58  181 1    
   118   58  182 1    
   119   58  183 1    
   120   59   60 am   BACKBONE|DICT|INTERRES
   121   59  184 1    
   122   60   61 2    
   123   60   62 1    
   124   62   63 1    
   125   62   64 1    
   126   62  185 1    
   127   63  186 1    
   128   63  187 1    
   129   63  188 1    
   130   64   65 am   BACKBONE|DICT|INTERRES
   131   64  189 1    
   132   65   66 2    
   133   67   68 2    
   134   67   69 am   BACKBONE|DICT|INTERRES
   135   69   70 1    
   136   69  190 1    
   137   70   71 1    
   138   70   72 1    
   139   70  191 1    
   140   71  192 1    
   141   71  193 1    
   142   71  194 1    
   143   72   73 2    
   144   72   74 am   BACKBONE|DICT|INTERRES
   145   74   75 1    
   146   74  195 1    
   147   75   76 1    
   148   75   77 1    
   149   75  196 1    
   150   76  197 1    
   151   76  198 1    
   152   76  199 1    
   153   77   78 2    
   154   77   79 am   BACKBONE|DICT|INTERRES
   155   79   80 1    
   156   79  200 1    
   157   80   81 1    
   158   80   82 1    
   159   80  201 1    
   160   81  202 1    
   161   81  203 1    
   162   81  204 1    
   163   82   83 2    
   164   82   84 am   BACKBONE|DICT|INTERRES
   165   84   85 1    
   166   84  205 1    
   167   85   86 1    
   168   85   87 1    
   169   85  206 1    
   170   86  207 1    
   171   86  208 1    
   172   86  209 1    
   173   87   88 2    
   174   87   89 am   BACKBONE|DICT|INTERRES
   175   89   90 1    
   176   89  210 1    
   177   90   91 1    
   178   90   92 1    
   179   90  211 1    
   180   91  212 1    
   181   91  213 1    
   182   91  214 1    
   183   92   93 2    
   184   92   94 am   BACKBONE|DICT|INTERRES
   185   94   95 1    
   186   94  215 1    
   187   95   96 1    
   188   95   97 1    
   189   95  216 1    
   190   96  217 1    
   191   96  218 1    
   192   96  219 1    
   193   97   98 2    
   194   97   99 am   BACKBONE|DICT|INTERRES
   195   99  100 1    
   196   99  220 1    
   197  100  101 1    
   198  100  102 1    
   199  100  221 1    
   200  101  222 1    
   201  101  223 1    
   202  101  224 1    
   203  102  103 2    
   204  102  104 am   BACKBONE|DICT|INTERRES
   205  104  105 1    
   206  104  225 1    
   207  105  106 1    
   208  105  107 1    
   209  105  226 1    
   210  106  227 1    
   211  106  228 1    
   212  106  229 1    
   213  107  108 2    
   214  107  109 am   BACKBONE|DICT|INTERRES
   215  109  110 1    
   216  109  230 1    
   217  110  111 1    
   218  110  112 1    
   219  110  231 1    
   220  111  232 1    
   221  111  233 1    
   222  111  234 1    
   223  112  113 2    
   224  112  114 am   BACKBONE|DICT|INTERRES
   225  114  115 1    
   226  114  235 1    
   227  115  116 1    
   228  115  117 1    
   229  115  236 1    
   230  116  237 1    
   231  116  238 1    
   232  116  239 1    
   233  117  118 2    
   234  117  119 am   BACKBONE|DICT|INTERRES
   235  119  120 1    
   236  119  240 1    
   237  120  121 1    
   238  120  124 1    
   239  120  241 1    
   240  121  122 am   BACKBONE|DICT|INTERRES
   241  121  123 2    
   242  122  242 1    
   243  122  243 1    
   244  124  125 1    
   245  124  244 1    
   246  124  245 1    
   247  125  126 1    
   248  126  246 1    
   249  126  247 1    
@<TRIPOS>SUBSTRUCTURE
     1 UNK         1 GROUP             0       ****    0 ROOT    
