@<TRIPOS>MOLECULE
3R540
247   249    1
SMALL
USER_CHARGES


@<TRIPOS>ATOM
      1 CA          4.0292  -17.3556  -48.5067 C.3       0 UNK        -0.1800 
      2 C           3.4592  -16.2628  -47.6154 C.2       0 UNK         0.5000 
      3 O           3.4585  -16.4027  -46.3936 O.2       0 UNK        -0.5000 
      4 N           2.9786  -15.1706  -48.2199 N.am      1 UNK        -0.5000 
      5 CA          2.4057  -14.0104  -47.5318 C.3       1 UNK         0.1400 
      6 C6          1.4404  -13.2137  -48.4449 C.3       23 UNK        -0.0398 
      7 S7         -0.1409  -14.0936  -48.6423 S.3       23 UNK        -0.2404 
      8 C8          0.0618  -14.9253  -50.2483 C.3       23 UNK        -0.0205 
      9 C9         -0.6476  -16.2712  -50.2555 C.ar      23 UNK        -0.0193 
     10 C10        -2.0258  -16.3405  -50.0366 C.ar      23 UNK        -0.1150 
     11 C11        -2.6859  -17.5711  -50.0148 C.ar      23 UNK        -0.0193 
     12 C12        -1.9538  -18.7444  -50.2230 C.ar      23 UNK        -0.1150 
     13 C13        -0.5728  -18.6912  -50.4476 C.ar      23 UNK        -0.0193 
     14 C14         0.0717  -17.4501  -50.4689 C.ar      23 UNK        -0.1150 
     15 C15         0.2146  -19.9755  -50.6843 C.3       23 UNK        -0.0205 
     16 S16         1.6825  -20.1596  -49.6094 S.3       23 UNK        -0.2404 
     17 C17         0.9923  -20.0226  -47.9235 C.3       23 UNK        -0.0398 
     18 CA          0.6167  -21.3890  -47.2992 C.3       11 UNK         0.1400 
     19 N           0.5569  -21.3354  -45.8356 N.am      11 UNK        -0.5000 
     20 C           0.3240  -22.3854  -45.0333 C.2       10 UNK         0.5000 
     21 O           0.2084  -23.5428  -45.4338 O.2       10 UNK        -0.5000 
     22 CA          0.1239  -22.0896  -43.5370 C.3       10 UNK         0.1400 
     23 CB          1.4741  -21.9380  -42.8214 C.3       10 UNK        -0.1800 
     24 N          -0.7036  -20.9042  -43.3080 N.am      10 UNK        -0.5000 
     25 C          -1.9889  -20.7953  -43.6767 C.2       9 UNK         0.5000 
     26 O          -2.6291  -21.7103  -44.1952 O.2       9 UNK        -0.5000 
     27 CA         -2.6576  -19.4216  -43.4806 C.3       9 UNK         0.1400 
     28 CB         -3.0906  -19.2235  -42.0208 C.3       9 UNK        -0.1800 
     29 N          -1.7963  -18.3130  -43.8939 N.am      9 UNK        -0.5000 
     30 C          -1.3663  -18.1119  -45.1484 C.2       8 UNK         0.5000 
     31 O          -1.6956  -18.8128  -46.1047 O.2       8 UNK        -0.5000 
     32 CA         -0.3530  -16.9720  -45.3554 C.3       8 UNK         0.1400 
     33 CB         -1.0661  -15.6154  -45.4524 C.3       8 UNK        -0.1800 
     34 N           0.6454  -16.9303  -44.2860 N.am      8 UNK        -0.5000 
     35 C           1.5587  -17.8885  -44.0694 C.2       7 UNK         0.5000 
     36 O           1.6734  -18.8947  -44.7684 O.2       7 UNK        -0.5000 
     37 CA          2.4459  -17.7273  -42.8225 C.3       7 UNK         0.1400 
     38 CB          3.6087  -16.7636  -43.0935 C.3       7 UNK        -0.1800 
     39 N           1.6794  -17.2594  -41.6676 N.am      7 UNK        -0.5000 
     40 C           0.7722  -18.0076  -41.0211 C.2       6 UNK         0.5000 
     41 O           0.5211  -19.1749  -41.3159 O.2       6 UNK        -0.5000 
     42 CA         -0.0185  -17.3374  -39.8811 C.3       6 UNK         0.1400 
     43 CB          0.6993  -17.5417  -38.5389 C.3       6 UNK        -0.1800 
     44 N          -0.2396  -15.9078  -40.0928 N.am      6 UNK        -0.5000 
     45 C          -0.9066  -15.3718  -41.1248 C.2       5 UNK         0.5000 
     46 O          -1.4782  -16.0403  -41.9866 O.2       5 UNK        -0.5000 
     47 CA         -0.8859  -13.8341  -41.2385 C.3       5 UNK         0.1400 
     48 CB         -2.1841  -13.2372  -40.6762 C.3       5 UNK        -0.1800 
     49 N           0.2627  -13.2099  -40.5685 N.am      5 UNK        -0.5000 
     50 C           1.5422  -13.3894  -40.9234 C.2       4 UNK         0.5000 
     51 O           1.8974  -14.1145  -41.8553 O.2       4 UNK        -0.5000 
     52 CA          2.6064  -12.6971  -40.0578 C.3       4 UNK         0.1400 
     53 CB          3.4464  -13.7410  -39.3042 C.3       4 UNK        -0.1800 
     54 N           3.4846  -11.8967  -40.9039 N.am      4 UNK        -0.5000 
     55 C           3.2299  -10.6392  -41.2889 C.2       3 UNK         0.5000 
     56 O           2.2786   -9.9764  -40.8730 O.2       3 UNK        -0.5000 
     57 CA          4.1917  -10.0195  -42.3250 C.3       3 UNK         0.1400 
     58 CB          5.3077   -9.2328  -41.6206 C.3       3 UNK        -0.1800 
     59 N           4.7957  -11.0045  -43.2292 N.am      3 UNK        -0.5000 
     60 C           4.1089  -11.7472  -44.1081 C.2       2 UNK         0.5000 
     61 O           2.8896  -11.6437  -44.2690 O.2       2 UNK        -0.5000 
     62 CA          4.9244  -12.7828  -44.9146 C.3       2 UNK         0.1400 
     63 CB          5.6710  -13.7528  -43.9810 C.3       2 UNK        -0.1800 
     64 N           4.0623  -13.5650  -45.7989 N.am      2 UNK        -0.5000 
     65 C           3.5202  -13.1252  -46.9398 C.2       1 UNK         0.5000 
     66 O           3.8615  -12.0850  -47.5073 O.2       1 UNK        -0.5000 
     67 C          -0.6981  -21.9263  -47.8930 C.2       11 UNK         0.5000 
     68 O          -0.6648  -22.8692  -48.6825 O.2       11 UNK        -0.5000 
     69 N          -1.8314  -21.3449  -47.4748 N.am      12 UNK        -0.5000 
     70 CA         -3.1711  -21.7436  -47.9001 C.3       12 UNK         0.1400 
     71 CB         -4.2118  -20.7869  -47.3018 C.3       12 UNK        -0.1800 
     72 C          -3.5041  -23.2060  -47.5577 C.2       12 UNK         0.5000 
     73 O          -4.0686  -23.9044  -48.3994 O.2       12 UNK        -0.5000 
     74 N          -3.1163  -23.6522  -46.3567 N.am      13 UNK        -0.5000 
     75 CA         -3.2611  -25.0355  -45.9095 C.3       13 UNK         0.1400 
     76 CB         -2.9526  -25.1230  -44.4068 C.3       13 UNK        -0.1800 
     77 C          -2.3835  -26.0159  -46.7107 C.2       13 UNK         0.5000 
     78 O          -2.8819  -27.0517  -47.1529 O.2       13 UNK        -0.5000 
     79 N          -1.0992  -25.6756  -46.8837 N.am      14 UNK        -0.5000 
     80 CA         -0.1029  -26.5193  -47.5437 C.3       14 UNK         0.1400 
     81 CB          1.3048  -25.9920  -47.2251 C.3       14 UNK        -0.1800 
     82 C          -0.2996  -26.6286  -49.0651 C.2       14 UNK         0.5000 
     83 O          -0.1923  -27.7271  -49.6116 O.2       14 UNK        -0.5000 
     84 N          -0.5672  -25.4938  -49.7227 N.am      15 UNK        -0.5000 
     85 CA         -0.6433  -25.3807  -51.1804 C.3       15 UNK         0.1400 
     86 CB         -0.0211  -24.0398  -51.6062 C.3       15 UNK        -0.1800 
     87 C          -2.0750  -25.5205  -51.7297 C.2       15 UNK         0.5000 
     88 O          -2.2664  -25.3147  -52.9282 O.2       15 UNK        -0.5000 
     89 N          -3.0539  -25.8333  -50.8660 N.am      16 UNK        -0.5000 
     90 CA         -4.4833  -25.9859  -51.1711 C.3       16 UNK         0.1400 
     91 CB         -4.7236  -27.2311  -52.0498 C.3       16 UNK        -0.1800 
     92 C          -5.0726  -24.6978  -51.7799 C.2       16 UNK         0.5000 
     93 O          -5.5401  -24.6931  -52.9212 O.2       16 UNK        -0.5000 
     94 N          -4.9624  -23.6072  -51.0092 N.am      17 UNK        -0.5000 
     95 CA         -5.3176  -22.2310  -51.3645 C.3       17 UNK         0.1400 
     96 CB         -6.8480  -22.0758  -51.4821 C.3       17 UNK        -0.1800 
     97 C          -4.5539  -21.7338  -52.6083 C.2       17 UNK         0.5000 
     98 O          -5.1469  -21.0932  -53.4743 O.2       17 UNK        -0.5000 
     99 N          -3.2547  -22.0638  -52.6798 N.am      18 UNK        -0.5000 
    100 CA        -2.3378  -21.7816  -53.7924 C.3       18 UNK         0.1400 
    101 CB        -2.0712  -20.2650  -53.9024 C.3       18 UNK        -0.1800 
    102 C         -2.8308  -22.4008  -55.1175 C.2       18 UNK         0.5000 
    103 O         -2.9412  -21.7014  -56.1240 O.2       18 UNK        -0.5000 
    104 N         -3.1775  -23.6958  -55.0728 N.am      19 UNK        -0.5000 
    105 CA        -3.8384  -24.4655  -56.1340 C.3       19 UNK         0.1400 
    106 CB        -2.8738  -24.7109  -57.3126 C.3       19 UNK        -0.1800 
    107 C         -5.1771  -23.8244  -56.5632 C.2       19 UNK         0.5000 
    108 O         -5.4453  -23.6689  -57.7556 O.2       19 UNK        -0.5000 
    109 N         -5.9651  -23.4251  -55.5558 N.am      20 UNK        -0.5000 
    110 CA        -7.2434  -22.7098  -55.6151 C.3       20 UNK         0.1400 
    111 CB        -8.3020  -23.5269  -56.3834 C.3       20 UNK        -0.1800 
    112 C         -7.1734  -21.2476  -56.1122 C.2       20 UNK         0.5000 
    113 O         -8.2152  -20.5896  -56.1407 O.2       20 UNK        -0.5000 
    114 N         -5.9844  -20.7266  -56.4553 N.am      21 UNK        -0.5000 
    115 CA        -5.7935  -19.3519  -56.9358 C.3       21 UNK         0.1400 
    116 CB        -4.3739  -19.1887  -57.4971 C.3       21 UNK        -0.1800 
    117 C         -6.0740  -18.2762  -55.8671 C.2       21 UNK         0.5000 
    118 O         -6.4617  -17.1615  -56.2194 O.2       21 UNK        -0.5000 
    119 N         -5.8983  -18.6326  -54.5895 N.am      22 UNK        -0.5000 
    120 CA        -6.2722  -17.8251  -53.4201 C.3       22 UNK         0.1400 
    121 C         -7.7910  -17.9135  -53.0638 C.2       22 UNK         0.5000 
    122 N         -8.5994  -18.7226  -53.7411 N.am      22 UNK        -0.7600 
    123 O         -8.2597  -17.2204  -52.1659 O.2       22 UNK        -0.5000 
    124 C124       -5.3554  -18.1671  -52.2132 C.3       23 UNK        -0.0398 
    125 S125       -5.1697  -16.8064  -51.0167 S.3       23 UNK        -0.2404 
    126 C126       -4.1791  -17.6185  -49.7209 C.3       23 UNK        -0.0205 
    127 H127        3.6505  -17.2813  -49.5264 H         1 UNK         0.0600 
    128 H128        3.7608  -18.3374  -48.1180 H         1 UNK         0.0600 
    129 H129        5.1165  -17.2872  -48.5349 H         1 UNK         0.0600 
    130 H130        3.0469  -15.0939  -49.2236 H         1 UNK         0.3000 
    131 H131        1.8218  -14.3705  -46.6811 H         1 UNK         0.0600 
    132 H132        1.2002  -12.2462  -48.0000 H         1 UNK         0.0800 
    133 H133        1.8894  -12.9974  -49.4155 H         1 UNK         0.0800 
    134 H134       -0.3468  -14.2925  -51.0371 H         1 UNK         0.0800 
    135 H135        1.1210  -15.0556  -50.4712 H         1 UNK         0.0800 
    136 H136       -2.5859  -15.4316  -49.8662 H         1 UNK         0.1150 
    137 H137       -2.4583  -19.6991  -50.2058 H         1 UNK         0.1150 
    138 H138        1.1376  -17.4069  -50.6421 H         1 UNK         0.1150 
    139 H139       -0.4270  -20.8482  -50.5657 H         1 UNK         0.0800 
    140 H140        0.5471  -19.9887  -51.7229 H         1 UNK         0.0800 
    141 H141        0.1570  -19.3221  -47.9075 H         1 UNK         0.0800 
    142 H142        1.7701  -19.5535  -47.3210 H         1 UNK         0.0800 
    143 H143        1.4041  -22.1046  -47.5454 H         1 UNK         0.0600 
    144 H144        0.6989  -20.4231  -45.4105 H         1 UNK         0.3000 
    145 H145       -0.3948  -22.9445  -43.0984 H         1 UNK         0.0600 
    146 H146        1.3382  -21.8185  -41.7465 H         1 UNK         0.0600 
    147 H147        2.0975  -22.8199  -42.9739 H         1 UNK         0.0600 
    148 H148        2.0309  -21.0750  -43.1860 H         1 UNK         0.0600 
    149 H149       -0.2585  -20.1269  -42.8293 H         1 UNK         0.3000 
    150 H150       -3.5523  -19.3955  -44.1060 H         1 UNK         0.0600 
    151 H151       -3.5910  -18.2647  -41.8835 H         1 UNK         0.0600 
    152 H152       -3.7883  -20.0034  -41.7133 H         1 UNK         0.0600 
    153 H153       -2.2407  -19.2582  -41.3398 H         1 UNK         0.0600 
    154 H154       -1.5152  -17.6547  -43.1740 H         1 UNK         0.3000 
    155 H155        0.1700  -17.1496  -46.2980 H         1 UNK         0.0600 
    156 H156       -1.6472  -15.3937  -44.5575 H         1 UNK         0.0600 
    157 H157       -1.7528  -15.6015  -46.2998 H         1 UNK         0.0600 
    158 H158       -0.3545  -14.8032  -45.5975 H         1 UNK         0.0600 
    159 H159        0.5929  -16.1570  -43.6394 H         1 UNK         0.3000 
    160 H160        2.8677  -18.7046  -42.5783 H         1 UNK         0.0600 
    161 H161        3.2502  -15.7913  -43.4314 H         1 UNK         0.0600 
    162 H162        4.2639  -17.1570  -43.8714 H         1 UNK         0.0600 
    163 H163        4.2165  -16.6095  -42.2019 H         1 UNK         0.0600 
    164 H164        1.7978  -16.2880  -41.4087 H         1 UNK         0.3000 
    165 H165       -0.9956  -17.8206  -39.8249 H         1 UNK         0.0600 
    166 H166        0.1115  -17.1431  -37.7118 H         1 UNK         0.0600 
    167 H167        0.8599  -18.6023  -38.3400 H         1 UNK         0.0600 
    168 H168        1.6747  -17.0536  -38.5252 H         1 UNK         0.0600 
    169 H169        0.1894  -15.2804  -39.4295 H         1 UNK         0.3000 
    170 H170       -0.8277  -13.5890  -42.3011 H         1 UNK         0.0600 
    171 H171       -3.0570  -13.6631  -41.1731 H         1 UNK         0.0600 
    172 H172       -2.2872  -13.4314  -39.6078 H         1 UNK         0.0600 
    173 H173       -2.2207  -12.1582  -40.8276 H         1 UNK         0.0600 
    174 H174        0.0507  -12.6002  -39.7915 H         1 UNK         0.3000 
    175 H175        2.1188  -12.0553  -39.3208 H         1 UNK         0.0600 
    176 H176        3.9670  -14.4135  -39.9878 H         1 UNK         0.0600 
    177 H177        4.1947  -13.2617  -38.6728 H         1 UNK         0.0600 
    178 H178        2.8189  -14.3538  -38.6559 H         1 UNK         0.0600 
    179 H179        4.2582  -12.3811  -41.3334 H         1 UNK         0.3000 
    180 H180        3.6122   -9.3198  -42.9309 H         1 UNK         0.0600 
    181 H181        5.9396   -9.8842  -41.0157 H         1 UNK         0.0600 
    182 H182        4.8912   -8.4725  -40.9583 H         1 UNK         0.0600 
    183 H183        5.9447   -8.7196  -42.3412 H         1 UNK         0.0600 
    184 H184        5.7946  -11.1309  -43.1527 H         1 UNK         0.3000 
    185 H185        5.6556  -12.2456  -45.5221 H         1 UNK         0.0600 
    186 H186        6.4652  -13.2440  -43.4341 H         1 UNK         0.0600 
    187 H187        5.0018  -14.1977  -43.2444 H         1 UNK         0.0600 
    188 H188        6.1387  -14.5628  -44.5413 H         1 UNK         0.0600 
    189 H189        3.7563  -14.4666  -45.4535 H         1 UNK         0.3000 
    190 H190       -1.7730  -20.5503  -46.8418 H         1 UNK         0.3000 
    191 H191       -3.2013  -21.6460  -48.9858 H         1 UNK         0.0600 
    192 H192       -3.9803  -19.7498  -47.5424 H         1 UNK         0.0600 
    193 H193       -5.2083  -21.0009  -47.6900 H         1 UNK         0.0600 
    194 H194       -4.2570  -20.8694  -46.2158 H         1 UNK         0.0600 
    195 H195       -2.7007  -22.9968  -45.7012 H         1 UNK         0.3000 
    196 H196       -4.3033  -25.3272  -46.0559 H         1 UNK         0.0600 
    197 H197       -3.0713  -26.1439  -44.0418 H         1 UNK         0.0600 
    198 H198       -3.6268  -24.4899  -43.8297 H         1 UNK         0.0600 
    199 H199       -1.9319  -24.8104  -44.1847 H         1 UNK         0.0600 
    200 H200       -0.7564  -24.8113  -46.4708 H         1 UNK         0.3000 
    201 H201       -0.1846  -27.5254  -47.1269 H         1 UNK         0.0600 
    202 H202        1.4938  -25.9989  -46.1515 H         1 UNK         0.0600 
    203 H203        1.4409  -24.9699  -47.5814 H         1 UNK         0.0600 
    204 H204        2.0713  -26.6099  -47.6944 H         1 UNK         0.0600 
    205 H205       -0.6403  -24.6198  -49.2033 H         1 UNK         0.3000 
    206 H206       -0.0500  -26.1749  -51.6380 H         1 UNK         0.0600 
    207 H207        0.9681  -23.9043  -51.1684 H         1 UNK         0.0600 
    208 H208        0.0973  -23.9908  -52.6890 H         1 UNK         0.0600 
    209 H209       -0.6384  -23.1948  -51.3028 H         1 UNK         0.0600 
    210 H210       -2.7985  -25.9414  -49.8940 H         1 UNK         0.3000 
    211 H211       -4.9925  -26.1471  -50.2197 H         1 UNK         0.0600 
    212 H212       -4.2592  -27.1355  -53.0317 H         1 UNK         0.0600 
    213 H213       -5.7902  -27.3935  -52.2090 H         1 UNK         0.0600 
    214 H214       -4.3249  -28.1286  -51.5770 H         1 UNK         0.0600 
    215 H215       -4.5783  -23.7369  -50.0730 H         1 UNK         0.3000 
    216 H216       -4.9919  -21.5976  -50.5396 H         1 UNK         0.0600 
    217 H217       -7.1297  -21.0447  -51.6979 H         1 UNK         0.0600 
    218 H218       -7.3404  -22.3556  -50.5509 H         1 UNK         0.0600 
    219 H219       -7.2603  -22.6993  -52.2741 H         1 UNK         0.0600 
    220 H220       -2.8806  -22.6386  -51.9401 H         1 UNK         0.3000 
    221 H221       -1.3912  -22.2673  -53.5566 H         1 UNK         0.0600 
    222 H222       -2.9606  -19.7153  -54.2109 H         1 UNK         0.0600 
    223 H223       -1.7381  -19.8509  -52.9525 H         1 UNK         0.0600 
    224 H224       -1.2923  -20.0597  -54.6374 H         1 UNK         0.0600 
    225 H225       -3.0182  -24.2077  -54.2068 H         1 UNK         0.3000 
    226 H226       -4.0863  -25.4351  -55.6996 H         1 UNK         0.0600 
    227 H227       -1.9501  -25.1794  -56.9731 H         1 UNK         0.0600 
    228 H228       -3.3226  -25.3759  -58.0512 H         1 UNK         0.0600 
    229 H229       -2.6119  -23.7841  -57.8237 H         1 UNK         0.0600 
    230 H230       -5.6465  -23.6357  -54.6139 H         1 UNK         0.3000 
    231 H231       -7.5798  -22.6443  -54.5808 H         1 UNK         0.0600 
    232 H232       -8.0793  -23.5823  -57.4491 H         1 UNK         0.0600 
    233 H233       -9.2909  -23.0781  -56.2829 H         1 UNK         0.0600 
    234 H234       -8.3697  -24.5448  -55.9995 H         1 UNK         0.0600 
    235 H235       -5.1519  -21.2958  -56.3619 H         1 UNK         0.3000 
    236 H236       -6.4974  -19.1909  -57.7548 H         1 UNK         0.0600 
    237 H237       -4.1461  -19.9582  -58.2351 H         1 UNK         0.0600 
    238 H238       -4.2597  -18.2214  -57.9876 H         1 UNK         0.0600 
    239 H239       -3.6224  -19.2428  -56.7092 H         1 UNK         0.0600 
    240 H240       -5.5980  -19.5841  -54.3827 H         1 UNK         0.3000 
    241 H241       -6.0898  -16.7815  -53.6829 H         1 UNK         0.0600 
    242 H242       -9.5766  -18.7526  -53.4975 H         1 UNK         0.3800 
    243 H243       -8.2640  -19.2801  -54.5169 H         1 UNK         0.3800 
    244 H244       -5.7181  -19.0535  -51.6930 H         1 UNK         0.0800 
    245 H245       -4.3509  -18.4111  -52.5624 H         1 UNK         0.0800 
    246 H246       -4.5221  -18.6450  -49.5880 H         1 UNK         0.0800 
    247 H247       -4.3618  -17.1119  -48.7722 H         1 UNK         0.0800 
@<TRIPOS>BOND
     1    1    2 1    
     2    1  127 1    
     3    1  128 1    
     4    1  129 1    
     5    2    3 2    
     6    2    4 am   BACKBONE|DICT|INTERRES
     7    4    5 1    
     8    4  130 1    
     9    5    6 1    
    10    5   65 1    
    11    5  131 1    
    12    6    7 1    
    13    6  132 1    
    14    6  133 1    
    15    7    8 1    
    16    8    9 1    
    17    8  134 1    
    18    8  135 1    
    19    9   10 ar   
    20    9   14 ar   
    21   10   11 ar   
    22   10  136 1    
    23   11   12 ar   
    24   11  126 1    
    25   12   13 ar   
    26   12  137 1    
    27   13   14 ar   
    28   13   15 1    
    29   14  138 1    
    30   15   16 1    
    31   15  139 1    
    32   15  140 1    
    33   16   17 1    
    34   17   18 1    
    35   17  141 1    
    36   17  142 1    
    37   18   19 1    
    38   18   67 1    
    39   18  143 1    
    40   19   20 am   BACKBONE|DICT|INTERRES
    41   19  144 1    
    42   20   21 2    
    43   20   22 1    
    44   22   23 1    
    45   22   24 1    
    46   22  145 1    
    47   23  146 1    
    48   23  147 1    
    49   23  148 1    
    50   24   25 am   BACKBONE|DICT|INTERRES
    51   24  149 1    
    52   25   26 2    
    53   25   27 1    
    54   27   28 1    
    55   27   29 1    
    56   27  150 1    
    57   28  151 1    
    58   28  152 1    
    59   28  153 1    
    60   29   30 am   BACKBONE|DICT|INTERRES
    61   29  154 1    
    62   30   31 2    
    63   30   32 1    
    64   32   33 1    
    65   32   34 1    
    66   32  155 1    
    67   33  156 1    
    68   33  157 1    
    69   33  158 1    
    70   34   35 am   BACKBONE|DICT|INTERRES
    71   34  159 1    
    72   35   36 2    
    73   35   37 1    
    74   37   38 1    
    75   37   39 1    
    76   37  160 1    
    77   38  161 1    
    78   38  162 1    
    79   38  163 1    
    80   39   40 am   BACKBONE|DICT|INTERRES
    81   39  164 1    
    82   40   41 2    
    83   40   42 1    
    84   42   43 1    
    85   42   44 1    
    86   42  165 1    
    87   43  166 1    
    88   43  167 1    
    89   43  168 1    
    90   44   45 am   BACKBONE|DICT|INTERRES
    91   44  169 1    
    92   45   46 2    
    93   45   47 1    
    94   47   48 1    
    95   47   49 1    
    96   47  170 1    
    97   48  171 1    
    98   48  172 1    
    99   48  173 1    
   100   49   50 am   BACKBONE|DICT|INTERRES
   101   49  174 1    
   102   50   51 2    
   103   50   52 1    
   104   52   53 1    
   105   52   54 1    
   106   52  175 1    
   107   53  176 1    
   108   53  177 1    
   109   53  178 1    
   110   54   55 am   BACKBONE|DICT|INTERRES
   111   54  179 1    
   112   55   56 2    
   113   55   57 1    
   114   57   58 1    
   115   57   59 1    
   116   57  180 1    
   117   58  181 1    
   118   58  182 1    
   119   58  183 1    
   120   59   60 am   BACKBONE|DICT|INTERRES
   121   59  184 1    
   122   60   61 2    
   123   60   62 1    
   124   62   63 1    
   125   62   64 1    
   126   62  185 1    
   127   63  186 1    
   128   63  187 1    
   129   63  188 1    
   130   64   65 am   BACKBONE|DICT|INTERRES
   131   64  189 1    
   132   65   66 2    
   133   67   68 2    
   134   67   69 am   BACKBONE|DICT|INTERRES
   135   69   70 1    
   136   69  190 1    
   137   70   71 1    
   138   70   72 1    
   139   70  191 1    
   140   71  192 1    
   141   71  193 1    
   142   71  194 1    
   143   72   73 2    
   144   72   74 am   BACKBONE|DICT|INTERRES
   145   74   75 1    
   146   74  195 1    
   147   75   76 1    
   148   75   77 1    
   149   75  196 1    
   150   76  197 1    
   151   76  198 1    
   152   76  199 1    
   153   77   78 2    
   154   77   79 am   BACKBONE|DICT|INTERRES
   155   79   80 1    
   156   79  200 1    
   157   80   81 1    
   158   80   82 1    
   159   80  201 1    
   160   81  202 1    
   161   81  203 1    
   162   81  204 1    
   163   82   83 2    
   164   82   84 am   BACKBONE|DICT|INTERRES
   165   84   85 1    
   166   84  205 1    
   167   85   86 1    
   168   85   87 1    
   169   85  206 1    
   170   86  207 1    
   171   86  208 1    
   172   86  209 1    
   173   87   88 2    
   174   87   89 am   BACKBONE|DICT|INTERRES
   175   89   90 1    
   176   89  210 1    
   177   90   91 1    
   178   90   92 1    
   179   90  211 1    
   180   91  212 1    
   181   91  213 1    
   182   91  214 1    
   183   92   93 2    
   184   92   94 am   BACKBONE|DICT|INTERRES
   185   94   95 1    
   186   94  215 1    
   187   95   96 1    
   188   95   97 1    
   189   95  216 1    
   190   96  217 1    
   191   96  218 1    
   192   96  219 1    
   193   97   98 2    
   194   97   99 am   BACKBONE|DICT|INTERRES
   195   99  100 1    
   196   99  220 1    
   197  100  101 1    
   198  100  102 1    
   199  100  221 1    
   200  101  222 1    
   201  101  223 1    
   202  101  224 1    
   203  102  103 2    
   204  102  104 am   BACKBONE|DICT|INTERRES
   205  104  105 1    
   206  104  225 1    
   207  105  106 1    
   208  105  107 1    
   209  105  226 1    
   210  106  227 1    
   211  106  228 1    
   212  106  229 1    
   213  107  108 2    
   214  107  109 am   BACKBONE|DICT|INTERRES
   215  109  110 1    
   216  109  230 1    
   217  110  111 1    
   218  110  112 1    
   219  110  231 1    
   220  111  232 1    
   221  111  233 1    
   222  111  234 1    
   223  112  113 2    
   224  112  114 am   BACKBONE|DICT|INTERRES
   225  114  115 1    
   226  114  235 1    
   227  115  116 1    
   228  115  117 1    
   229  115  236 1    
   230  116  237 1    
   231  116  238 1    
   232  116  239 1    
   233  117  118 2    
   234  117  119 am   BACKBONE|DICT|INTERRES
   235  119  120 1    
   236  119  240 1    
   237  120  121 1    
   238  120  124 1    
   239  120  241 1    
   240  121  122 am   BACKBONE|DICT|INTERRES
   241  121  123 2    
   242  122  242 1    
   243  122  243 1    
   244  124  125 1    
   245  124  244 1    
   246  124  245 1    
   247  125  126 1    
   248  126  246 1    
   249  126  247 1    
@<TRIPOS>SUBSTRUCTURE
     1 UNK         1 GROUP             0       ****    0 ROOT    
