@<TRIPOS>MOLECULE
3R540
247   249    1
SMALL
USER_CHARGES


@<TRIPOS>ATOM
      1 CA         -2.5363  -11.0161  -49.3450 C.3       0 UNK        -0.1800 
      2 C          -1.3697  -11.9920  -49.4047 C.2       0 UNK         0.5000 
      3 O          -0.2214  -11.5671  -49.5321 O.2       0 UNK        -0.5000 
      4 N          -1.6591  -13.2962  -49.3116 N.am      1 UNK        -0.5000 
      5 CA         -0.6699  -14.3821  -49.3421 C.3       1 UNK         0.1400 
      6 C6         -1.3331  -15.7533  -49.6284 C.3       23 UNK        -0.0398 
      7 S7         -1.7852  -15.9420  -51.3858 S.3       23 UNK        -0.2404 
      8 C8         -0.1844  -16.3944  -52.1337 C.3       23 UNK        -0.0205 
      9 C9          0.2786  -17.7839  -51.7222 C.ar      23 UNK        -0.0193 
     10 C10        -0.1472  -18.9024  -52.4398 C.ar      23 UNK        -0.1150 
     11 C11         0.2746  -20.1842  -52.0834 C.ar      23 UNK        -0.0193 
     12 C12         1.1200  -20.3455  -50.9807 C.ar      23 UNK        -0.1150 
     13 C13         1.5742  -19.2319  -50.2656 C.ar      23 UNK        -0.0193 
     14 C14         1.1582  -17.9539  -50.6492 C.ar      23 UNK        -0.1150 
     15 C15         2.5499  -19.4056  -49.1084 C.3       23 UNK        -0.0205 
     16 S16         1.9123  -18.7759  -47.5194 S.3       23 UNK        -0.2404 
     17 C17         0.3958  -19.7598  -47.2905 C.3       23 UNK        -0.0398 
     18 CA          0.6711  -21.2196  -46.8648 C.3       11 UNK         0.1400 
     19 N           1.3214  -21.3225  -45.5544 N.am      11 UNK        -0.5000 
     20 C           1.9141  -22.4352  -45.0997 C.2       10 UNK         0.5000 
     21 O           1.9758  -23.4831  -45.7426 O.2       10 UNK        -0.5000 
     22 CA          2.5043  -22.3860  -43.6791 C.3       10 UNK         0.1400 
     23 CB          3.8443  -21.6348  -43.6596 C.3       10 UNK        -0.1800 
     24 N           1.5807  -21.7885  -42.7154 N.am      10 UNK        -0.5000 
     25 C           0.4218  -22.3477  -42.3379 C.2       9 UNK         0.5000 
     26 O           0.0405  -23.4545  -42.7203 O.2       9 UNK        -0.5000 
     27 CA         -0.4784  -21.5249  -41.3969 C.3       9 UNK         0.1400 
     28 CB         -0.0611  -21.7303  -39.9332 C.3       9 UNK        -0.1800 
     29 N          -0.4864  -20.0944  -41.7073 N.am      9 UNK        -0.5000 
     30 C          -0.9178  -19.5665  -42.8618 C.2       8 UNK         0.5000 
     31 O          -1.3776  -20.2288  -43.7889 O.2       8 UNK        -0.5000 
     32 CA         -0.7431  -18.0509  -43.0439 C.3       8 UNK         0.1400 
     33 CB         -1.8181  -17.2694  -42.2750 C.3       8 UNK        -0.1800 
     34 N           0.5868  -17.5949  -42.6445 N.am      8 UNK        -0.5000 
     35 C           1.7308  -18.0070  -43.2092 C.2       7 UNK         0.5000 
     36 O           1.7844  -18.8055  -44.1431 O.2       7 UNK        -0.5000 
     37 CA          3.0336  -17.4828  -42.5851 C.3       7 UNK         0.1400 
     38 CB          3.3446  -16.0545  -43.0593 C.3       7 UNK        -0.1800 
     39 N           2.9831  -17.5204  -41.1244 N.am      7 UNK        -0.5000 
     40 C           2.9613  -18.6478  -40.3989 C.2       6 UNK         0.5000 
     41 O           3.0359  -19.7773  -40.8829 O.2       6 UNK        -0.5000 
     42 CA          2.7824  -18.4797  -38.8796 C.3       6 UNK         0.1400 
     43 CB          4.1257  -18.1639  -38.2051 C.3       6 UNK        -0.1800 
     44 N           1.8114  -17.4363  -38.5437 N.am      6 UNK        -0.5000 
     45 C           0.4989  -17.5154  -38.8044 C.2       5 UNK         0.5000 
     46 O          -0.0350  -18.4873  -39.3373 O.2       5 UNK        -0.5000 
     47 CA         -0.3536  -16.2846  -38.4474 C.3       5 UNK         0.1400 
     48 CB         -0.7879  -16.3372  -36.9751 C.3       5 UNK        -0.1800 
     49 N           0.3212  -15.0105  -38.7119 N.am      5 UNK        -0.5000 
     50 C           0.6994  -14.5902  -39.9253 C.2       4 UNK         0.5000 
     51 O           0.5731  -15.2576  -40.9559 O.2       4 UNK        -0.5000 
     52 CA          1.3566  -13.2082  -40.0008 C.3       4 UNK         0.1400 
     53 CB          2.8733  -13.3114  -39.7635 C.3       4 UNK        -0.1800 
     54 N           1.0970  -12.6574  -41.3254 N.am      4 UNK        -0.5000 
     55 C           1.0433  -11.3579  -41.6409 C.2       3 UNK         0.5000 
     56 O           1.2415  -10.4565  -40.8246 O.2       3 UNK        -0.5000 
     57 CA          0.7178  -11.0031  -43.1069 C.3       3 UNK         0.1400 
     58 CB          1.5726   -9.8313  -43.6232 C.3       3 UNK        -0.1800 
     59 N           0.9033  -12.1556  -43.9926 N.am      3 UNK        -0.5000 
     60 C           0.0277  -12.5761  -44.9111 C.2       2 UNK         0.5000 
     61 O          -1.0535  -12.0298  -45.1468 O.2       2 UNK        -0.5000 
     62 CA          0.4254  -13.8426  -45.6780 C.3       2 UNK         0.1400 
     63 CB          0.0771  -15.1047  -44.8741 C.3       2 UNK        -0.1800 
     64 N          -0.2705  -13.8780  -46.9577 N.am      2 UNK        -0.5000 
     65 C           0.1991  -14.4566  -48.0681 C.2       1 UNK         0.5000 
     66 O           1.2833  -15.0377  -48.1218 O.2       1 UNK        -0.5000 
     67 C          -0.6185  -22.0598  -46.9526 C.2       11 UNK         0.5000 
     68 O          -0.9128  -22.5902  -48.0243 O.2       11 UNK        -0.5000 
     69 N          -1.3589  -22.1930  -45.8417 N.am      12 UNK        -0.5000 
     70 CA         -2.6026  -22.9655  -45.7421 C.3       12 UNK         0.1400 
     71 CB         -3.2429  -22.7493  -44.3630 C.3       12 UNK        -0.1800 
     72 C          -2.4374  -24.4703  -46.0260 C.2       12 UNK         0.5000 
     73 O          -3.4137  -25.1191  -46.4024 O.2       12 UNK        -0.5000 
     74 N          -1.2099  -24.9917  -45.8818 N.am      13 UNK        -0.5000 
     75 CA         -0.8337  -26.3467  -46.2871 C.3       13 UNK         0.1400 
     76 CB          0.5665  -26.6693  -45.7453 C.3       13 UNK        -0.1800 
     77 C          -0.8867  -26.5482  -47.8160 C.2       13 UNK         0.5000 
     78 O          -1.1281  -27.6695  -48.2646 O.2       13 UNK        -0.5000 
     79 N          -0.6856  -25.4655  -48.5820 N.am      14 UNK        -0.5000 
     80 CA         -0.9115  -25.4193  -50.0232 C.3       14 UNK         0.1400 
     81 CB          0.0796  -24.4440  -50.6781 C.3       14 UNK        -0.1800 
     82 C          -2.3751  -25.0337  -50.2979 C.2       14 UNK         0.5000 
     83 O          -3.0933  -25.8298  -50.9015 O.2       14 UNK        -0.5000 
     84 N          -2.7879  -23.8573  -49.7987 N.am      15 UNK        -0.5000 
     85 CA         -4.1652  -23.3479  -49.7459 C.3       15 UNK         0.1400 
     86 CB         -4.8977  -23.4049  -51.1047 C.3       15 UNK        -0.1800 
     87 C          -4.2062  -21.8988  -49.2351 C.2       15 UNK         0.5000 
     88 O          -5.1514  -21.5434  -48.5323 O.2       15 UNK        -0.5000 
     89 N          -3.2049  -21.0879  -49.6176 N.am      16 UNK        -0.5000 
     90 CA         -3.0889  -19.6402  -49.3652 C.3       16 UNK         0.1400 
     91 CB         -3.0899  -19.3219  -47.8531 C.3       16 UNK        -0.1800 
     92 C          -4.1450  -18.7957  -50.1136 C.2       16 UNK         0.5000 
     93 O          -4.4112  -17.6612  -49.7149 O.2       16 UNK        -0.5000 
     94 N          -4.7333  -19.3579  -51.1769 N.am      17 UNK        -0.5000 
     95 CA         -5.7978  -18.7363  -51.9691 C.3       17 UNK         0.1400 
     96 CB         -6.8810  -19.7948  -52.2293 C.3       17 UNK        -0.1800 
     97 C          -5.2852  -18.1672  -53.3049 C.2       17 UNK         0.5000 
     98 O          -6.0866  -17.6296  -54.0710 O.2       17 UNK        -0.5000 
     99 N          -3.9828  -18.3316  -53.5831 N.am      18 UNK        -0.5000 
    100 CA        -3.3294  -18.0837  -54.8709 C.3       18 UNK         0.1400 
    101 CB        -3.3395  -16.5798  -55.2266 C.3       18 UNK        -0.1800 
    102 C         -3.8984  -19.0084  -55.9662 C.2       18 UNK         0.5000 
    103 O         -4.2775  -20.1420  -55.6576 O.2       18 UNK        -0.5000 
    104 N         -3.9612  -18.5175  -57.2120 N.am      19 UNK        -0.5000 
    105 CA        -4.3474  -19.2469  -58.4280 C.3       19 UNK         0.1400 
    106 CB        -4.2761  -18.2786  -59.6195 C.3       19 UNK        -0.1800 
    107 C         -5.7220  -19.9494  -58.3894 C.2       19 UNK         0.5000 
    108 O         -5.9805  -20.8142  -59.2276 O.2       19 UNK        -0.5000 
    109 N         -6.5704  -19.5839  -57.4202 N.am      20 UNK        -0.5000 
    110 CA        -7.8398  -20.2375  -57.1209 C.3       20 UNK         0.1400 
    111 CB        -8.6127  -19.3781  -56.1091 C.3       20 UNK        -0.1800 
    112 C         -7.6918  -21.6806  -56.5947 C.2       20 UNK         0.5000 
    113 O         -8.6282  -22.4615  -56.7740 O.2       20 UNK        -0.5000 
    114 N         -6.5569  -22.0220  -55.9594 N.am      21 UNK        -0.5000 
    115 CA        -6.3423  -23.3543  -55.3812 C.3       21 UNK         0.1400 
    116 CB        -7.0501  -23.4606  -54.0173 C.3       21 UNK        -0.1800 
    117 C         -4.8736  -23.8051  -55.2706 C.2       21 UNK         0.5000 
    118 O         -4.6573  -25.0004  -55.0624 O.2       21 UNK        -0.5000 
    119 N         -3.8887  -22.9072  -55.4048 N.am      22 UNK        -0.5000 
    120 CA        -2.4600  -23.2498  -55.3120 C.3       22 UNK         0.1400 
    121 C         -1.5620  -22.4365  -56.2865 C.2       22 UNK         0.5000 
    122 N         -0.2587  -22.6859  -56.3020 N.am      22 UNK        -0.7600 
    123 O         -2.0264  -21.6088  -57.0648 O.2       22 UNK        -0.5000 
    124 C124       -1.9520  -23.2951  -53.8417 C.3       23 UNK        -0.0398 
    125 S125       -1.9118  -21.6922  -52.9546 S.3       23 UNK        -0.2404 
    126 C126       -0.1171  -21.3784  -52.9402 C.3       23 UNK        -0.0205 
    127 H127       -2.5656  -10.4101  -50.2505 H         1 UNK         0.0600 
    128 H128       -3.4923  -11.5317  -49.2501 H         1 UNK         0.0600 
    129 H129       -2.4233  -10.3494  -48.4901 H         1 UNK         0.0600 
    130 H130       -2.6237  -13.5841  -49.2270 H         1 UNK         0.3000 
    131 H131        0.0280  -14.1624  -50.1522 H         1 UNK         0.0600 
    132 H132       -2.2354  -15.8726  -49.0263 H         1 UNK         0.0800 
    133 H133       -0.6939  -16.5872  -49.3412 H         1 UNK         0.0800 
    134 H134       -0.2866  -16.3521  -53.2191 H         1 UNK         0.0800 
    135 H135        0.5718  -15.6518  -51.8771 H         1 UNK         0.0800 
    136 H136       -0.7912  -18.7765  -53.2931 H         1 UNK         0.1150 
    137 H137        1.4564  -21.3345  -50.7029 H         1 UNK         0.1150 
    138 H138        1.5172  -17.0920  -50.1036 H         1 UNK         0.1150 
    139 H139        2.8343  -20.4519  -48.9916 H         1 UNK         0.0800 
    140 H140        3.4697  -18.8701  -49.3469 H         1 UNK         0.0800 
    141 H141       -0.1726  -19.7246  -48.2206 H         1 UNK         0.0800 
    142 H142       -0.2169  -19.2582  -46.5393 H         1 UNK         0.0800 
    143 H143        1.3547  -21.6523  -47.5975 H         1 UNK         0.0600 
    144 H144        1.3521  -20.4762  -44.9903 H         1 UNK         0.3000 
    145 H145        2.6951  -23.4143  -43.3648 H         1 UNK         0.0600 
    146 H146        4.2929  -21.6564  -42.6663 H         1 UNK         0.0600 
    147 H147        4.5561  -22.0912  -44.3484 H         1 UNK         0.0600 
    148 H148        3.7308  -20.5910  -43.9513 H         1 UNK         0.0600 
    149 H149        1.8421  -20.8897  -42.3275 H         1 UNK         0.3000 
    150 H150       -1.4998  -21.8927  -41.5132 H         1 UNK         0.0600 
    151 H151       -0.0556  -22.7893  -39.6720 H         1 UNK         0.0600 
    152 H152       -0.7519  -21.2315  -39.2533 H         1 UNK         0.0600 
    153 H153        0.9382  -21.3380  -39.7416 H         1 UNK         0.0600 
    154 H154       -0.1546  -19.4706  -40.9764 H         1 UNK         0.3000 
    155 H155       -0.8615  -17.8325  -44.1071 H         1 UNK         0.0600 
    156 H156       -1.7568  -17.4478  -41.2019 H         1 UNK         0.0600 
    157 H157       -2.8176  -17.5608  -42.5997 H         1 UNK         0.0600 
    158 H158       -1.7210  -16.1964  -42.4407 H         1 UNK         0.0600 
    159 H159        0.6265  -16.9034  -41.9009 H         1 UNK         0.3000 
    160 H160        3.8455  -18.1337  -42.9167 H         1 UNK         0.0600 
    161 H161        4.3243  -15.7299  -42.7085 H         1 UNK         0.0600 
    162 H162        2.6087  -15.3360  -42.7002 H         1 UNK         0.0600 
    163 H163        3.3543  -15.9988  -44.1488 H         1 UNK         0.0600 
    164 H164        2.8705  -16.6380  -40.6492 H         1 UNK         0.3000 
    165 H165        2.4146  -19.4278  -38.4812 H         1 UNK         0.0600 
    166 H166        4.0213  -18.1200  -37.1208 H         1 UNK         0.0600 
    167 H167        4.8645  -18.9349  -38.4284 H         1 UNK         0.0600 
    168 H168        4.5339  -17.2103  -38.5423 H         1 UNK         0.0600 
    169 H169        2.1671  -16.6009  -38.1031 H         1 UNK         0.3000 
    170 H170       -1.2526  -16.3178  -39.0661 H         1 UNK         0.0600 
    171 H171       -1.3102  -17.2694  -36.7555 H         1 UNK         0.0600 
    172 H172        0.0658  -16.2721  -36.2994 H         1 UNK         0.0600 
    173 H173       -1.4695  -15.5208  -36.7355 H         1 UNK         0.0600 
    174 H174        0.4709  -14.4080  -37.9153 H         1 UNK         0.3000 
    175 H175        0.9056  -12.5656  -39.2416 H         1 UNK         0.0600 
    176 H176        3.3555  -13.9419  -40.5116 H         1 UNK         0.0600 
    177 H177        3.3458  -12.3298  -39.8007 H         1 UNK         0.0600 
    178 H178        3.0901  -13.7373  -38.7832 H         1 UNK         0.0600 
    179 H179        0.8406  -13.3523  -42.0142 H         1 UNK         0.3000 
    180 H180       -0.3283  -10.6906  -43.1129 H         1 UNK         0.0600 
    181 H181        2.6364  -10.0696  -43.5970 H         1 UNK         0.0600 
    182 H182        1.4198   -8.9346  -43.0214 H         1 UNK         0.0600 
    183 H183        1.3111   -9.5771  -44.6506 H         1 UNK         0.0600 
    184 H184        1.7736  -12.6564  -43.8778 H         1 UNK         0.3000 
    185 H185        1.5041  -13.8068  -45.8467 H         1 UNK         0.0600 
    186 H186        0.5132  -15.0684  -43.8764 H         1 UNK         0.0600 
    187 H187       -1.0008  -15.2188  -44.7543 H         1 UNK         0.0600 
    188 H188        0.4573  -16.0012  -45.3647 H         1 UNK         0.0600 
    189 H189       -1.1361  -13.3547  -46.9882 H         1 UNK         0.3000 
    190 H190       -1.1020  -21.6573  -45.0164 H         1 UNK         0.3000 
    191 H191       -3.2901  -22.5736  -46.4930 H         1 UNK         0.0600 
    192 H192       -2.5673  -23.0360  -43.5573 H         1 UNK         0.0600 
    193 H193       -4.1534  -23.3401  -44.2545 H         1 UNK         0.0600 
    194 H194       -3.5216  -21.7059  -44.2174 H         1 UNK         0.0600 
    195 H195       -0.4658  -24.3911  -45.5527 H         1 UNK         0.3000 
    196 H196       -1.5433  -27.0424  -45.8346 H         1 UNK         0.0600 
    197 H197        1.3292  -26.0368  -46.2003 H         1 UNK         0.0600 
    198 H198        0.8348  -27.7055  -45.9548 H         1 UNK         0.0600 
    199 H199        0.6157  -26.5316  -44.6649 H         1 UNK         0.0600 
    200 H200       -0.5390  -24.5709  -48.1291 H         1 UNK         0.3000 
    201 H201       -0.7309  -26.4068  -50.4536 H         1 UNK         0.0600 
    202 H202       -0.0885  -23.4106  -50.3762 H         1 UNK         0.0600 
    203 H203       -0.0052  -24.4895  -51.7628 H         1 UNK         0.0600 
    204 H204        1.1084  -24.7006  -50.4253 H         1 UNK         0.0600 
    205 H205       -2.1139  -23.3191  -49.2574 H         1 UNK         0.3000 
    206 H206       -4.7111  -23.9632  -49.0283 H         1 UNK         0.0600 
    207 H207       -5.1109  -24.4259  -51.4173 H         1 UNK         0.0600 
    208 H208       -5.8622  -22.8990  -51.0435 H         1 UNK         0.0600 
    209 H209       -4.3289  -22.9217  -51.8969 H         1 UNK         0.0600 
    210 H210       -2.4885  -21.4779  -50.2151 H         1 UNK         0.3000 
    211 H211       -2.1191  -19.3436  -49.7683 H         1 UNK         0.0600 
    212 H212       -4.0946  -19.3649  -47.4315 H         1 UNK         0.0600 
    213 H213       -2.7044  -18.3189  -47.6670 H         1 UNK         0.0600 
    214 H214       -2.4759  -20.0166  -47.2888 H         1 UNK         0.0600 
    215 H215       -4.4587  -20.2924  -51.4412 H         1 UNK         0.3000 
    216 H216       -6.2543  -17.9136  -51.4151 H         1 UNK         0.0600 
    217 H217       -7.7658  -19.3458  -52.6818 H         1 UNK         0.0600 
    218 H218       -7.1991  -20.2785  -51.3055 H         1 UNK         0.0600 
    219 H219       -6.5213  -20.5642  -52.9107 H         1 UNK         0.0600 
    220 H220       -3.4204  -18.8054  -52.8926 H         1 UNK         0.3000 
    221 H221       -2.2903  -18.3837  -54.7597 H         1 UNK         0.0600 
    222 H222       -4.3372  -16.2240  -55.4852 H         1 UNK         0.0600 
    223 H223       -2.9823  -15.9806  -54.3889 H         1 UNK         0.0600 
    224 H224       -2.6815  -16.3672  -56.0697 H         1 UNK         0.0600 
    225 H225       -3.6559  -17.5661  -57.3548 H         1 UNK         0.3000 
    226 H226       -3.6025  -20.0291  -58.5827 H         1 UNK         0.0600 
    227 H227       -3.2748  -17.8621  -59.7317 H         1 UNK         0.0600 
    228 H228       -4.5195  -18.7859  -60.5541 H         1 UNK         0.0600 
    229 H229       -4.9755  -17.4496  -59.5042 H         1 UNK         0.0600 
    230 H230       -6.2631  -18.8781  -56.7662 H         1 UNK         0.3000 
    231 H231       -8.4200  -20.2820  -58.0448 H         1 UNK         0.0600 
    232 H232       -8.7898  -18.3743  -56.4956 H         1 UNK         0.0600 
    233 H233       -8.0706  -19.2845  -55.1678 H         1 UNK         0.0600 
    234 H234       -9.5861  -19.8166  -55.8852 H         1 UNK         0.0600 
    235 H235       -5.8151  -21.3360  -55.8561 H         1 UNK         0.3000 
    236 H236       -6.8019  -24.0872  -56.0480 H         1 UNK         0.0600 
    237 H237       -6.9332  -24.4568  -53.5887 H         1 UNK         0.0600 
    238 H238       -6.6400  -22.7506  -53.3038 H         1 UNK         0.0600 
    239 H239       -8.1202  -23.2722  -54.1023 H         1 UNK         0.0600 
    240 H240       -4.0763  -21.9228  -55.5846 H         1 UNK         0.3000 
    241 H241       -2.3573  -24.2643  -55.7021 H         1 UNK         0.0600 
    242 H242        0.3213  -22.1735  -56.9478 H         1 UNK         0.3800 
    243 H243        0.1605  -23.3913  -55.7181 H         1 UNK         0.3800 
    244 H244       -2.5871  -23.9695  -53.2665 H         1 UNK         0.0800 
    245 H245       -0.9652  -23.7557  -53.8088 H         1 UNK         0.0800 
    246 H246        0.4088  -22.2698  -52.5995 H         1 UNK         0.0800 
    247 H247        0.2202  -21.1969  -53.9610 H         1 UNK         0.0800 
@<TRIPOS>BOND
     1    1    2 1    
     2    1  127 1    
     3    1  128 1    
     4    1  129 1    
     5    2    3 2    
     6    2    4 am   BACKBONE|DICT|INTERRES
     7    4    5 1    
     8    4  130 1    
     9    5    6 1    
    10    5   65 1    
    11    5  131 1    
    12    6    7 1    
    13    6  132 1    
    14    6  133 1    
    15    7    8 1    
    16    8    9 1    
    17    8  134 1    
    18    8  135 1    
    19    9   10 ar   
    20    9   14 ar   
    21   10   11 ar   
    22   10  136 1    
    23   11   12 ar   
    24   11  126 1    
    25   12   13 ar   
    26   12  137 1    
    27   13   14 ar   
    28   13   15 1    
    29   14  138 1    
    30   15   16 1    
    31   15  139 1    
    32   15  140 1    
    33   16   17 1    
    34   17   18 1    
    35   17  141 1    
    36   17  142 1    
    37   18   19 1    
    38   18   67 1    
    39   18  143 1    
    40   19   20 am   BACKBONE|DICT|INTERRES
    41   19  144 1    
    42   20   21 2    
    43   20   22 1    
    44   22   23 1    
    45   22   24 1    
    46   22  145 1    
    47   23  146 1    
    48   23  147 1    
    49   23  148 1    
    50   24   25 am   BACKBONE|DICT|INTERRES
    51   24  149 1    
    52   25   26 2    
    53   25   27 1    
    54   27   28 1    
    55   27   29 1    
    56   27  150 1    
    57   28  151 1    
    58   28  152 1    
    59   28  153 1    
    60   29   30 am   BACKBONE|DICT|INTERRES
    61   29  154 1    
    62   30   31 2    
    63   30   32 1    
    64   32   33 1    
    65   32   34 1    
    66   32  155 1    
    67   33  156 1    
    68   33  157 1    
    69   33  158 1    
    70   34   35 am   BACKBONE|DICT|INTERRES
    71   34  159 1    
    72   35   36 2    
    73   35   37 1    
    74   37   38 1    
    75   37   39 1    
    76   37  160 1    
    77   38  161 1    
    78   38  162 1    
    79   38  163 1    
    80   39   40 am   BACKBONE|DICT|INTERRES
    81   39  164 1    
    82   40   41 2    
    83   40   42 1    
    84   42   43 1    
    85   42   44 1    
    86   42  165 1    
    87   43  166 1    
    88   43  167 1    
    89   43  168 1    
    90   44   45 am   BACKBONE|DICT|INTERRES
    91   44  169 1    
    92   45   46 2    
    93   45   47 1    
    94   47   48 1    
    95   47   49 1    
    96   47  170 1    
    97   48  171 1    
    98   48  172 1    
    99   48  173 1    
   100   49   50 am   BACKBONE|DICT|INTERRES
   101   49  174 1    
   102   50   51 2    
   103   50   52 1    
   104   52   53 1    
   105   52   54 1    
   106   52  175 1    
   107   53  176 1    
   108   53  177 1    
   109   53  178 1    
   110   54   55 am   BACKBONE|DICT|INTERRES
   111   54  179 1    
   112   55   56 2    
   113   55   57 1    
   114   57   58 1    
   115   57   59 1    
   116   57  180 1    
   117   58  181 1    
   118   58  182 1    
   119   58  183 1    
   120   59   60 am   BACKBONE|DICT|INTERRES
   121   59  184 1    
   122   60   61 2    
   123   60   62 1    
   124   62   63 1    
   125   62   64 1    
   126   62  185 1    
   127   63  186 1    
   128   63  187 1    
   129   63  188 1    
   130   64   65 am   BACKBONE|DICT|INTERRES
   131   64  189 1    
   132   65   66 2    
   133   67   68 2    
   134   67   69 am   BACKBONE|DICT|INTERRES
   135   69   70 1    
   136   69  190 1    
   137   70   71 1    
   138   70   72 1    
   139   70  191 1    
   140   71  192 1    
   141   71  193 1    
   142   71  194 1    
   143   72   73 2    
   144   72   74 am   BACKBONE|DICT|INTERRES
   145   74   75 1    
   146   74  195 1    
   147   75   76 1    
   148   75   77 1    
   149   75  196 1    
   150   76  197 1    
   151   76  198 1    
   152   76  199 1    
   153   77   78 2    
   154   77   79 am   BACKBONE|DICT|INTERRES
   155   79   80 1    
   156   79  200 1    
   157   80   81 1    
   158   80   82 1    
   159   80  201 1    
   160   81  202 1    
   161   81  203 1    
   162   81  204 1    
   163   82   83 2    
   164   82   84 am   BACKBONE|DICT|INTERRES
   165   84   85 1    
   166   84  205 1    
   167   85   86 1    
   168   85   87 1    
   169   85  206 1    
   170   86  207 1    
   171   86  208 1    
   172   86  209 1    
   173   87   88 2    
   174   87   89 am   BACKBONE|DICT|INTERRES
   175   89   90 1    
   176   89  210 1    
   177   90   91 1    
   178   90   92 1    
   179   90  211 1    
   180   91  212 1    
   181   91  213 1    
   182   91  214 1    
   183   92   93 2    
   184   92   94 am   BACKBONE|DICT|INTERRES
   185   94   95 1    
   186   94  215 1    
   187   95   96 1    
   188   95   97 1    
   189   95  216 1    
   190   96  217 1    
   191   96  218 1    
   192   96  219 1    
   193   97   98 2    
   194   97   99 am   BACKBONE|DICT|INTERRES
   195   99  100 1    
   196   99  220 1    
   197  100  101 1    
   198  100  102 1    
   199  100  221 1    
   200  101  222 1    
   201  101  223 1    
   202  101  224 1    
   203  102  103 2    
   204  102  104 am   BACKBONE|DICT|INTERRES
   205  104  105 1    
   206  104  225 1    
   207  105  106 1    
   208  105  107 1    
   209  105  226 1    
   210  106  227 1    
   211  106  228 1    
   212  106  229 1    
   213  107  108 2    
   214  107  109 am   BACKBONE|DICT|INTERRES
   215  109  110 1    
   216  109  230 1    
   217  110  111 1    
   218  110  112 1    
   219  110  231 1    
   220  111  232 1    
   221  111  233 1    
   222  111  234 1    
   223  112  113 2    
   224  112  114 am   BACKBONE|DICT|INTERRES
   225  114  115 1    
   226  114  235 1    
   227  115  116 1    
   228  115  117 1    
   229  115  236 1    
   230  116  237 1    
   231  116  238 1    
   232  116  239 1    
   233  117  118 2    
   234  117  119 am   BACKBONE|DICT|INTERRES
   235  119  120 1    
   236  119  240 1    
   237  120  121 1    
   238  120  124 1    
   239  120  241 1    
   240  121  122 am   BACKBONE|DICT|INTERRES
   241  121  123 2    
   242  122  242 1    
   243  122  243 1    
   244  124  125 1    
   245  124  244 1    
   246  124  245 1    
   247  125  126 1    
   248  126  246 1    
   249  126  247 1    
@<TRIPOS>SUBSTRUCTURE
     1 UNK         1 GROUP             0       ****    0 ROOT    
