@<TRIPOS>MOLECULE
3R540
247   249    1
SMALL
USER_CHARGES


@<TRIPOS>ATOM
      1 CA          1.5592  -11.1118  -51.9375 C.3       0 UNK        -0.1800 
      2 C           1.8242  -11.5913  -50.5170 C.2       0 UNK         0.5000 
      3 O           2.7240  -11.0746  -49.8535 O.2       0 UNK        -0.5000 
      4 N           1.0518  -12.5810  -50.0541 N.am      1 UNK        -0.5000 
      5 CA          1.1246  -13.1381  -48.6996 C.3       1 UNK         0.1400 
      6 C6          0.3660  -14.4827  -48.5885 C.3       23 UNK        -0.0398 
      7 S7          1.1877  -15.8112  -49.5258 S.3       23 UNK        -0.2404 
      8 C8         -0.1528  -16.3607  -50.6237 C.3       23 UNK        -0.0205 
      9 C9          0.2407  -17.6397  -51.3426 C.ar      23 UNK        -0.0193 
     10 C10         0.7654  -17.5981  -52.6380 C.ar      23 UNK        -0.1150 
     11 C11         1.1798  -18.7727  -53.2751 C.ar      23 UNK        -0.0193 
     12 C12         1.0625  -19.9940  -52.6016 C.ar      23 UNK        -0.1150 
     13 C13         0.5273  -20.0466  -51.3117 C.ar      23 UNK        -0.0193 
     14 C14         0.1075  -18.8682  -50.6919 C.ar      23 UNK        -0.1150 
     15 C15         0.4226  -21.3685  -50.5736 C.3       23 UNK        -0.0205 
     16 S16         1.8607  -21.6331  -49.4935 S.3       23 UNK        -0.2404 
     17 C17         1.4492  -23.2571  -48.7605 C.3       23 UNK        -0.0398 
     18 CA          0.9298  -23.1925  -47.2930 C.3       11 UNK         0.1400 
     19 N           1.8353  -22.5010  -46.3653 N.am      11 UNK        -0.5000 
     20 C           3.0731  -22.9367  -46.0858 C.2       10 UNK         0.5000 
     21 O           3.5599  -23.9673  -46.5536 O.2       10 UNK        -0.5000 
     22 CA          3.9112  -22.1056  -45.0989 C.3       10 UNK         0.1400 
     23 CB          4.3427  -20.7669  -45.7186 C.3       10 UNK        -0.1800 
     24 N           3.2182  -21.8760  -43.8339 N.am      10 UNK        -0.5000 
     25 C           2.9100  -22.8337  -42.9468 C.2       9 UNK         0.5000 
     26 O           3.2161  -24.0192  -43.0796 O.2       9 UNK        -0.5000 
     27 CA          2.1205  -22.3968  -41.7000 C.3       9 UNK         0.1400 
     28 CB          3.0717  -21.9626  -40.5740 C.3       9 UNK        -0.1800 
     29 N           1.1849  -21.3121  -41.9890 N.am      9 UNK        -0.5000 
     30 C           0.0547  -21.4565  -42.6929 C.2       8 UNK         0.5000 
     31 O          -0.3511  -22.5274  -43.1442 O.2       8 UNK        -0.5000 
     32 CA         -0.7341  -20.1704  -42.9799 C.3       8 UNK         0.1400 
     33 CB         -1.6176  -19.7900  -41.7835 C.3       8 UNK        -0.1800 
     34 N           0.1293  -19.0433  -43.3400 N.am      8 UNK        -0.5000 
     35 C           0.9083  -18.9992  -44.4317 C.2       7 UNK         0.5000 
     36 O           0.9740  -19.9078  -45.2619 O.2       7 UNK        -0.5000 
     37 CA          1.7813  -17.7465  -44.6183 C.3       7 UNK         0.1400 
     38 CB          0.9633  -16.6120  -45.2539 C.3       7 UNK        -0.1800 
     39 N           2.3933  -17.2639  -43.3809 N.am      7 UNK        -0.5000 
     40 C           3.1906  -17.9608  -42.5619 C.2       6 UNK         0.5000 
     41 O           3.4879  -19.1404  -42.7491 O.2       6 UNK        -0.5000 
     42 CA          3.7275  -17.2412  -41.3062 C.3       6 UNK         0.1400 
     43 CB          5.0458  -16.5052  -41.6102 C.3       6 UNK        -0.1800 
     44 N           2.7526  -16.3615  -40.6426 N.am      6 UNK        -0.5000 
     45 C           2.2024  -15.2247  -41.0914 C.2       5 UNK         0.5000 
     46 O           2.4938  -14.6888  -42.1619 O.2       5 UNK        -0.5000 
     47 CA          1.0685  -14.6341  -40.2331 C.3       5 UNK         0.1400 
     48 CB          1.3639  -13.1721  -39.8628 C.3       5 UNK        -0.1800 
     49 N          -0.2279  -14.6958  -40.9117 N.am      5 UNK        -0.5000 
     50 C          -0.7969  -15.7730  -41.4696 C.2       4 UNK         0.5000 
     51 O          -0.2853  -16.8927  -41.4701 O.2       4 UNK        -0.5000 
     52 CA         -2.1590  -15.5875  -42.1668 C.3       4 UNK         0.1400 
     53 CB         -3.3189  -15.9332  -41.2142 C.3       4 UNK        -0.1800 
     54 N          -2.3609  -14.2816  -42.8102 N.am      4 UNK        -0.5000 
     55 C          -2.5122  -13.0696  -42.2611 C.2       3 UNK         0.5000 
     56 O          -2.4477  -12.8503  -41.0505 O.2       3 UNK        -0.5000 
     57 CA         -2.7070  -11.9032  -43.2518 C.3       3 UNK         0.1400 
     58 CB         -3.3458  -10.6717  -42.5855 C.3       3 UNK        -0.1800 
     59 N          -1.4409  -11.5005  -43.8656 N.am      3 UNK        -0.5000 
     60 C          -0.7526  -12.2098  -44.7684 C.2       2 UNK         0.5000 
     61 O          -1.1290  -13.2994  -45.2117 O.2       2 UNK        -0.5000 
     62 CA          0.5895  -11.6028  -45.2251 C.3       2 UNK         0.1400 
     63 CB          1.6418  -11.7223  -44.1111 C.3       2 UNK        -0.1800 
     64 N           1.1046  -12.2692  -46.4202 N.am      2 UNK        -0.5000 
     65 C           0.5854  -12.1473  -47.6479 C.2       1 UNK         0.5000 
     66 O          -0.3024  -11.3423  -47.9443 O.2       1 UNK        -0.5000 
     67 C          -0.5209  -22.6743  -47.2692 C.2       11 UNK         0.5000 
     68 O          -1.4082  -23.4260  -47.6741 O.2       11 UNK        -0.5000 
     69 N          -0.7702  -21.4226  -46.8528 N.am      12 UNK        -0.5000 
     70 CA         -2.0498  -20.7296  -47.0620 C.3       12 UNK         0.1400 
     71 CB         -1.9167  -19.2500  -46.6719 C.3       12 UNK        -0.1800 
     72 C          -3.2696  -21.3771  -46.3768 C.2       12 UNK         0.5000 
     73 O          -4.3883  -21.2079  -46.8635 O.2       12 UNK        -0.5000 
     74 N          -3.0450  -22.1345  -45.2940 N.am      13 UNK        -0.5000 
     75 CA         -4.0888  -22.9008  -44.6095 C.3       13 UNK         0.1400 
     76 CB         -3.5748  -23.3486  -43.2338 C.3       13 UNK        -0.1800 
     77 C          -4.5696  -24.1171  -45.4253 C.2       13 UNK         0.5000 
     78 O          -5.7442  -24.4761  -45.3397 O.2       13 UNK        -0.5000 
     79 N          -3.6614  -24.7211  -46.2032 N.am      14 UNK        -0.5000 
     80 CA         -3.9407  -25.8631  -47.0733 C.3       14 UNK         0.1400 
     81 CB         -2.6846  -26.7440  -47.1633 C.3       14 UNK        -0.1800 
     82 C          -4.3796  -25.4097  -48.4752 C.2       14 UNK         0.5000 
     83 O          -5.2467  -26.0430  -49.0772 O.2       14 UNK        -0.5000 
     84 N          -3.7777  -24.3181  -48.9663 N.am      15 UNK        -0.5000 
     85 CA         -4.0026  -23.7608  -50.2999 C.3       15 UNK         0.1400 
     86 CB         -2.8116  -22.8668  -50.6696 C.3       15 UNK        -0.1800 
     87 C          -5.3138  -22.9672  -50.4479 C.2       15 UNK         0.5000 
     88 O          -5.6151  -22.5440  -51.5631 O.2       15 UNK        -0.5000 
     89 N          -6.0430  -22.7467  -49.3433 N.am      16 UNK        -0.5000 
     90 CA         -7.2434  -21.9097  -49.2353 C.3       16 UNK         0.1400 
     91 CB         -8.4023  -22.4717  -50.0862 C.3       16 UNK        -0.1800 
     92 C          -6.9012  -20.4451  -49.5639 C.2       16 UNK         0.5000 
     93 O          -7.3040  -19.9163  -50.6021 O.2       16 UNK        -0.5000 
     94 N          -6.0615  -19.8576  -48.7021 N.am      17 UNK        -0.5000 
     95 CA         -5.4087  -18.5472  -48.7884 C.3       17 UNK         0.1400 
     96 CB         -6.4133  -17.3974  -48.9959 C.3       17 UNK        -0.1800 
     97 C          -4.2748  -18.5093  -49.8282 C.2       17 UNK         0.5000 
     98 O          -3.1994  -17.9995  -49.5204 O.2       17 UNK        -0.5000 
     99 N          -4.5244  -19.0763  -51.0124 N.am      18 UNK        -0.5000 
    100 CA        -3.5991  -19.2005  -52.1387 C.3       18 UNK         0.1400 
    101 CB        -3.1542  -17.8179  -52.6596 C.3       18 UNK        -0.1800 
    102 C         -4.2368  -19.9745  -53.3015 C.2       18 UNK         0.5000 
    103 O         -3.4985  -20.5583  -54.0922 O.2       18 UNK        -0.5000 
    104 N         -5.5748  -19.9385  -53.4074 N.am      19 UNK        -0.5000 
    105 CA        -6.3841  -20.3550  -54.5568 C.3       19 UNK         0.1400 
    106 CB        -7.8667  -20.3180  -54.1552 C.3       19 UNK        -0.1800 
    107 C         -6.0400  -21.7148  -55.1932 C.2       19 UNK         0.5000 
    108 O         -5.9764  -21.8026  -56.4200 O.2       19 UNK        -0.5000 
    109 N         -5.8108  -22.7428  -54.3688 N.am      20 UNK        -0.5000 
    110 CA        -5.5099  -24.0985  -54.8332 C.3       20 UNK         0.1400 
    111 CB        -5.9131  -25.1062  -53.7463 C.3       20 UNK        -0.1800 
    112 C         -4.0373  -24.2960  -55.2448 C.2       20 UNK         0.5000 
    113 O         -3.7403  -25.2763  -55.9293 O.2       20 UNK        -0.5000 
    114 N         -3.1451  -23.3892  -54.8246 N.am      21 UNK        -0.5000 
    115 CA        -1.7128  -23.4394  -55.1189 C.3       21 UNK         0.1400 
    116 CB        -0.9208  -23.0971  -53.8456 C.3       21 UNK        -0.1800 
    117 C         -1.3354  -22.4783  -56.2567 C.2       21 UNK         0.5000 
    118 O         -0.6176  -22.8769  -57.1750 O.2       21 UNK        -0.5000 
    119 N         -1.8125  -21.2330  -56.1615 N.am      22 UNK        -0.5000 
    120 CA        -1.4304  -20.0929  -57.0089 C.3       22 UNK         0.1400 
    121 C         -2.6509  -19.3418  -57.6158 C.2       22 UNK         0.5000 
    122 N         -3.8756  -19.8384  -57.4973 N.am      22 UNK        -0.7600 
    123 O         -2.4866  -18.2936  -58.2343 O.2       22 UNK        -0.5000 
    124 C124       -0.4773  -19.1258  -56.2516 C.3       23 UNK        -0.0398 
    125 S125        1.1267  -19.8959  -55.8479 S.3       23 UNK        -0.2404 
    126 C126        1.8213  -18.7040  -54.6572 C.3       23 UNK        -0.0205 
    127 H127        0.7489  -11.6684  -52.4092 H         1 UNK         0.0600 
    128 H128        2.4544  -11.2326  -52.5476 H         1 UNK         0.0600 
    129 H129        1.2884  -10.0559  -51.9324 H         1 UNK         0.0600 
    130 H130        0.3185  -12.9511  -50.6403 H         1 UNK         0.3000 
    131 H131        2.1777  -13.3190  -48.4715 H         1 UNK         0.0600 
    132 H132        0.3123  -14.8153  -47.5505 H         1 UNK         0.0800 
    133 H133       -0.6686  -14.3684  -48.9171 H         1 UNK         0.0800 
    134 H134       -0.3904  -15.5728  -51.3398 H         1 UNK         0.0800 
    135 H135       -1.0553  -16.5346  -50.0366 H         1 UNK         0.0800 
    136 H136        0.8772  -16.6459  -53.1373 H         1 UNK         0.1150 
    137 H137        1.4029  -20.9030  -53.0771 H         1 UNK         0.1150 
    138 H138       -0.2957  -18.9016  -49.6892 H         1 UNK         0.1150 
    139 H139       -0.4836  -21.3739  -49.9697 H         1 UNK         0.0800 
    140 H140        0.3380  -22.1933  -51.2823 H         1 UNK         0.0800 
    141 H141        2.3496  -23.8687  -48.8096 H         1 UNK         0.0800 
    142 H142        0.7345  -23.7786  -49.4003 H         1 UNK         0.0800 
    143 H143        0.8597  -24.2211  -46.9326 H         1 UNK         0.0600 
    144 H144        1.5031  -21.6484  -45.9258 H         1 UNK         0.3000 
    145 H145        4.8186  -22.6710  -44.8760 H         1 UNK         0.0600 
    146 H146        4.9561  -20.1897  -45.0264 H         1 UNK         0.0600 
    147 H147        4.9347  -20.9315  -46.6196 H         1 UNK         0.0600 
    148 H148        3.4890  -20.1531  -46.0016 H         1 UNK         0.0600 
    149 H149        2.9908  -20.9144  -43.6061 H         1 UNK         0.3000 
    150 H150        1.5489  -23.2585  -41.3484 H         1 UNK         0.0600 
    151 H151        3.7599  -22.7680  -40.3143 H         1 UNK         0.0600 
    152 H152        2.5205  -21.7027  -39.6702 H         1 UNK         0.0600 
    153 H153        3.6723  -21.0992  -40.8614 H         1 UNK         0.0600 
    154 H154        1.4630  -20.3835  -41.7069 H         1 UNK         0.3000 
    155 H155       -1.3918  -20.3803  -43.8218 H         1 UNK         0.0600 
    156 H156       -2.2618  -20.6186  -41.4886 H         1 UNK         0.0600 
    157 H157       -2.2647  -18.9480  -42.0279 H         1 UNK         0.0600 
    158 H158       -1.0209  -19.5137  -40.9134 H         1 UNK         0.0600 
    159 H159        0.1342  -18.2541  -42.6974 H         1 UNK         0.3000 
    160 H160        2.5907  -18.0072  -45.3021 H         1 UNK         0.0600 
    161 H161        1.5925  -15.7505  -45.4782 H         1 UNK         0.0600 
    162 H162        0.5095  -16.9361  -46.1915 H         1 UNK         0.0600 
    163 H163        0.1597  -16.2753  -44.5976 H         1 UNK         0.0600 
    164 H164        2.2276  -16.2923  -43.1349 H         1 UNK         0.3000 
    165 H165        3.9543  -18.0233  -40.5799 H         1 UNK         0.0600 
    166 H166        5.4550  -16.0419  -40.7125 H         1 UNK         0.0600 
    167 H167        5.7971  -17.1990  -41.9895 H         1 UNK         0.0600 
    168 H168        4.9173  -15.7261  -42.3619 H         1 UNK         0.0600 
    169 H169        2.3885  -16.7321  -39.7758 H         1 UNK         0.3000 
    170 H170        0.9839  -15.2100  -39.3097 H         1 UNK         0.0600 
    171 H171        2.3211  -13.0850  -39.3472 H         1 UNK         0.0600 
    172 H172        1.4070  -12.5343  -40.7469 H         1 UNK         0.0600 
    173 H173        0.5985  -12.7707  -39.1983 H         1 UNK         0.0600 
    174 H174       -0.7667  -13.8369  -40.9355 H         1 UNK         0.3000 
    175 H175       -2.1815  -16.3146  -42.9803 H         1 UNK         0.0600 
    176 H176       -4.2791  -15.8825  -41.7274 H         1 UNK         0.0600 
    177 H177       -3.2127  -16.9457  -40.8232 H         1 UNK         0.0600 
    178 H178       -3.3591  -15.2600  -40.3577 H         1 UNK         0.0600 
    179 H179       -2.2864  -14.2951  -43.8224 H         1 UNK         0.3000 
    180 H180       -3.3842  -12.2427  -44.0385 H         1 UNK         0.0600 
    181 H181       -2.7004  -10.2457  -41.8162 H         1 UNK         0.0600 
    182 H182       -4.2935  -10.9320  -42.1122 H         1 UNK         0.0600 
    183 H183       -3.5537   -9.8912  -43.3177 H         1 UNK         0.0600 
    184 H184       -1.0496  -10.6306  -43.5340 H         1 UNK         0.3000 
    185 H185        0.4321  -10.5464  -45.4525 H         1 UNK         0.0600 
    186 H186        1.3212  -11.2114  -43.2025 H         1 UNK         0.0600 
    187 H187        1.8296  -12.7641  -43.8510 H         1 UNK         0.0600 
    188 H188        2.5897  -11.2768  -44.4134 H         1 UNK         0.0600 
    189 H189        1.8121  -12.9705  -46.2587 H         1 UNK         0.3000 
    190 H190       -0.0188  -20.8523  -46.4749 H         1 UNK         0.3000 
    191 H191       -2.2489  -20.7550  -48.1342 H         1 UNK         0.0600 
    192 H192       -1.7528  -19.1151  -45.6062 H         1 UNK         0.0600 
    193 H193       -2.8216  -18.6977  -46.9196 H         1 UNK         0.0600 
    194 H194       -1.0943  -18.7726  -47.2050 H         1 UNK         0.0600 
    195 H195       -2.0969  -22.2535  -44.9647 H         1 UNK         0.3000 
    196 H196       -4.9486  -22.2459  -44.4520 H         1 UNK         0.0600 
    197 H197       -4.3441  -23.8971  -42.6888 H         1 UNK         0.0600 
    198 H198       -3.2915  -22.4937  -42.6212 H         1 UNK         0.0600 
    199 H199       -2.7060  -24.0021  -43.3216 H         1 UNK         0.0600 
    200 H200       -2.7338  -24.3219  -46.2706 H         1 UNK         0.3000 
    201 H201       -4.7449  -26.4653  -46.6450 H         1 UNK         0.0600 
    202 H202       -2.3894  -27.1093  -46.1796 H         1 UNK         0.0600 
    203 H203       -1.8383  -26.2015  -47.5868 H         1 UNK         0.0600 
    204 H204       -2.8642  -27.6160  -47.7934 H         1 UNK         0.0600 
    205 H205       -3.0277  -23.8971  -48.4237 H         1 UNK         0.3000 
    206 H206       -4.0337  -24.5881  -51.0098 H         1 UNK         0.0600 
    207 H207       -1.8701  -23.4096  -50.5872 H         1 UNK         0.0600 
    208 H208       -2.8942  -22.5091  -51.6962 H         1 UNK         0.0600 
    209 H209       -2.7605  -21.9911  -50.0241 H         1 UNK         0.0600 
    210 H210       -5.6808  -23.1103  -48.4734 H         1 UNK         0.3000 
    211 H211       -7.5568  -21.9402  -48.1906 H         1 UNK         0.0600 
    212 H212       -8.1855  -22.4429  -51.1542 H         1 UNK         0.0600 
    213 H213       -9.3129  -21.8935  -49.9266 H         1 UNK         0.0600 
    214 H214       -8.6207  -23.5052  -49.8180 H         1 UNK         0.0600 
    215 H215       -5.7009  -20.4328  -47.9431 H         1 UNK         0.3000 
    216 H216       -4.9485  -18.3934  -47.8121 H         1 UNK         0.0600 
    217 H217       -5.9156  -16.4315  -48.9029 H         1 UNK         0.0600 
    218 H218       -7.2074  -17.4275  -48.2499 H         1 UNK         0.0600 
    219 H219       -6.8763  -17.4256  -49.9824 H         1 UNK         0.0600 
    220 H220       -5.4289  -19.5239  -51.1167 H         1 UNK         0.3000 
    221 H221       -2.7225  -19.7584  -51.8034 H         1 UNK         0.0600 
    222 H222       -4.0069  -17.2151  -52.9737 H         1 UNK         0.0600 
    223 H223       -2.6078  -17.2520  -51.9083 H         1 UNK         0.0600 
    224 H224       -2.4891  -17.9201  -53.5181 H         1 UNK         0.0600 
    225 H225       -6.0954  -19.4546  -52.6914 H         1 UNK         0.3000 
    226 H226       -6.2293  -19.5993  -55.3290 H         1 UNK         0.0600 
    227 H227       -8.5088  -20.6066  -54.9884 H         1 UNK         0.0600 
    228 H228       -8.0723  -20.9993  -53.3282 H         1 UNK         0.0600 
    229 H229       -8.1680  -19.3173  -53.8452 H         1 UNK         0.0600 
    230 H230       -5.8324  -22.5904  -53.3607 H         1 UNK         0.3000 
    231 H231       -6.1209  -24.3078  -55.7140 H         1 UNK         0.0600 
    232 H232       -6.9556  -24.9782  -53.4542 H         1 UNK         0.0600 
    233 H233       -5.2996  -25.0011  -52.8540 H         1 UNK         0.0600 
    234 H234       -5.7977  -26.1307  -54.1021 H         1 UNK         0.0600 
    235 H235       -3.4796  -22.5697  -54.3301 H         1 UNK         0.3000 
    236 H236       -1.4224  -24.4469  -55.4243 H         1 UNK         0.0600 
    237 H237        0.1526  -23.1100  -54.0386 H         1 UNK         0.0600 
    238 H238       -1.1714  -22.1059  -53.4655 H         1 UNK         0.0600 
    239 H239       -1.1170  -23.8214  -53.0554 H         1 UNK         0.0600 
    240 H240       -2.4176  -20.9978  -55.3756 H         1 UNK         0.3000 
    241 H241       -0.8925  -20.4652  -57.8823 H         1 UNK         0.0600 
    242 H242       -4.0478  -20.7156  -57.0286 H         1 UNK         0.3800 
    243 H243       -4.6462  -19.3431  -57.9160 H         1 UNK         0.3800 
    244 H244       -0.2654  -18.2367  -56.8477 H         1 UNK         0.0800 
    245 H245       -0.9496  -18.7765  -55.3321 H         1 UNK         0.0800 
    246 H246        2.8872  -18.9069  -54.5477 H         1 UNK         0.0800 
    247 H247        1.7428  -17.6994  -55.0758 H         1 UNK         0.0800 
@<TRIPOS>BOND
     1    1    2 1    
     2    1  127 1    
     3    1  128 1    
     4    1  129 1    
     5    2    3 2    
     6    2    4 am   BACKBONE|DICT|INTERRES
     7    4    5 1    
     8    4  130 1    
     9    5    6 1    
    10    5   65 1    
    11    5  131 1    
    12    6    7 1    
    13    6  132 1    
    14    6  133 1    
    15    7    8 1    
    16    8    9 1    
    17    8  134 1    
    18    8  135 1    
    19    9   10 ar   
    20    9   14 ar   
    21   10   11 ar   
    22   10  136 1    
    23   11   12 ar   
    24   11  126 1    
    25   12   13 ar   
    26   12  137 1    
    27   13   14 ar   
    28   13   15 1    
    29   14  138 1    
    30   15   16 1    
    31   15  139 1    
    32   15  140 1    
    33   16   17 1    
    34   17   18 1    
    35   17  141 1    
    36   17  142 1    
    37   18   19 1    
    38   18   67 1    
    39   18  143 1    
    40   19   20 am   BACKBONE|DICT|INTERRES
    41   19  144 1    
    42   20   21 2    
    43   20   22 1    
    44   22   23 1    
    45   22   24 1    
    46   22  145 1    
    47   23  146 1    
    48   23  147 1    
    49   23  148 1    
    50   24   25 am   BACKBONE|DICT|INTERRES
    51   24  149 1    
    52   25   26 2    
    53   25   27 1    
    54   27   28 1    
    55   27   29 1    
    56   27  150 1    
    57   28  151 1    
    58   28  152 1    
    59   28  153 1    
    60   29   30 am   BACKBONE|DICT|INTERRES
    61   29  154 1    
    62   30   31 2    
    63   30   32 1    
    64   32   33 1    
    65   32   34 1    
    66   32  155 1    
    67   33  156 1    
    68   33  157 1    
    69   33  158 1    
    70   34   35 am   BACKBONE|DICT|INTERRES
    71   34  159 1    
    72   35   36 2    
    73   35   37 1    
    74   37   38 1    
    75   37   39 1    
    76   37  160 1    
    77   38  161 1    
    78   38  162 1    
    79   38  163 1    
    80   39   40 am   BACKBONE|DICT|INTERRES
    81   39  164 1    
    82   40   41 2    
    83   40   42 1    
    84   42   43 1    
    85   42   44 1    
    86   42  165 1    
    87   43  166 1    
    88   43  167 1    
    89   43  168 1    
    90   44   45 am   BACKBONE|DICT|INTERRES
    91   44  169 1    
    92   45   46 2    
    93   45   47 1    
    94   47   48 1    
    95   47   49 1    
    96   47  170 1    
    97   48  171 1    
    98   48  172 1    
    99   48  173 1    
   100   49   50 am   BACKBONE|DICT|INTERRES
   101   49  174 1    
   102   50   51 2    
   103   50   52 1    
   104   52   53 1    
   105   52   54 1    
   106   52  175 1    
   107   53  176 1    
   108   53  177 1    
   109   53  178 1    
   110   54   55 am   BACKBONE|DICT|INTERRES
   111   54  179 1    
   112   55   56 2    
   113   55   57 1    
   114   57   58 1    
   115   57   59 1    
   116   57  180 1    
   117   58  181 1    
   118   58  182 1    
   119   58  183 1    
   120   59   60 am   BACKBONE|DICT|INTERRES
   121   59  184 1    
   122   60   61 2    
   123   60   62 1    
   124   62   63 1    
   125   62   64 1    
   126   62  185 1    
   127   63  186 1    
   128   63  187 1    
   129   63  188 1    
   130   64   65 am   BACKBONE|DICT|INTERRES
   131   64  189 1    
   132   65   66 2    
   133   67   68 2    
   134   67   69 am   BACKBONE|DICT|INTERRES
   135   69   70 1    
   136   69  190 1    
   137   70   71 1    
   138   70   72 1    
   139   70  191 1    
   140   71  192 1    
   141   71  193 1    
   142   71  194 1    
   143   72   73 2    
   144   72   74 am   BACKBONE|DICT|INTERRES
   145   74   75 1    
   146   74  195 1    
   147   75   76 1    
   148   75   77 1    
   149   75  196 1    
   150   76  197 1    
   151   76  198 1    
   152   76  199 1    
   153   77   78 2    
   154   77   79 am   BACKBONE|DICT|INTERRES
   155   79   80 1    
   156   79  200 1    
   157   80   81 1    
   158   80   82 1    
   159   80  201 1    
   160   81  202 1    
   161   81  203 1    
   162   81  204 1    
   163   82   83 2    
   164   82   84 am   BACKBONE|DICT|INTERRES
   165   84   85 1    
   166   84  205 1    
   167   85   86 1    
   168   85   87 1    
   169   85  206 1    
   170   86  207 1    
   171   86  208 1    
   172   86  209 1    
   173   87   88 2    
   174   87   89 am   BACKBONE|DICT|INTERRES
   175   89   90 1    
   176   89  210 1    
   177   90   91 1    
   178   90   92 1    
   179   90  211 1    
   180   91  212 1    
   181   91  213 1    
   182   91  214 1    
   183   92   93 2    
   184   92   94 am   BACKBONE|DICT|INTERRES
   185   94   95 1    
   186   94  215 1    
   187   95   96 1    
   188   95   97 1    
   189   95  216 1    
   190   96  217 1    
   191   96  218 1    
   192   96  219 1    
   193   97   98 2    
   194   97   99 am   BACKBONE|DICT|INTERRES
   195   99  100 1    
   196   99  220 1    
   197  100  101 1    
   198  100  102 1    
   199  100  221 1    
   200  101  222 1    
   201  101  223 1    
   202  101  224 1    
   203  102  103 2    
   204  102  104 am   BACKBONE|DICT|INTERRES
   205  104  105 1    
   206  104  225 1    
   207  105  106 1    
   208  105  107 1    
   209  105  226 1    
   210  106  227 1    
   211  106  228 1    
   212  106  229 1    
   213  107  108 2    
   214  107  109 am   BACKBONE|DICT|INTERRES
   215  109  110 1    
   216  109  230 1    
   217  110  111 1    
   218  110  112 1    
   219  110  231 1    
   220  111  232 1    
   221  111  233 1    
   222  111  234 1    
   223  112  113 2    
   224  112  114 am   BACKBONE|DICT|INTERRES
   225  114  115 1    
   226  114  235 1    
   227  115  116 1    
   228  115  117 1    
   229  115  236 1    
   230  116  237 1    
   231  116  238 1    
   232  116  239 1    
   233  117  118 2    
   234  117  119 am   BACKBONE|DICT|INTERRES
   235  119  120 1    
   236  119  240 1    
   237  120  121 1    
   238  120  124 1    
   239  120  241 1    
   240  121  122 am   BACKBONE|DICT|INTERRES
   241  121  123 2    
   242  122  242 1    
   243  122  243 1    
   244  124  125 1    
   245  124  244 1    
   246  124  245 1    
   247  125  126 1    
   248  126  246 1    
   249  126  247 1    
@<TRIPOS>SUBSTRUCTURE
     1 UNK         1 GROUP             0       ****    0 ROOT    
