@<TRIPOS>MOLECULE
3R540
247   249    1
SMALL
USER_CHARGES


@<TRIPOS>ATOM
      1 CA         -2.1828  -10.7717  -52.5560 C.3       0 UNK        -0.1800 
      2 C          -1.6264  -11.3554  -51.2647 C.2       0 UNK         0.5000 
      3 O          -1.3074  -10.6060  -50.3410 O.2       0 UNK        -0.5000 
      4 N          -1.5005  -12.6860  -51.2019 N.am      1 UNK        -0.5000 
      5 CA         -1.0308  -13.4369  -50.0327 C.3       1 UNK         0.1400 
      6 C6         -0.6969  -14.9089  -50.3835 C.3       23 UNK        -0.0398 
      7 S7          0.5325  -15.0566  -51.7270 S.3       23 UNK        -0.2404 
      8 C8          2.0927  -15.2348  -50.8078 C.3       23 UNK        -0.0205 
      9 C9          2.5836  -16.6753  -50.7840 C.ar      23 UNK        -0.0193 
     10 C10         3.2677  -17.1964  -51.8863 C.ar      23 UNK        -0.1150 
     11 C11         3.7742  -18.4996  -51.8605 C.ar      23 UNK        -0.0193 
     12 C12         3.5958  -19.2845  -50.7180 C.ar      23 UNK        -0.1150 
     13 C13         2.9194  -18.7730  -49.6082 C.ar      23 UNK        -0.0193 
     14 C14         2.4054  -17.4718  -49.6496 C.ar      23 UNK        -0.1150 
     15 C15         2.7974  -19.5958  -48.3383 C.3       23 UNK        -0.0205 
     16 S16         1.2688  -20.5839  -48.2965 S.3       23 UNK        -0.2404 
     17 C17         1.8599  -22.2800  -48.6115 C.3       23 UNK        -0.0398 
     18 CA          1.3956  -23.3176  -47.5520 C.3       11 UNK         0.1400 
     19 N           1.8887  -23.0114  -46.2030 N.am      11 UNK        -0.5000 
     20 C           2.3998  -23.9162  -45.3570 C.2       10 UNK         0.5000 
     21 O           2.6851  -25.0709  -45.6826 O.2       10 UNK        -0.5000 
     22 CA          2.5995  -23.4545  -43.8985 C.3       10 UNK         0.1400 
     23 CB          3.3433  -24.4825  -43.0199 C.3       10 UNK        -0.1800 
     24 N           3.2149  -22.1312  -43.7955 N.am      10 UNK        -0.5000 
     25 C           4.4487  -21.7560  -44.1579 C.2       9 UNK         0.5000 
     26 O           5.2877  -22.5143  -44.6452 O.2       9 UNK        -0.5000 
     27 CA          4.8106  -20.2723  -43.9378 C.3       9 UNK         0.1400 
     28 CB          4.7085  -19.5025  -45.2580 C.3       9 UNK        -0.1800 
     29 N           3.9563  -19.6067  -42.9514 N.am      9 UNK        -0.5000 
     30 C           4.0431  -19.7793  -41.6260 C.2       8 UNK         0.5000 
     31 O           4.9033  -20.4712  -41.0798 O.2       8 UNK        -0.5000 
     32 CA          2.9674  -19.0840  -40.7706 C.3       8 UNK         0.1400 
     33 CB          3.3190  -17.6055  -40.5459 C.3       8 UNK        -0.1800 
     34 N           1.6272  -19.1876  -41.3530 N.am      8 UNK        -0.5000 
     35 C           0.9472  -20.3348  -41.4952 C.2       7 UNK         0.5000 
     36 O           1.3655  -21.4298  -41.1200 O.2       7 UNK        -0.5000 
     37 CA         -0.4164  -20.2566  -42.2023 C.3       7 UNK         0.1400 
     38 CB         -1.5189  -19.8368  -41.2192 C.3       7 UNK        -0.1800 
     39 N          -0.4072  -19.3472  -43.3466 N.am      7 UNK        -0.5000 
     40 C           0.2681  -19.5605  -44.4846 C.2       6 UNK         0.5000 
     41 O           0.9350  -20.5704  -44.7089 O.2       6 UNK        -0.5000 
     42 CA          0.2033  -18.4460  -45.5412 C.3       6 UNK         0.1400 
     43 CB         -1.0977  -18.5280  -46.3547 C.3       6 UNK        -0.1800 
     44 N           0.3479  -17.1127  -44.9653 N.am      6 UNK        -0.5000 
     45 C           1.4201  -16.6872  -44.2819 C.2       5 UNK         0.5000 
     46 O           2.4313  -17.3638  -44.0928 O.2       5 UNK        -0.5000 
     47 CA          1.3143  -15.2887  -43.6539 C.3       5 UNK         0.1400 
     48 CB          1.5962  -14.1968  -44.6972 C.3       5 UNK        -0.1800 
     49 N           0.0012  -15.0699  -43.0456 N.am      5 UNK        -0.5000 
     50 C          -0.4459  -15.7213  -41.9618 C.2       4 UNK         0.5000 
     51 O           0.2208  -16.5426  -41.3322 O.2       4 UNK        -0.5000 
     52 CA         -1.8995  -15.4394  -41.5420 C.3       4 UNK         0.1400 
     53 CB         -1.9896  -14.1368  -40.7332 C.3       4 UNK        -0.1800 
     54 N          -2.8063  -15.3651  -42.6889 N.am      4 UNK        -0.5000 
     55 C          -3.1194  -16.4065  -43.4731 C.2       3 UNK         0.5000 
     56 O          -2.6996  -17.5484  -43.2930 O.2       3 UNK        -0.5000 
     57 CA         -4.0164  -16.1127  -44.6897 C.3       3 UNK         0.1400 
     58 CB         -5.4990  -16.1869  -44.2973 C.3       3 UNK        -0.1800 
     59 N          -3.7381  -14.8154  -45.3141 N.am      3 UNK        -0.5000 
     60 C          -2.5743  -14.4925  -45.8930 C.2       2 UNK         0.5000 
     61 O          -1.5972  -15.2432  -45.9281 O.2       2 UNK        -0.5000 
     62 CA         -2.4583  -13.0757  -46.4739 C.3       2 UNK         0.1400 
     63 CB         -1.8366  -12.1255  -45.4385 C.3       2 UNK        -0.1800 
     64 N          -1.6216  -13.0895  -47.6726 N.am      2 UNK        -0.5000 
     65 C          -2.0772  -13.3699  -48.8992 C.2       1 UNK         0.5000 
     66 O          -3.2677  -13.5660  -49.1563 O.2       1 UNK        -0.5000 
     67 C          -0.1337  -23.5723  -47.5039 C.2       11 UNK         0.5000 
     68 O          -0.6638  -23.9260  -46.4459 O.2       11 UNK        -0.5000 
     69 N          -0.8319  -23.4171  -48.6393 N.am      12 UNK        -0.5000 
     70 CA         -2.2647  -23.6895  -48.8171 C.3       12 UNK         0.1400 
     71 CB         -2.5379  -23.9009  -50.3156 C.3       12 UNK        -0.1800 
     72 C          -3.1755  -22.6086  -48.1886 C.2       12 UNK         0.5000 
     73 O          -4.0119  -22.0093  -48.8727 O.2       12 UNK        -0.5000 
     74 N          -2.9750  -22.3643  -46.8895 N.am      13 UNK        -0.5000 
     75 CA         -3.6455  -21.3453  -46.0869 C.3       13 UNK         0.1400 
     76 CB         -2.9670  -21.2668  -44.7123 C.3       13 UNK        -0.1800 
     77 C          -5.1494  -21.6103  -45.9338 C.2       13 UNK         0.5000 
     78 O          -5.9624  -20.7513  -46.2749 O.2       13 UNK        -0.5000 
     79 N          -5.4817  -22.8138  -45.4493 N.am      14 UNK        -0.5000 
     80 CA         -6.8517  -23.2547  -45.1816 C.3       14 UNK         0.1400 
     81 CB         -6.8046  -24.5219  -44.3138 C.3       14 UNK        -0.1800 
     82 C          -7.6742  -23.5052  -46.4583 C.2       14 UNK         0.5000 
     83 O          -8.9038  -23.4748  -46.3982 O.2       14 UNK        -0.5000 
     84 N          -6.9860  -23.7539  -47.5809 N.am      15 UNK        -0.5000 
     85 CA         -7.5903  -23.9581  -48.8923 C.3       15 UNK         0.1400 
     86 CB         -6.5633  -24.5906  -49.8421 C.3       15 UNK        -0.1800 
     87 C          -8.1463  -22.6455  -49.4661 C.2       15 UNK         0.5000 
     88 O          -9.3456  -22.5709  -49.7380 O.2       15 UNK        -0.5000 
     89 N          -7.2749  -21.6393  -49.6355 N.am      16 UNK        -0.5000 
     90 CA         -7.6278  -20.3596  -50.2541 C.3       16 UNK         0.1400 
     91 CB         -7.9022  -20.5469  -51.7655 C.3       16 UNK        -0.1800 
     92 C          -6.5663  -19.2754  -49.9938 C.2       16 UNK         0.5000 
     93 O          -6.2957  -18.4772  -50.8899 O.2       16 UNK        -0.5000 
     94 N          -5.9599  -19.2526  -48.7962 N.am      17 UNK        -0.5000 
     95 CA         -4.9652  -18.2563  -48.3631 C.3       17 UNK         0.1400 
     96 CB         -5.6428  -16.8896  -48.1287 C.3       17 UNK        -0.1800 
     97 C          -3.7426  -18.1634  -49.3055 C.2       17 UNK         0.5000 
     98 O          -3.3119  -17.0652  -49.6524 O.2       17 UNK        -0.5000 
     99 N          -3.2412  -19.3335  -49.7267 N.am      18 UNK        -0.5000 
    100 CA        -2.1474  -19.5657  -50.6788 C.3       18 UNK         0.1400 
    101 CB        -0.8881  -18.7408  -50.3538 C.3       18 UNK        -0.1800 
    102 C         -2.5344  -19.4081  -52.1616 C.2       18 UNK         0.5000 
    103 O         -1.7131  -19.7470  -53.0153 O.2       18 UNK        -0.5000 
    104 N         -3.7623  -18.9689  -52.4838 N.am      19 UNK        -0.5000 
    105 CA        -4.2368  -18.8387  -53.8708 C.3       19 UNK         0.1400 
    106 CB        -5.5497  -18.0446  -53.9130 C.3       19 UNK        -0.1800 
    107 C         -4.4000  -20.1952  -54.5877 C.2       19 UNK         0.5000 
    108 O         -4.3340  -20.2481  -55.8155 O.2       19 UNK        -0.5000 
    109 N         -4.5767  -21.2671  -53.8037 N.am      20 UNK        -0.5000 
    110 CA        -4.6035  -22.6552  -54.2643 C.3       20 UNK         0.1400 
    111 CB        -5.3623  -23.4953  -53.2250 C.3       20 UNK        -0.1800 
    112 C         -3.1956  -23.2389  -54.5165 C.2       20 UNK         0.5000 
    113 O         -3.0933  -24.2967  -55.1391 O.2       20 UNK        -0.5000 
    114 N         -2.1474  -22.5600  -54.0293 N.am      21 UNK        -0.5000 
    115 CA        -0.7448  -22.9113  -54.2247 C.3       21 UNK         0.1400 
    116 CB        -0.0224  -22.9116  -52.8602 C.3       21 UNK        -0.1800 
    117 C         -0.1378  -21.9293  -55.2399 C.2       21 UNK         0.5000 
    118 O         -0.3074  -22.1228  -56.4448 O.2       21 UNK        -0.5000 
    119 N          0.5555  -20.9010  -54.7408 N.am      22 UNK        -0.5000 
    120 CA         1.2002  -19.8467  -55.5371 C.3       22 UNK         0.1400 
    121 C          0.2051  -18.8293  -56.1611 C.2       22 UNK         0.5000 
    122 N         -0.9776  -18.6366  -55.5925 N.am      22 UNK        -0.7600 
    123 O          0.5120  -18.2092  -57.1755 O.2       22 UNK        -0.5000 
    124 C124        2.2766  -19.0965  -54.7167 C.3       23 UNK        -0.0398 
    125 S125        3.5504  -20.2123  -54.0363 S.3       23 UNK        -0.2404 
    126 C126        4.5438  -19.0484  -53.0530 C.3       23 UNK        -0.0205 
    127 H127       -1.4606  -10.0866  -53.0000 H         1 UNK         0.0600 
    128 H128       -3.0995  -10.2182  -52.3530 H         1 UNK         0.0600 
    129 H129       -2.4091  -11.5478  -53.2876 H         1 UNK         0.0600 
    130 H130       -1.7866  -13.2492  -51.9894 H         1 UNK         0.3000 
    131 H131       -0.1126  -12.9600  -49.6826 H         1 UNK         0.0600 
    132 H132       -0.3455  -15.4538  -49.5051 H         1 UNK         0.0800 
    133 H133       -1.6006  -15.4213  -50.7155 H         1 UNK         0.0800 
    134 H134        1.9859  -14.8449  -49.7945 H         1 UNK         0.0800 
    135 H135        2.8476  -14.6097  -51.2872 H         1 UNK         0.0800 
    136 H136        3.4133  -16.5802  -52.7625 H         1 UNK         0.1150 
    137 H137        3.9976  -20.2876  -50.6881 H         1 UNK         0.1150 
    138 H138        1.8878  -17.0721  -48.7887 H         1 UNK         0.1150 
    139 H139        3.6793  -20.2221  -48.2008 H         1 UNK         0.0800 
    140 H140        2.7939  -18.9072  -47.4974 H         1 UNK         0.0800 
    141 H141        2.9493  -22.2863  -48.6469 H         1 UNK         0.0800 
    142 H142        1.5490  -22.5741  -49.6147 H         1 UNK         0.0800 
    143 H143        1.8198  -24.2707  -47.8733 H         1 UNK         0.0600 
    144 H144        1.6342  -22.1000  -45.8332 H         1 UNK         0.3000 
    145 H145        1.5962  -23.3442  -43.4842 H         1 UNK         0.0600 
    146 H146        3.4392  -24.1253  -41.9944 H         1 UNK         0.0600 
    147 H147        2.8016  -25.4283  -42.9839 H         1 UNK         0.0600 
    148 H148        4.3439  -24.6941  -43.3974 H         1 UNK         0.0600 
    149 H149        2.5910  -21.4007  -43.4782 H         1 UNK         0.3000 
    150 H150        5.8459  -20.2305  -43.5931 H         1 UNK         0.0600 
    151 H151        5.3007  -19.9728  -46.0440 H         1 UNK         0.0600 
    152 H152        5.0596  -18.4763  -45.1481 H         1 UNK         0.0600 
    153 H153        3.6728  -19.4686  -45.5896 H         1 UNK         0.0600 
    154 H154        3.2563  -18.9661  -43.3162 H         1 UNK         0.3000 
    155 H155        2.9478  -19.5781  -39.7970 H         1 UNK         0.0600 
    156 H156        4.3076  -17.5026  -40.0969 H         1 UNK         0.0600 
    157 H157        2.6053  -17.1291  -39.8736 H         1 UNK         0.0600 
    158 H158        3.3224  -17.0448  -41.4809 H         1 UNK         0.0600 
    159 H159        1.1888  -18.3193  -41.6425 H         1 UNK         0.3000 
    160 H160       -0.6550  -21.2569  -42.5696 H         1 UNK         0.0600 
    161 H161       -1.3623  -18.8241  -40.8466 H         1 UNK         0.0600 
    162 H162       -1.5503  -20.5045  -40.3573 H         1 UNK         0.0600 
    163 H163       -2.5006  -19.8703  -41.6919 H         1 UNK         0.0600 
    164 H164       -0.9915  -18.5199  -43.2723 H         1 UNK         0.3000 
    165 H165        1.0396  -18.5858  -46.2206 H         1 UNK         0.0600 
    166 H166       -1.9771  -18.4141  -45.7231 H         1 UNK         0.0600 
    167 H167       -1.1343  -17.7532  -47.1206 H         1 UNK         0.0600 
    168 H168       -1.1807  -19.4906  -46.8602 H         1 UNK         0.0600 
    169 H169       -0.4201  -16.4652  -45.1236 H         1 UNK         0.3000 
    170 H170        2.0700  -15.2139  -42.8691 H         1 UNK         0.0600 
    171 H171        2.5929  -14.3174  -45.1235 H         1 UNK         0.0600 
    172 H172        0.8839  -14.2284  -45.5218 H         1 UNK         0.0600 
    173 H173        1.5524  -13.2033  -44.2509 H         1 UNK         0.0600 
    174 H174       -0.6273  -14.4479  -43.5299 H         1 UNK         0.3000 
    175 H175       -2.2266  -16.2620  -40.9022 H         1 UNK         0.0600 
    176 H176       -1.3318  -14.1719  -39.8637 H         1 UNK         0.0600 
    177 H177       -1.7014  -13.2694  -41.3284 H         1 UNK         0.0600 
    178 H178       -3.0026  -13.9706  -40.3661 H         1 UNK         0.0600 
    179 H179       -3.1987  -14.4613  -42.9065 H         1 UNK         0.3000 
    180 H180       -3.8251  -16.8871  -45.4347 H         1 UNK         0.0600 
    181 H181       -5.7410  -17.1628  -43.8737 H         1 UNK         0.0600 
    182 H182       -5.7581  -15.4323  -43.5536 H         1 UNK         0.0600 
    183 H183       -6.1463  -16.0404  -45.1617 H         1 UNK         0.0600 
    184 H184       -4.4902  -14.1413  -45.3088 H         1 UNK         0.3000 
    185 H185       -3.4556  -12.7079  -46.7250 H         1 UNK         0.0600 
    186 H186       -2.4427  -12.0812  -44.5327 H         1 UNK         0.0600 
    187 H187       -0.8340  -12.4394  -45.1478 H         1 UNK         0.0600 
    188 H188       -1.7671  -11.1105  -45.8303 H         1 UNK         0.0600 
    189 H189       -0.6302  -12.9707  -47.5256 H         1 UNK         0.3000 
    190 H190       -0.3462  -23.0876  -49.4593 H         1 UNK         0.3000 
    191 H191       -2.4970  -24.6283  -48.3099 H         1 UNK         0.0600 
    192 H192       -2.3879  -22.9889  -50.8935 H         1 UNK         0.0600 
    193 H193       -3.5593  -24.2348  -50.4818 H         1 UNK         0.0600 
    194 H194       -1.8904  -24.6751  -50.7264 H         1 UNK         0.0600 
    195 H195       -2.2400  -22.8993  -46.4332 H         1 UNK         0.3000 
    196 H196       -3.5078  -20.3899  -46.5916 H         1 UNK         0.0600 
    197 H197       -3.2761  -20.3706  -44.1724 H         1 UNK         0.0600 
    198 H198       -1.8865  -21.2337  -44.8222 H         1 UNK         0.0600 
    199 H199       -3.1952  -22.1282  -44.0838 H         1 UNK         0.0600 
    200 H200       -4.7437  -23.4622  -45.2161 H         1 UNK         0.3000 
    201 H201       -7.3579  -22.4701  -44.6150 H         1 UNK         0.0600 
    202 H202       -7.8105  -24.8648  -44.0675 H         1 UNK         0.0600 
    203 H203       -6.2946  -25.3403  -44.8236 H         1 UNK         0.0600 
    204 H204       -6.2871  -24.3368  -43.3724 H         1 UNK         0.0600 
    205 H205       -5.9788  -23.7443  -47.5345 H         1 UNK         0.3000 
    206 H206       -8.4209  -24.6591  -48.7836 H         1 UNK         0.0600 
    207 H207       -6.1982  -25.5424  -49.4561 H         1 UNK         0.0600 
    208 H208       -7.0036  -24.7824  -50.8213 H         1 UNK         0.0600 
    209 H209       -5.7071  -23.9361  -49.9903 H         1 UNK         0.0600 
    210 H210       -6.3041  -21.7668  -49.3754 H         1 UNK         0.3000 
    211 H211       -8.5440  -19.9964  -49.7844 H         1 UNK         0.0600 
    212 H212       -8.2294  -19.6133  -52.2241 H         1 UNK         0.0600 
    213 H213       -8.6899  -21.2753  -51.9543 H         1 UNK         0.0600 
    214 H214       -7.0092  -20.8794  -52.2935 H         1 UNK         0.0600 
    215 H215       -6.2219  -19.9327  -48.0888 H         1 UNK         0.3000 
    216 H216       -4.5839  -18.5880  -47.3988 H         1 UNK         0.0600 
    217 H217       -4.9406  -16.1709  -47.7047 H         1 UNK         0.0600 
    218 H218       -6.4780  -16.9787  -47.4346 H         1 UNK         0.0600 
    219 H219       -6.0227  -16.4611  -49.0567 H         1 UNK         0.0600 
    220 H220       -3.6920  -20.1822  -49.3949 H         1 UNK         0.3000 
    221 H221       -1.8809  -20.6147  -50.5473 H         1 UNK         0.0600 
    222 H222       -0.9785  -17.7131  -50.7002 H         1 UNK         0.0600 
    223 H223       -0.6873  -18.7146  -49.2852 H         1 UNK         0.0600 
    224 H224       -0.0098  -19.1631  -50.8438 H         1 UNK         0.0600 
    225 H225       -4.4127  -18.7002  -51.7528 H         1 UNK         0.3000 
    226 H226       -3.4912  -18.2626  -54.4206 H         1 UNK         0.0600 
    227 H227       -5.8191  -17.7979  -54.9406 H         1 UNK         0.0600 
    228 H228       -6.3782  -18.6118  -53.4910 H         1 UNK         0.0600 
    229 H229       -5.4662  -17.1067  -53.3635 H         1 UNK         0.0600 
    230 H230       -4.6286  -21.1195  -52.8073 H         1 UNK         0.3000 
    231 H231       -5.1509  -22.7051  -55.2079 H         1 UNK         0.0600 
    232 H232       -6.3942  -23.1596  -53.1221 H         1 UNK         0.0600 
    233 H233       -4.8917  -23.4351  -52.2448 H         1 UNK         0.0600 
    234 H234       -5.3926  -24.5471  -53.5123 H         1 UNK         0.0600 
    235 H235       -2.3104  -21.6537  -53.6093 H         1 UNK         0.3000 
    236 H236       -0.6475  -23.9118  -54.6511 H         1 UNK         0.0600 
    237 H237       -0.3597  -23.7467  -52.2491 H         1 UNK         0.0600 
    238 H238        1.0552  -23.0298  -52.9839 H         1 UNK         0.0600 
    239 H239       -0.1961  -21.9947  -52.2959 H         1 UNK         0.0600 
    240 H240        0.6145  -20.7956  -53.7389 H         1 UNK         0.3000 
    241 H241        1.7064  -20.3334  -56.3731 H         1 UNK         0.0600 
    242 H242       -1.2126  -19.1148  -54.7272 H         1 UNK         0.3800 
    243 H243       -1.6209  -17.9815  -56.0048 H         1 UNK         0.3800 
    244 H244        2.7771  -18.3475  -55.3331 H         1 UNK         0.0800 
    245 H245        1.8032  -18.5570  -53.8947 H         1 UNK         0.0800 
    246 H246        4.8937  -18.2384  -53.6949 H         1 UNK         0.0800 
    247 H247        5.4383  -19.5622  -52.6982 H         1 UNK         0.0800 
@<TRIPOS>BOND
     1    1    2 1    
     2    1  127 1    
     3    1  128 1    
     4    1  129 1    
     5    2    3 2    
     6    2    4 am   BACKBONE|DICT|INTERRES
     7    4    5 1    
     8    4  130 1    
     9    5    6 1    
    10    5   65 1    
    11    5  131 1    
    12    6    7 1    
    13    6  132 1    
    14    6  133 1    
    15    7    8 1    
    16    8    9 1    
    17    8  134 1    
    18    8  135 1    
    19    9   10 ar   
    20    9   14 ar   
    21   10   11 ar   
    22   10  136 1    
    23   11   12 ar   
    24   11  126 1    
    25   12   13 ar   
    26   12  137 1    
    27   13   14 ar   
    28   13   15 1    
    29   14  138 1    
    30   15   16 1    
    31   15  139 1    
    32   15  140 1    
    33   16   17 1    
    34   17   18 1    
    35   17  141 1    
    36   17  142 1    
    37   18   19 1    
    38   18   67 1    
    39   18  143 1    
    40   19   20 am   BACKBONE|DICT|INTERRES
    41   19  144 1    
    42   20   21 2    
    43   20   22 1    
    44   22   23 1    
    45   22   24 1    
    46   22  145 1    
    47   23  146 1    
    48   23  147 1    
    49   23  148 1    
    50   24   25 am   BACKBONE|DICT|INTERRES
    51   24  149 1    
    52   25   26 2    
    53   25   27 1    
    54   27   28 1    
    55   27   29 1    
    56   27  150 1    
    57   28  151 1    
    58   28  152 1    
    59   28  153 1    
    60   29   30 am   BACKBONE|DICT|INTERRES
    61   29  154 1    
    62   30   31 2    
    63   30   32 1    
    64   32   33 1    
    65   32   34 1    
    66   32  155 1    
    67   33  156 1    
    68   33  157 1    
    69   33  158 1    
    70   34   35 am   BACKBONE|DICT|INTERRES
    71   34  159 1    
    72   35   36 2    
    73   35   37 1    
    74   37   38 1    
    75   37   39 1    
    76   37  160 1    
    77   38  161 1    
    78   38  162 1    
    79   38  163 1    
    80   39   40 am   BACKBONE|DICT|INTERRES
    81   39  164 1    
    82   40   41 2    
    83   40   42 1    
    84   42   43 1    
    85   42   44 1    
    86   42  165 1    
    87   43  166 1    
    88   43  167 1    
    89   43  168 1    
    90   44   45 am   BACKBONE|DICT|INTERRES
    91   44  169 1    
    92   45   46 2    
    93   45   47 1    
    94   47   48 1    
    95   47   49 1    
    96   47  170 1    
    97   48  171 1    
    98   48  172 1    
    99   48  173 1    
   100   49   50 am   BACKBONE|DICT|INTERRES
   101   49  174 1    
   102   50   51 2    
   103   50   52 1    
   104   52   53 1    
   105   52   54 1    
   106   52  175 1    
   107   53  176 1    
   108   53  177 1    
   109   53  178 1    
   110   54   55 am   BACKBONE|DICT|INTERRES
   111   54  179 1    
   112   55   56 2    
   113   55   57 1    
   114   57   58 1    
   115   57   59 1    
   116   57  180 1    
   117   58  181 1    
   118   58  182 1    
   119   58  183 1    
   120   59   60 am   BACKBONE|DICT|INTERRES
   121   59  184 1    
   122   60   61 2    
   123   60   62 1    
   124   62   63 1    
   125   62   64 1    
   126   62  185 1    
   127   63  186 1    
   128   63  187 1    
   129   63  188 1    
   130   64   65 am   BACKBONE|DICT|INTERRES
   131   64  189 1    
   132   65   66 2    
   133   67   68 2    
   134   67   69 am   BACKBONE|DICT|INTERRES
   135   69   70 1    
   136   69  190 1    
   137   70   71 1    
   138   70   72 1    
   139   70  191 1    
   140   71  192 1    
   141   71  193 1    
   142   71  194 1    
   143   72   73 2    
   144   72   74 am   BACKBONE|DICT|INTERRES
   145   74   75 1    
   146   74  195 1    
   147   75   76 1    
   148   75   77 1    
   149   75  196 1    
   150   76  197 1    
   151   76  198 1    
   152   76  199 1    
   153   77   78 2    
   154   77   79 am   BACKBONE|DICT|INTERRES
   155   79   80 1    
   156   79  200 1    
   157   80   81 1    
   158   80   82 1    
   159   80  201 1    
   160   81  202 1    
   161   81  203 1    
   162   81  204 1    
   163   82   83 2    
   164   82   84 am   BACKBONE|DICT|INTERRES
   165   84   85 1    
   166   84  205 1    
   167   85   86 1    
   168   85   87 1    
   169   85  206 1    
   170   86  207 1    
   171   86  208 1    
   172   86  209 1    
   173   87   88 2    
   174   87   89 am   BACKBONE|DICT|INTERRES
   175   89   90 1    
   176   89  210 1    
   177   90   91 1    
   178   90   92 1    
   179   90  211 1    
   180   91  212 1    
   181   91  213 1    
   182   91  214 1    
   183   92   93 2    
   184   92   94 am   BACKBONE|DICT|INTERRES
   185   94   95 1    
   186   94  215 1    
   187   95   96 1    
   188   95   97 1    
   189   95  216 1    
   190   96  217 1    
   191   96  218 1    
   192   96  219 1    
   193   97   98 2    
   194   97   99 am   BACKBONE|DICT|INTERRES
   195   99  100 1    
   196   99  220 1    
   197  100  101 1    
   198  100  102 1    
   199  100  221 1    
   200  101  222 1    
   201  101  223 1    
   202  101  224 1    
   203  102  103 2    
   204  102  104 am   BACKBONE|DICT|INTERRES
   205  104  105 1    
   206  104  225 1    
   207  105  106 1    
   208  105  107 1    
   209  105  226 1    
   210  106  227 1    
   211  106  228 1    
   212  106  229 1    
   213  107  108 2    
   214  107  109 am   BACKBONE|DICT|INTERRES
   215  109  110 1    
   216  109  230 1    
   217  110  111 1    
   218  110  112 1    
   219  110  231 1    
   220  111  232 1    
   221  111  233 1    
   222  111  234 1    
   223  112  113 2    
   224  112  114 am   BACKBONE|DICT|INTERRES
   225  114  115 1    
   226  114  235 1    
   227  115  116 1    
   228  115  117 1    
   229  115  236 1    
   230  116  237 1    
   231  116  238 1    
   232  116  239 1    
   233  117  118 2    
   234  117  119 am   BACKBONE|DICT|INTERRES
   235  119  120 1    
   236  119  240 1    
   237  120  121 1    
   238  120  124 1    
   239  120  241 1    
   240  121  122 am   BACKBONE|DICT|INTERRES
   241  121  123 2    
   242  122  242 1    
   243  122  243 1    
   244  124  125 1    
   245  124  244 1    
   246  124  245 1    
   247  125  126 1    
   248  126  246 1    
   249  126  247 1    
@<TRIPOS>SUBSTRUCTURE
     1 UNK         1 GROUP             0       ****    0 ROOT    
