@<TRIPOS>MOLECULE
3R540
247   249    1
SMALL
USER_CHARGES


@<TRIPOS>ATOM
      1 CA          8.8136  -16.4278  -48.3980 C.3       0 UNK        -0.1800 
      2 C           9.2212  -15.1157  -49.0650 C.2       0 UNK         0.5000 
      3 O          10.4080  -14.9029  -49.3067 O.2       0 UNK        -0.5000 
      4 N           8.2878  -14.2098  -49.3756 N.am      1 UNK        -0.5000 
      5 CA          6.8513  -14.2900  -49.1192 C.3       1 UNK         0.1400 
      6 C6          6.1036  -15.0431  -50.2504 C.3       23 UNK        -0.0398 
      7 S7          4.5338  -15.7787  -49.6830 S.3       23 UNK        -0.2404 
      8 C8          3.3484  -14.9453  -50.7818 C.3       23 UNK        -0.0205 
      9 C9          1.9315  -15.4338  -50.5296 C.ar      23 UNK        -0.0193 
     10 C10         1.0964  -14.7406  -49.6507 C.ar      23 UNK        -0.1150 
     11 C11        -0.2064  -15.1800  -49.4012 C.ar      23 UNK        -0.0193 
     12 C12        -0.6602  -16.3474  -50.0297 C.ar      23 UNK        -0.1150 
     13 C13         0.1556  -17.0373  -50.9311 C.ar      23 UNK        -0.0193 
     14 C14         1.4511  -16.5748  -51.1781 C.ar      23 UNK        -0.1150 
     15 C15        -0.3733  -18.2692  -51.6532 C.3       23 UNK        -0.0205 
     16 S16         0.4154  -19.8090  -51.0851 S.3       23 UNK        -0.2404 
     17 C17        -0.0080  -19.7967  -49.3129 C.3       23 UNK        -0.0398 
     18 CA          0.0508  -21.2069  -48.6746 C.3       11 UNK         0.1400 
     19 N           0.3932  -21.1571  -47.2519 N.am      11 UNK        -0.5000 
     20 C           0.6894  -22.2257  -46.4982 C.2       10 UNK         0.5000 
     21 O           0.7360  -23.3790  -46.9285 O.2       10 UNK        -0.5000 
     22 CA          0.9449  -21.9671  -45.0024 C.3       10 UNK         0.1400 
     23 CB          2.3696  -21.4394  -44.7766 C.3       10 UNK        -0.1800 
     24 N          -0.0236  -21.0448  -44.4069 N.am      10 UNK        -0.5000 
     25 C          -1.3392  -21.2872  -44.3121 C.2       9 UNK         0.5000 
     26 O          -1.8758  -22.3192  -44.7106 O.2       9 UNK        -0.5000 
     27 CA         -2.2149  -20.1772  -43.7084 C.3       9 UNK         0.1400 
     28 CB         -2.0676  -20.1307  -42.1802 C.3       9 UNK        -0.1800 
     29 N          -1.9260  -18.8612  -44.2723 N.am      9 UNK        -0.5000 
     30 C          -2.0617  -18.5359  -45.5664 C.2       8 UNK         0.5000 
     31 O          -2.4646  -19.3077  -46.4372 O.2       8 UNK        -0.5000 
     32 CA         -1.6198  -17.1164  -45.9564 C.3       8 UNK         0.1400 
     33 CB         -2.6414  -16.0825  -45.4531 C.3       8 UNK        -0.1800 
     34 N          -0.2888  -16.7873  -45.4429 N.am      8 UNK        -0.5000 
     35 C           0.8300  -17.4831  -45.6977 C.2       7 UNK         0.5000 
     36 O           0.8775  -18.4681  -46.4311 O.2       7 UNK        -0.5000 
     37 CA          2.0996  -17.0507  -44.9492 C.3       7 UNK         0.1400 
     38 CB          2.7421  -15.8253  -45.6138 C.3       7 UNK        -0.1800 
     39 N           1.8268  -16.7754  -43.5388 N.am      7 UNK        -0.5000 
     40 C           1.4718  -17.7081  -42.6423 C.2       6 UNK         0.5000 
     41 O           1.3816  -18.9085  -42.8991 O.2       6 UNK        -0.5000 
     42 CA          1.1155  -17.2055  -41.2320 C.3       6 UNK         0.1400 
     43 CB          2.3847  -16.9954  -40.3928 C.3       6 UNK        -0.1800 
     44 N           0.3426  -15.9634  -41.2652 N.am      6 UNK        -0.5000 
     45 C          -0.9066  -15.8634  -41.7416 C.2       5 UNK         0.5000 
     46 O          -1.5584  -16.8218  -42.1557 O.2       5 UNK        -0.5000 
     47 CA         -1.5064  -14.4458  -41.8096 C.3       5 UNK         0.1400 
     48 CB         -2.1801  -14.0791  -40.4791 C.3       5 UNK        -0.1800 
     49 N          -0.5155  -13.4206  -42.1546 N.am      5 UNK        -0.5000 
     50 C           0.1308  -13.3645  -43.3261 C.2       4 UNK         0.5000 
     51 O          -0.0404  -14.1782  -44.2365 O.2       4 UNK        -0.5000 
     52 CA          1.1892  -12.2602  -43.4774 C.3       4 UNK         0.1400 
     53 CB          2.5463  -12.7485  -42.9463 C.3       4 UNK        -0.1800 
     54 N           1.3450  -11.8930  -44.8814 N.am      4 UNK        -0.5000 
     55 C           0.5893  -11.0066  -45.5367 C.2       3 UNK         0.5000 
     56 O          -0.2702  -10.3153  -44.9864 O.2       3 UNK        -0.5000 
     57 CA          0.8466  -10.8677  -47.0560 C.3       3 UNK         0.1400 
     58 CB          0.0934   -9.6807  -47.6831 C.3       3 UNK        -0.1800 
     59 N           2.2679  -10.7617  -47.4047 N.am      3 UNK        -0.5000 
     60 C           3.1344  -11.7803  -47.4376 C.2       2 UNK         0.5000 
     61 O           2.8342  -12.9362  -47.1302 O.2       2 UNK        -0.5000 
     62 CA          4.5761  -11.4551  -47.8476 C.3       2 UNK         0.1400 
     63 CB          5.3229  -10.7298  -46.7129 C.3       2 UNK        -0.1800 
     64 N           5.2488  -12.7102  -48.1625 N.am      2 UNK        -0.5000 
     65 C           6.3316  -12.8532  -48.9291 C.2       1 UNK         0.5000 
     66 O           6.9157  -11.9123  -49.4753 O.2       1 UNK        -0.5000 
     67 C          -1.2440  -22.0077  -48.9135 C.2       11 UNK         0.5000 
     68 O          -1.2484  -22.9103  -49.7501 O.2       11 UNK        -0.5000 
     69 N          -2.2901  -21.7141  -48.1261 N.am      12 UNK        -0.5000 
     70 CA         -3.5685  -22.4217  -48.1604 C.3       12 UNK         0.1400 
     71 CB         -4.5804  -21.7136  -47.2481 C.3       12 UNK        -0.1800 
     72 C          -3.4327  -23.9060  -47.7808 C.2       12 UNK         0.5000 
     73 O          -3.9678  -24.7583  -48.4887 O.2       12 UNK        -0.5000 
     74 N          -2.6925  -24.2005  -46.7013 N.am      13 UNK        -0.5000 
     75 CA         -2.4369  -25.5555  -46.2036 C.3       13 UNK         0.1400 
     76 CB         -1.6471  -25.4900  -44.8885 C.3       13 UNK        -0.1800 
     77 C          -1.7166  -26.4622  -47.2169 C.2       13 UNK         0.5000 
     78 O          -2.0275  -27.6518  -47.2849 O.2       13 UNK        -0.5000 
     79 N          -0.8210  -25.8839  -48.0298 N.am      14 UNK        -0.5000 
     80 CA         -0.1349  -26.5678  -49.1306 C.3       14 UNK         0.1400 
     81 CB          0.9762  -25.6601  -49.6793 C.3       14 UNK        -0.1800 
     82 C          -1.0801  -27.0259  -50.2636 C.2       14 UNK         0.5000 
     83 O          -0.7317  -27.9500  -50.9993 O.2       14 UNK        -0.5000 
     84 N          -2.2603  -26.4007  -50.3643 N.am      15 UNK        -0.5000 
     85 CA         -3.3447  -26.7556  -51.2798 C.3       15 UNK         0.1400 
     86 CB         -3.7713  -25.4888  -52.0382 C.3       15 UNK        -0.1800 
     87 C          -4.5386  -27.3850  -50.5316 C.2       15 UNK         0.5000 
     88 O          -5.6365  -27.4392  -51.0876 O.2       15 UNK        -0.5000 
     89 N          -4.3294  -27.8152  -49.2756 N.am      16 UNK        -0.5000 
     90 CA         -5.3127  -28.4158  -48.3625 C.3       16 UNK         0.1400 
     91 CB         -5.7053  -29.8239  -48.8550 C.3       16 UNK        -0.1800 
     92 C          -6.5431  -27.5197  -48.0872 C.2       16 UNK         0.5000 
     93 O          -7.6315  -28.0326  -47.8226 O.2       16 UNK        -0.5000 
     94 N          -6.3473  -26.1962  -48.1825 N.am      17 UNK        -0.5000 
     95 CA         -7.3362  -25.1179  -48.0895 C.3       17 UNK         0.1400 
     96 CB         -7.9660  -25.0651  -46.6828 C.3       17 UNK        -0.1800 
     97 C          -8.3931  -25.1187  -49.2172 C.2       17 UNK         0.5000 
     98 O          -9.3853  -24.3959  -49.1112 O.2       17 UNK        -0.5000 
     99 N          -8.1685  -25.8965  -50.2866 N.am      18 UNK        -0.5000 
    100 CA        -9.0520  -25.9733  -51.4525 C.3       18 UNK         0.1400 
    101 CB        -8.9043  -27.3597  -52.0985 C.3       18 UNK        -0.1800 
    102 C         -8.7667  -24.8653  -52.4845 C.2       18 UNK         0.5000 
    103 O         -9.6156  -24.6009  -53.3371 O.2       18 UNK        -0.5000 
    104 N         -7.5857  -24.2443  -52.3971 N.am      19 UNK        -0.5000 
    105 CA        -7.0956  -23.1800  -53.2655 C.3       19 UNK         0.1400 
    106 CB        -6.6613  -23.7670  -54.6273 C.3       19 UNK        -0.1800 
    107 C         -5.9557  -22.4420  -52.5384 C.2       19 UNK         0.5000 
    108 O         -5.8360  -22.5634  -51.3162 O.2       19 UNK        -0.5000 
    109 N         -5.1346  -21.7120  -53.3074 N.am      20 UNK        -0.5000 
    110 CA        -3.9298  -20.9895  -52.8832 C.3       20 UNK         0.1400 
    111 CB        -2.8397  -21.9695  -52.4132 C.3       20 UNK        -0.1800 
    112 C         -4.2199  -19.8601  -51.8749 C.2       20 UNK         0.5000 
    113 O         -3.5716  -19.7585  -50.8323 O.2       20 UNK        -0.5000 
    114 N         -5.1909  -19.0114  -52.2328 N.am      21 UNK        -0.5000 
    115 CA        -5.4505  -17.7299  -51.5785 C.3       21 UNK         0.1400 
    116 CB        -6.8616  -17.2600  -51.9676 C.3       21 UNK        -0.1800 
    117 C         -4.3943  -16.6785  -51.9793 C.2       21 UNK         0.5000 
    118 O         -3.6853  -16.8583  -52.9733 O.2       21 UNK        -0.5000 
    119 N         -4.3267  -15.5862  -51.2108 N.am      22 UNK        -0.5000 
    120 CA        -3.3778  -14.4752  -51.4160 C.3       22 UNK         0.1400 
    121 C         -3.6760  -13.5675  -52.6472 C.2       22 UNK         0.5000 
    122 N         -4.8311  -13.6734  -53.2929 N.am      22 UNK        -0.7600 
    123 O         -2.8405  -12.7510  -53.0253 O.2       22 UNK        -0.5000 
    124 C124       -3.2084  -13.6098  -50.1393 C.3       23 UNK        -0.0398 
    125 S125       -2.8742  -14.5785  -48.6273 S.3       23 UNK        -0.2404 
    126 C126       -1.0698  -14.3767  -48.4300 C.3       23 UNK        -0.0205 
    127 H127        7.9707  -16.8940  -48.9065 H         1 UNK         0.0600 
    128 H128        9.6410  -17.1375  -48.4152 H         1 UNK         0.0600 
    129 H129        8.5417  -16.2556  -47.3567 H         1 UNK         0.0600 
    130 H130        8.5672  -13.3201  -49.7710 H         1 UNK         0.3000 
    131 H131        6.7028  -14.8109  -48.1710 H         1 UNK         0.0600 
    132 H132        6.7108  -15.8685  -50.6230 H         1 UNK         0.0800 
    133 H133        5.9409  -14.3975  -51.1156 H         1 UNK         0.0800 
    134 H134        3.4086  -13.8663  -50.6294 H         1 UNK         0.0800 
    135 H135        3.6223  -15.1293  -51.8219 H         1 UNK         0.0800 
    136 H136        1.4658  -13.8548  -49.1544 H         1 UNK         0.1150 
    137 H137       -1.6564  -16.7180  -49.8363 H         1 UNK         0.1150 
    138 H138        2.0889  -17.1111  -51.8667 H         1 UNK         0.1150 
    139 H139       -1.4534  -18.3514  -51.5311 H         1 UNK         0.0800 
    140 H140       -0.1994  -18.1579  -52.7242 H         1 UNK         0.0800 
    141 H141       -0.9793  -19.3232  -49.1541 H         1 UNK         0.0800 
    142 H142        0.7258  -19.1407  -48.8462 H         1 UNK         0.0800 
    143 H143        0.8628  -21.7593  -49.1530 H         1 UNK         0.0600 
    144 H144        0.4119  -20.2335  -46.8247 H         1 UNK         0.3000 
    145 H145        0.8530  -22.9230  -44.4827 H         1 UNK         0.0600 
    146 H146        2.5910  -21.3475  -43.7132 H         1 UNK         0.0600 
    147 H147        3.1101  -22.1153  -45.2060 H         1 UNK         0.0600 
    148 H148        2.5131  -20.4598  -45.2335 H         1 UNK         0.0600 
    149 H149        0.3473  -20.1768  -44.0321 H         1 UNK         0.3000 
    150 H150       -3.2551  -20.4135  -43.9415 H         1 UNK         0.0600 
    151 H151       -2.2869  -21.1026  -41.7364 H         1 UNK         0.0600 
    152 H152       -2.7567  -19.4093  -41.7407 H         1 UNK         0.0600 
    153 H153       -1.0572  -19.8516  -41.8802 H         1 UNK         0.0600 
    154 H154       -1.6120  -18.1486  -43.6200 H         1 UNK         0.3000 
    155 H155       -1.5752  -17.0632  -47.0458 H         1 UNK         0.0600 
    156 H156       -2.3233  -15.0629  -45.6668 H         1 UNK         0.0600 
    157 H157       -2.8019  -16.1546  -44.3783 H         1 UNK         0.0600 
    158 H158       -3.6080  -16.2303  -45.9358 H         1 UNK         0.0600 
    159 H159       -0.2204  -15.9577  -44.8593 H         1 UNK         0.3000 
    160 H160        2.8147  -17.8745  -45.0004 H         1 UNK         0.0600 
    161 H161        2.0799  -14.9609  -45.5884 H         1 UNK         0.0600 
    162 H162        2.9713  -16.0246  -46.6618 H         1 UNK         0.0600 
    163 H163        3.6755  -15.5495  -45.1235 H         1 UNK         0.0600 
    164 H164        1.8250  -15.8077  -43.2570 H         1 UNK         0.3000 
    165 H165        0.5079  -17.9729  -40.7476 H         1 UNK         0.0600 
    166 H166        3.0241  -16.2180  -40.8130 H         1 UNK         0.0600 
    167 H167        2.1378  -16.7107  -39.3698 H         1 UNK         0.0600 
    168 H168        2.9732  -17.9124  -40.3408 H         1 UNK         0.0600 
    169 H169        0.8024  -15.1274  -40.9368 H         1 UNK         0.3000 
    170 H170       -2.2713  -14.4486  -42.5889 H         1 UNK         0.0600 
    171 H171       -2.9365  -14.8172  -40.2088 H         1 UNK         0.0600 
    172 H172       -1.4603  -14.0320  -39.6610 H         1 UNK         0.0600 
    173 H173       -2.6801  -13.1125  -40.5435 H         1 UNK         0.0600 
    174 H174       -0.3201  -12.7252  -41.4486 H         1 UNK         0.3000 
    175 H175        0.8792  -11.3858  -42.9012 H         1 UNK         0.0600 
    176 H176        2.4821  -13.0233  -41.8927 H         1 UNK         0.0600 
    177 H177        3.3034  -11.9688  -43.0313 H         1 UNK         0.0600 
    178 H178        2.9056  -13.6206  -43.4934 H         1 UNK         0.0600 
    179 H179        1.9753  -12.4630  -45.4363 H         1 UNK         0.3000 
    180 H180        0.4562  -11.7764  -47.5135 H         1 UNK         0.0600 
    181 H181        0.4239   -8.7292  -47.2649 H         1 UNK         0.0600 
    182 H182       -0.9808   -9.7615  -47.5118 H         1 UNK         0.0600 
    183 H183        0.2435   -9.6442  -48.7623 H         1 UNK         0.0600 
    184 H184        2.5997   -9.8340  -47.6264 H         1 UNK         0.3000 
    185 H185        4.5466  -10.8242  -48.7384 H         1 UNK         0.0600 
    186 H186        6.3470  -10.4917  -47.0004 H         1 UNK         0.0600 
    187 H187        4.8343   -9.7893  -46.4563 H         1 UNK         0.0600 
    188 H188        5.3625  -11.3374  -45.8078 H         1 UNK         0.0600 
    189 H189        4.7676  -13.5251  -47.7985 H         1 UNK         0.3000 
    190 H190       -2.2156  -20.9472  -47.4632 H         1 UNK         0.3000 
    191 H191       -3.9462  -22.3739  -49.1839 H         1 UNK         0.0600 
    192 H192       -4.7491  -20.6874  -47.5755 H         1 UNK         0.0600 
    193 H193       -5.5449  -22.2220  -47.2623 H         1 UNK         0.0600 
    194 H194       -4.2378  -21.6822  -46.2132 H         1 UNK         0.0600 
    195 H195       -2.3062  -23.4398  -46.1462 H         1 UNK         0.3000 
    196 H196       -3.4064  -26.0116  -45.9932 H         1 UNK         0.0600 
    197 H197       -1.4378  -26.4896  -44.5055 H         1 UNK         0.0600 
    198 H198       -2.2080  -24.9605  -44.1185 H         1 UNK         0.0600 
    199 H199       -0.6920  -24.9804  -45.0194 H         1 UNK         0.0600 
    200 H200       -0.6047  -24.9023  -47.8976 H         1 UNK         0.3000 
    201 H201        0.3348  -27.4637  -48.7195 H         1 UNK         0.0600 
    202 H202        1.6699  -25.3638  -48.8922 H         1 UNK         0.0600 
    203 H203        0.5717  -24.7532  -50.1281 H         1 UNK         0.0600 
    204 H204        1.5554  -26.1739  -50.4474 H         1 UNK         0.0600 
    205 H205       -2.4742  -25.6587  -49.7069 H         1 UNK         0.3000 
    206 H206       -3.0050  -27.4915  -52.0108 H         1 UNK         0.0600 
    207 H207       -2.9309  -25.0553  -52.5796 H         1 UNK         0.0600 
    208 H208       -4.5505  -25.7052  -52.7695 H         1 UNK         0.0600 
    209 H209       -4.1582  -24.7322  -51.3553 H         1 UNK         0.0600 
    210 H210       -3.3999  -27.7065  -48.8869 H         1 UNK         0.3000 
    211 H211       -4.8050  -28.5302  -47.4039 H         1 UNK         0.0600 
    212 H212       -6.2735  -29.7824  -49.7849 H         1 UNK         0.0600 
    213 H213       -6.3207  -30.3412  -48.1181 H         1 UNK         0.0600 
    214 H214       -4.8234  -30.4407  -49.0279 H         1 UNK         0.0600 
    215 H215       -5.4057  -25.8736  -48.4003 H         1 UNK         0.3000 
    216 H216       -6.7716  -24.1949  -48.2264 H         1 UNK         0.0600 
    217 H217       -7.1987  -25.0430  -45.9089 H         1 UNK         0.0600 
    218 H218       -8.6105  -25.9237  -46.4940 H         1 UNK         0.0600 
    219 H219       -8.5742  -24.1684  -46.5590 H         1 UNK         0.0600 
    220 H220       -7.3251  -26.4595  -50.3234 H         1 UNK         0.3000 
    221 H221      -10.0885  -25.8643  -51.1264 H         1 UNK         0.0600 
    222 H222       -7.9036  -27.5115  -52.5040 H         1 UNK         0.0600 
    223 H223       -9.0989  -28.1546  -51.3782 H         1 UNK         0.0600 
    224 H224       -9.6112  -27.4840  -52.9198 H         1 UNK         0.0600 
    225 H225       -6.9737  -24.4645  -51.6222 H         1 UNK         0.3000 
    226 H226       -7.8997  -22.4588  -53.4238 H         1 UNK         0.0600 
    227 H227       -7.4644  -24.3403  -55.0901 H         1 UNK         0.0600 
    228 H228       -6.3923  -22.9829  -55.3353 H         1 UNK         0.0600 
    229 H229       -5.8015  -24.4295  -54.5217 H         1 UNK         0.0600 
    230 H230       -5.3302  -21.6754  -54.2978 H         1 UNK         0.3000 
    231 H231       -3.5435  -20.4932  -53.7748 H         1 UNK         0.0600 
    232 H232       -1.9177  -21.4429  -52.1670 H         1 UNK         0.0600 
    233 H233       -2.5996  -22.6947  -53.1900 H         1 UNK         0.0600 
    234 H234       -3.1489  -22.5174  -51.5244 H         1 UNK         0.0600 
    235 H235       -5.6565  -19.1639  -53.1148 H         1 UNK         0.3000 
    236 H236       -5.4103  -17.8688  -50.4959 H         1 UNK         0.0600 
    237 H237       -7.1203  -16.3279  -51.4638 H         1 UNK         0.0600 
    238 H238       -6.9476  -17.0881  -53.0414 H         1 UNK         0.0600 
    239 H239       -7.6135  -17.9973  -51.6852 H         1 UNK         0.0600 
    240 H240       -4.9375  -15.5005  -50.4116 H         1 UNK         0.3000 
    241 H241       -2.4070  -14.9249  -51.6284 H         1 UNK         0.0600 
    242 H242       -5.5247  -14.3409  -52.9977 H         1 UNK         0.3800 
    243 H243       -5.0103  -13.0826  -54.0898 H         1 UNK         0.3800 
    244 H244       -2.4097  -12.8791  -50.2782 H         1 UNK         0.0800 
    245 H245       -4.1152  -13.0300  -49.9593 H         1 UNK         0.0800 
    246 H246       -0.7864  -14.6551  -47.4152 H         1 UNK         0.0800 
    247 H247       -0.8404  -13.3165  -48.5279 H         1 UNK         0.0800 
@<TRIPOS>BOND
     1    1    2 1    
     2    1  127 1    
     3    1  128 1    
     4    1  129 1    
     5    2    3 2    
     6    2    4 am   BACKBONE|DICT|INTERRES
     7    4    5 1    
     8    4  130 1    
     9    5    6 1    
    10    5   65 1    
    11    5  131 1    
    12    6    7 1    
    13    6  132 1    
    14    6  133 1    
    15    7    8 1    
    16    8    9 1    
    17    8  134 1    
    18    8  135 1    
    19    9   10 ar   
    20    9   14 ar   
    21   10   11 ar   
    22   10  136 1    
    23   11   12 ar   
    24   11  126 1    
    25   12   13 ar   
    26   12  137 1    
    27   13   14 ar   
    28   13   15 1    
    29   14  138 1    
    30   15   16 1    
    31   15  139 1    
    32   15  140 1    
    33   16   17 1    
    34   17   18 1    
    35   17  141 1    
    36   17  142 1    
    37   18   19 1    
    38   18   67 1    
    39   18  143 1    
    40   19   20 am   BACKBONE|DICT|INTERRES
    41   19  144 1    
    42   20   21 2    
    43   20   22 1    
    44   22   23 1    
    45   22   24 1    
    46   22  145 1    
    47   23  146 1    
    48   23  147 1    
    49   23  148 1    
    50   24   25 am   BACKBONE|DICT|INTERRES
    51   24  149 1    
    52   25   26 2    
    53   25   27 1    
    54   27   28 1    
    55   27   29 1    
    56   27  150 1    
    57   28  151 1    
    58   28  152 1    
    59   28  153 1    
    60   29   30 am   BACKBONE|DICT|INTERRES
    61   29  154 1    
    62   30   31 2    
    63   30   32 1    
    64   32   33 1    
    65   32   34 1    
    66   32  155 1    
    67   33  156 1    
    68   33  157 1    
    69   33  158 1    
    70   34   35 am   BACKBONE|DICT|INTERRES
    71   34  159 1    
    72   35   36 2    
    73   35   37 1    
    74   37   38 1    
    75   37   39 1    
    76   37  160 1    
    77   38  161 1    
    78   38  162 1    
    79   38  163 1    
    80   39   40 am   BACKBONE|DICT|INTERRES
    81   39  164 1    
    82   40   41 2    
    83   40   42 1    
    84   42   43 1    
    85   42   44 1    
    86   42  165 1    
    87   43  166 1    
    88   43  167 1    
    89   43  168 1    
    90   44   45 am   BACKBONE|DICT|INTERRES
    91   44  169 1    
    92   45   46 2    
    93   45   47 1    
    94   47   48 1    
    95   47   49 1    
    96   47  170 1    
    97   48  171 1    
    98   48  172 1    
    99   48  173 1    
   100   49   50 am   BACKBONE|DICT|INTERRES
   101   49  174 1    
   102   50   51 2    
   103   50   52 1    
   104   52   53 1    
   105   52   54 1    
   106   52  175 1    
   107   53  176 1    
   108   53  177 1    
   109   53  178 1    
   110   54   55 am   BACKBONE|DICT|INTERRES
   111   54  179 1    
   112   55   56 2    
   113   55   57 1    
   114   57   58 1    
   115   57   59 1    
   116   57  180 1    
   117   58  181 1    
   118   58  182 1    
   119   58  183 1    
   120   59   60 am   BACKBONE|DICT|INTERRES
   121   59  184 1    
   122   60   61 2    
   123   60   62 1    
   124   62   63 1    
   125   62   64 1    
   126   62  185 1    
   127   63  186 1    
   128   63  187 1    
   129   63  188 1    
   130   64   65 am   BACKBONE|DICT|INTERRES
   131   64  189 1    
   132   65   66 2    
   133   67   68 2    
   134   67   69 am   BACKBONE|DICT|INTERRES
   135   69   70 1    
   136   69  190 1    
   137   70   71 1    
   138   70   72 1    
   139   70  191 1    
   140   71  192 1    
   141   71  193 1    
   142   71  194 1    
   143   72   73 2    
   144   72   74 am   BACKBONE|DICT|INTERRES
   145   74   75 1    
   146   74  195 1    
   147   75   76 1    
   148   75   77 1    
   149   75  196 1    
   150   76  197 1    
   151   76  198 1    
   152   76  199 1    
   153   77   78 2    
   154   77   79 am   BACKBONE|DICT|INTERRES
   155   79   80 1    
   156   79  200 1    
   157   80   81 1    
   158   80   82 1    
   159   80  201 1    
   160   81  202 1    
   161   81  203 1    
   162   81  204 1    
   163   82   83 2    
   164   82   84 am   BACKBONE|DICT|INTERRES
   165   84   85 1    
   166   84  205 1    
   167   85   86 1    
   168   85   87 1    
   169   85  206 1    
   170   86  207 1    
   171   86  208 1    
   172   86  209 1    
   173   87   88 2    
   174   87   89 am   BACKBONE|DICT|INTERRES
   175   89   90 1    
   176   89  210 1    
   177   90   91 1    
   178   90   92 1    
   179   90  211 1    
   180   91  212 1    
   181   91  213 1    
   182   91  214 1    
   183   92   93 2    
   184   92   94 am   BACKBONE|DICT|INTERRES
   185   94   95 1    
   186   94  215 1    
   187   95   96 1    
   188   95   97 1    
   189   95  216 1    
   190   96  217 1    
   191   96  218 1    
   192   96  219 1    
   193   97   98 2    
   194   97   99 am   BACKBONE|DICT|INTERRES
   195   99  100 1    
   196   99  220 1    
   197  100  101 1    
   198  100  102 1    
   199  100  221 1    
   200  101  222 1    
   201  101  223 1    
   202  101  224 1    
   203  102  103 2    
   204  102  104 am   BACKBONE|DICT|INTERRES
   205  104  105 1    
   206  104  225 1    
   207  105  106 1    
   208  105  107 1    
   209  105  226 1    
   210  106  227 1    
   211  106  228 1    
   212  106  229 1    
   213  107  108 2    
   214  107  109 am   BACKBONE|DICT|INTERRES
   215  109  110 1    
   216  109  230 1    
   217  110  111 1    
   218  110  112 1    
   219  110  231 1    
   220  111  232 1    
   221  111  233 1    
   222  111  234 1    
   223  112  113 2    
   224  112  114 am   BACKBONE|DICT|INTERRES
   225  114  115 1    
   226  114  235 1    
   227  115  116 1    
   228  115  117 1    
   229  115  236 1    
   230  116  237 1    
   231  116  238 1    
   232  116  239 1    
   233  117  118 2    
   234  117  119 am   BACKBONE|DICT|INTERRES
   235  119  120 1    
   236  119  240 1    
   237  120  121 1    
   238  120  124 1    
   239  120  241 1    
   240  121  122 am   BACKBONE|DICT|INTERRES
   241  121  123 2    
   242  122  242 1    
   243  122  243 1    
   244  124  125 1    
   245  124  244 1    
   246  124  245 1    
   247  125  126 1    
   248  126  246 1    
   249  126  247 1    
@<TRIPOS>SUBSTRUCTURE
     1 UNK         1 GROUP             0       ****    0 ROOT    
