@<TRIPOS>MOLECULE
3R540
247   249    1
SMALL
USER_CHARGES


@<TRIPOS>ATOM
      1 CA          5.5542  -14.7691  -46.4124 C.3       0 UNK        -0.1800 
      2 C           4.4089  -13.9294  -45.8682 C.2       0 UNK         0.5000 
      3 O           4.5007  -13.4201  -44.7520 O.2       0 UNK        -0.5000 
      4 N           3.3382  -13.7669  -46.6569 N.am      1 UNK        -0.5000 
      5 CA          2.0944  -13.0739  -46.2834 C.3       1 UNK         0.1400 
      6 C6          0.9981  -13.2307  -47.3626 C.3       23 UNK        -0.0398 
      7 S7          0.5601  -14.9801  -47.6245 S.3       23 UNK        -0.2404 
      8 C8         -0.0125  -14.9519  -49.3476 C.3       23 UNK        -0.0205 
      9 C9         -0.6109  -16.2930  -49.7408 C.ar      23 UNK        -0.0193 
     10 C10        -1.9915  -16.4950  -49.6743 C.ar      23 UNK        -0.1150 
     11 C11        -2.5489  -17.7267  -50.0303 C.ar      23 UNK        -0.0193 
     12 C12        -1.7128  -18.7580  -50.4657 C.ar      23 UNK        -0.1150 
     13 C13        -0.3263  -18.5745  -50.5254 C.ar      23 UNK        -0.0193 
     14 C14         0.2153  -17.3367  -50.1648 C.ar      23 UNK        -0.1150 
     15 C15         0.6020  -19.6912  -50.9929 C.3       23 UNK        -0.0205 
     16 S16         0.1963  -21.3388  -50.3205 S.3       23 UNK        -0.2404 
     17 C17         0.1914  -21.0156  -48.5192 C.3       23 UNK        -0.0398 
     18 CA          0.0063  -22.2786  -47.6399 C.3       11 UNK         0.1400 
     19 N          -0.0014  -21.9479  -46.2131 N.am      11 UNK        -0.5000 
     20 C          -0.0016  -22.8412  -45.2122 C.2       10 UNK         0.5000 
     21 O           0.0737  -24.0569  -45.3785 O.2       10 UNK        -0.5000 
     22 CA         -0.1661  -22.2900  -43.7846 C.3       10 UNK         0.1400 
     23 CB          1.1655  -21.7419  -43.2525 C.3       10 UNK        -0.1800 
     24 N          -1.1997  -21.2580  -43.6961 N.am      10 UNK        -0.5000 
     25 C          -2.4966  -21.4574  -43.9748 C.2       9 UNK         0.5000 
     26 O          -2.9696  -22.5446  -44.3023 O.2       9 UNK        -0.5000 
     27 CA         -3.4109  -20.2231  -43.9314 C.3       9 UNK         0.1400 
     28 CB         -3.8211  -19.8883  -42.4895 C.3       9 UNK        -0.1800 
     29 N          -2.7808  -19.0579  -44.5466 N.am      9 UNK        -0.5000 
     30 C          -2.4876  -18.9497  -45.8501 C.2       8 UNK         0.5000 
     31 O          -2.7468  -19.8106  -46.6915 O.2       8 UNK        -0.5000 
     32 CA         -1.7313  -17.6776  -46.2606 C.3       8 UNK         0.1400 
     33 CB         -2.6914  -16.4778  -46.3123 C.3       8 UNK        -0.1800 
     34 N          -0.6280  -17.3872  -45.3445 N.am      8 UNK        -0.5000 
     35 C           0.4718  -18.1474  -45.2244 C.2       7 UNK         0.5000 
     36 O           0.6762  -19.1582  -45.8954 O.2       7 UNK        -0.5000 
     37 CA          1.4986  -17.7488  -44.1453 C.3       7 UNK         0.1400 
     38 CB          2.5801  -16.8428  -44.7464 C.3       7 UNK        -0.1800 
     39 N           0.8994  -17.0848  -42.9876 N.am      7 UNK        -0.5000 
     40 C          -0.0242  -17.6350  -42.1836 C.2       6 UNK         0.5000 
     41 O          -0.4083  -18.8002  -42.2915 O.2       6 UNK        -0.5000 
     42 CA         -0.6696  -16.7276  -41.1155 C.3       6 UNK         0.1400 
     43 CB         -0.0309  -16.9820  -39.7424 C.3       6 UNK        -0.1800 
     44 N          -0.5887  -15.2960  -41.4187 N.am      6 UNK        -0.5000 
     45 C          -1.0827  -14.6951  -42.5115 C.2       5 UNK         0.5000 
     46 O          -1.7365  -15.2833  -43.3721 O.2       5 UNK        -0.5000 
     47 CA         -0.7428  -13.2035  -42.7071 C.3       5 UNK         0.1400 
     48 CB         -1.9409  -12.3252  -42.3174 C.3       5 UNK        -0.1800 
     49 N           0.4441  -12.7492  -41.9714 N.am      5 UNK        -0.5000 
     50 C           1.6879  -13.2141  -42.1500 C.2       4 UNK         0.5000 
     51 O           1.9701  -14.1362  -42.9161 O.2       4 UNK        -0.5000 
     52 CA          2.7896  -12.5782  -41.2978 C.3       4 UNK         0.1400 
     53 CB          3.3623  -13.5918  -40.2908 C.3       4 UNK        -0.1800 
     54 N           3.8444  -12.0873  -42.1769 N.am      4 UNK        -0.5000 
     55 C           4.6773  -11.0827  -41.8772 C.2       3 UNK         0.5000 
     56 O           4.6622  -10.4787  -40.8035 O.2       3 UNK        -0.5000 
     57 CA          5.6808  -10.6612  -42.9621 C.3       3 UNK         0.1400 
     58 CB          6.8692  -11.6347  -43.0219 C.3       3 UNK        -0.1800 
     59 N           5.0375  -10.5853  -44.2727 N.am      3 UNK        -0.5000 
     60 C           4.4384   -9.4891  -44.7603 C.2       2 UNK         0.5000 
     61 O           4.4051   -8.4101  -44.1672 O.2       2 UNK        -0.5000 
     62 CA          3.7688   -9.6018  -46.1453 C.3       2 UNK         0.1400 
     63 CB          4.7207   -9.1019  -47.2429 C.3       2 UNK        -0.1800 
     64 N           3.3462  -10.9637  -46.4703 N.am      2 UNK        -0.5000 
     65 C           2.2948  -11.5867  -45.9204 C.2       1 UNK         0.5000 
     66 O           1.5141  -11.0442  -45.1378 O.2       1 UNK        -0.5000 
     67 C          -1.2473  -23.0893  -48.0280 C.2       11 UNK         0.5000 
     68 O          -1.1057  -24.1682  -48.6047 O.2       11 UNK        -0.5000 
     69 N          -2.4370  -22.5736  -47.6838 N.am      12 UNK        -0.5000 
     70 CA         -3.7332  -23.1895  -47.9782 C.3       12 UNK         0.1400 
     71 CB         -4.8575  -22.2367  -47.5461 C.3       12 UNK        -0.1800 
     72 C          -3.9210  -24.5812  -47.3439 C.2       12 UNK         0.5000 
     73 O          -4.5104  -25.4580  -47.9757 O.2       12 UNK        -0.5000 
     74 N          -3.4044  -24.7656  -46.1217 N.am      13 UNK        -0.5000 
     75 CA         -3.4042  -26.0419  -45.4054 C.3       13 UNK         0.1400 
     76 CB         -3.1074  -25.7816  -43.9205 C.3       13 UNK        -0.1800 
     77 C          -2.4028  -27.0653  -45.9772 C.2       13 UNK         0.5000 
     78 O          -2.6134  -28.2674  -45.8081 O.2       13 UNK        -0.5000 
     79 N          -1.3323  -26.5781  -46.6161 N.am      14 UNK        -0.5000 
     80 CA         -0.2694  -27.3746  -47.2184 C.3       14 UNK         0.1400 
     81 CB          1.0870  -26.7073  -46.9104 C.3       14 UNK        -0.1800 
     82 C          -0.5432  -27.5734  -48.7222 C.2       14 UNK         0.5000 
     83 O          -1.5275  -28.2220  -49.0804 O.2       14 UNK        -0.5000 
     84 N           0.3489  -27.0537  -49.5757 N.am      15 UNK        -0.5000 
     85 CA          0.3446  -27.2452  -51.0258 C.3       15 UNK         0.1400 
     86 CB          1.7124  -26.8159  -51.5804 C.3       15 UNK        -0.1800 
     87 C          -0.7810  -26.5001  -51.7660 C.2       15 UNK         0.5000 
     88 O          -1.1416  -26.9220  -52.8655 O.2       15 UNK        -0.5000 
     89 N          -1.2907  -25.4078  -51.1740 N.am      16 UNK        -0.5000 
     90 CA         -2.2918  -24.4898  -51.7262 C.3       16 UNK         0.1400 
     91 CB         -3.6798  -25.1585  -51.7759 C.3       16 UNK        -0.1800 
     92 C          -1.8541  -23.8991  -53.0813 C.2       16 UNK         0.5000 
     93 O          -2.5908  -23.9763  -54.0655 O.2       16 UNK        -0.5000 
     94 N          -0.6457  -23.3177  -53.1058 N.am      17 UNK        -0.5000 
     95 CA          0.0248  -22.7825  -54.2985 C.3       17 UNK         0.1400 
     96 CB          1.4619  -22.3839  -53.9297 C.3       17 UNK        -0.1800 
     97 C          -0.7135  -21.6217  -55.0018 C.2       17 UNK         0.5000 
     98 O          -0.4145  -21.3305  -56.1601 O.2       17 UNK        -0.5000 
     99 N          -1.6924  -21.0137  -54.3167 N.am      18 UNK        -0.5000 
    100 CA        -2.6612  -20.0690  -54.8792 C.3       18 UNK         0.1400 
    101 CB        -3.3705  -19.3455  -53.7219 C.3       18 UNK        -0.1800 
    102 C         -3.6965  -20.7232  -55.8247 C.2       18 UNK         0.5000 
    103 O         -4.4543  -19.9982  -56.4700 O.2       18 UNK        -0.5000 
    104 N         -3.7464  -22.0652  -55.8672 N.am      19 UNK        -0.5000 
    105 CA        -4.6056  -22.9511  -56.6671 C.3       19 UNK         0.1400 
    106 CB        -4.4861  -22.6670  -58.1765 C.3       19 UNK        -0.1800 
    107 C         -6.0729  -22.9674  -56.2041 C.2       19 UNK         0.5000 
    108 O         -6.6411  -24.0429  -56.0146 O.2       19 UNK        -0.5000 
    109 N         -6.6422  -21.7790  -55.9800 N.am      20 UNK        -0.5000 
    110 CA        -7.9594  -21.5683  -55.3773 C.3       20 UNK         0.1400 
    111 CB        -8.5092  -20.2224  -55.8773 C.3       20 UNK        -0.1800 
    112 C         -7.9135  -21.5914  -53.8347 C.2       20 UNK         0.5000 
    113 O         -8.9601  -21.4527  -53.1995 O.2       20 UNK        -0.5000 
    114 N         -6.7033  -21.6982  -53.2578 N.am      21 UNK        -0.5000 
    115 CA        -6.3854  -21.6597  -51.8215 C.3       21 UNK         0.1400 
    116 CB        -6.9536  -22.9051  -51.1105 C.3       21 UNK        -0.1800 
    117 C         -6.8163  -20.3436  -51.1339 C.2       21 UNK         0.5000 
    118 O         -7.0285  -20.3246  -49.9212 O.2       21 UNK        -0.5000 
    119 N         -6.9533  -19.2765  -51.9340 N.am      22 UNK        -0.5000 
    120 CA        -7.5301  -17.9712  -51.5712 C.3       22 UNK         0.1400 
    121 C         -9.0508  -18.0170  -51.2181 C.2       22 UNK         0.5000 
    122 N         -9.7907  -19.0570  -51.5888 N.am      22 UNK        -0.7600 
    123 O         -9.5838  -17.0811  -50.6277 O.2       22 UNK        -0.5000 
    124 C124       -6.6872  -17.1949  -50.5223 C.3       23 UNK        -0.0398 
    125 S125       -4.9733  -16.9036  -51.0805 S.3       23 UNK        -0.2404 
    126 C126       -4.0488  -17.9477  -49.9136 C.3       23 UNK        -0.0205 
    127 H127        6.4703  -14.1792  -46.4424 H         1 UNK         0.0600 
    128 H128        5.3480  -15.1327  -47.4193 H         1 UNK         0.0600 
    129 H129        5.7226  -15.6309  -45.7667 H         1 UNK         0.0600 
    130 H130        3.3228  -14.2164  -47.5612 H         1 UNK         0.3000 
    131 H131        1.7253  -13.5554  -45.3783 H         1 UNK         0.0600 
    132 H132        0.0875  -12.7038  -47.0707 H         1 UNK         0.0800 
    133 H133        1.3247  -12.7893  -48.3059 H         1 UNK         0.0800 
    134 H134       -0.7518  -14.1590  -49.4725 H         1 UNK         0.0800 
    135 H135        0.8218  -14.7074  -50.0068 H         1 UNK         0.0800 
    136 H136       -2.6358  -15.6955  -49.3366 H         1 UNK         0.1150 
    137 H137       -2.1402  -19.7104  -50.7441 H         1 UNK         0.1150 
    138 H138        1.2842  -17.1819  -50.2096 H         1 UNK         0.1150 
    139 H139        0.5588  -19.7331  -52.0813 H         1 UNK         0.0800 
    140 H140        1.6366  -19.4628  -50.7324 H         1 UNK         0.0800 
    141 H141       -0.5933  -20.2910  -48.2987 H         1 UNK         0.0800 
    142 H142        1.1314  -20.5261  -48.2610 H         1 UNK         0.0800 
    143 H143        0.8700  -22.9247  -47.8108 H         1 UNK         0.0600 
    144 H144       -0.0101  -20.9577  -45.9853 H         1 UNK         0.3000 
    145 H145       -0.4733  -23.1172  -43.1414 H         1 UNK         0.0600 
    146 H146        1.0587  -21.3528  -42.2397 H         1 UNK         0.0600 
    147 H147        1.9234  -22.5256  -43.2235 H         1 UNK         0.0600 
    148 H148        1.5496  -20.9407  -43.8825 H         1 UNK         0.0600 
    149 H149       -0.9038  -20.3373  -43.3849 H         1 UNK         0.3000 
    150 H150       -4.3152  -20.4560  -44.4975 H         1 UNK         0.0600 
    151 H151       -4.3202  -20.7375  -42.0210 H         1 UNK         0.0600 
    152 H152       -4.5153  -19.0482  -42.4622 H         1 UNK         0.0600 
    153 H153       -2.9606  -19.6325  -41.8707 H         1 UNK         0.0600 
    154 H154       -2.4887  -18.3174  -43.9259 H         1 UNK         0.3000 
    155 H155       -1.3124  -17.8373  -47.2556 H         1 UNK         0.0600 
    156 H156       -3.4939  -16.6497  -47.0282 H         1 UNK         0.0600 
    157 H157       -2.1761  -15.5672  -46.6154 H         1 UNK         0.0600 
    158 H158       -3.1596  -16.2895  -45.3462 H         1 UNK         0.0600 
    159 H159       -0.7462  -16.5875  -44.7336 H         1 UNK         0.3000 
    160 H160        1.9811  -18.6598  -43.7890 H         1 UNK         0.0600 
    161 H161        2.1523  -15.9077  -45.1052 H         1 UNK         0.0600 
    162 H162        3.0732  -17.3242  -45.5917 H         1 UNK         0.0600 
    163 H163        3.3488  -16.5982  -44.0130 H         1 UNK         0.0600 
    164 H164        1.1629  -16.1163  -42.8417 H         1 UNK         0.3000 
    165 H165       -1.7267  -16.9948  -41.0599 H         1 UNK         0.0600 
    166 H166       -0.5367  -16.4159  -38.9600 H         1 UNK         0.0600 
    167 H167       -0.0947  -18.0368  -39.4709 H         1 UNK         0.0600 
    168 H168        1.0237  -16.7033  -39.7322 H         1 UNK         0.0600 
    169 H169       -0.0611  -14.7298  -40.7715 H         1 UNK         0.3000 
    170 H170       -0.5442  -13.0576  -43.7711 H         1 UNK         0.0600 
    171 H171       -2.8361  -12.6179  -42.8680 H         1 UNK         0.0600 
    172 H172       -2.1688  -12.4046  -41.2537 H         1 UNK         0.0600 
    173 H173       -1.7514  -11.2759  -42.5445 H         1 UNK         0.0600 
    174 H174        0.2953  -11.9987  -41.3122 H         1 UNK         0.3000 
    175 H175        2.3610  -11.7384  -40.7464 H         1 UNK         0.0600 
    176 H176        3.8337  -14.4357  -40.7964 H         1 UNK         0.0600 
    177 H177        4.1090  -13.1301  -39.6447 H         1 UNK         0.0600 
    178 H178        2.5774  -13.9901  -39.6468 H         1 UNK         0.0600 
    179 H179        3.9212  -12.5570  -43.0768 H         1 UNK         0.3000 
    180 H180        6.0750   -9.6790  -42.6925 H         1 UNK         0.0600 
    181 H181        6.5551  -12.6507  -43.2613 H         1 UNK         0.0600 
    182 H182        7.3883  -11.6716  -42.0634 H         1 UNK         0.0600 
    183 H183        7.5952  -11.3232  -43.7730 H         1 UNK         0.0600 
    184 H184        4.9552  -11.4601  -44.7782 H         1 UNK         0.3000 
    185 H185        2.8870   -8.9574  -46.1398 H         1 UNK         0.0600 
    186 H186        5.0360   -8.0758  -47.0489 H         1 UNK         0.0600 
    187 H187        5.6204   -9.7153  -47.3060 H         1 UNK         0.0600 
    188 H188        4.2369   -9.1123  -48.2198 H         1 UNK         0.0600 
    189 H189        3.9361  -11.4863  -47.1015 H         1 UNK         0.3000 
    190 H190       -2.4665  -21.6703  -47.2181 H         1 UNK         0.3000 
    191 H191       -3.7981  -23.3153  -49.0604 H         1 UNK         0.0600 
    192 H192       -4.8018  -21.2905  -48.0853 H         1 UNK         0.0600 
    193 H193       -5.8389  -22.6673  -47.7477 H         1 UNK         0.0600 
    194 H194       -4.8081  -22.0172  -46.4793 H         1 UNK         0.0600 
    195 H195       -3.0017  -23.9706  -45.6332 H         1 UNK         0.3000 
    196 H196       -4.4022  -26.4787  -45.4808 H         1 UNK         0.0600 
    197 H197       -3.1146  -26.7109  -43.3495 H         1 UNK         0.0600 
    198 H198       -3.8552  -25.1229  -43.4786 H         1 UNK         0.0600 
    199 H199       -2.1296  -25.3175  -43.7835 H         1 UNK         0.0600 
    200 H200       -1.2515  -25.5753  -46.7283 H         1 UNK         0.3000 
    201 H201       -0.2501  -28.3691  -46.7683 H         1 UNK         0.0600 
    202 H202        1.2444  -26.6322  -45.8342 H         1 UNK         0.0600 
    203 H203        1.1494  -25.6978  -47.3191 H         1 UNK         0.0600 
    204 H204        1.9176  -27.2891  -47.3122 H         1 UNK         0.0600 
    205 H205        1.1169  -26.5205  -49.1954 H         1 UNK         0.3000 
    206 H206        0.2157  -28.3112  -51.2249 H         1 UNK         0.0600 
    207 H207        2.5205  -27.3933  -51.1309 H         1 UNK         0.0600 
    208 H208        1.7646  -26.9728  -52.6587 H         1 UNK         0.0600 
    209 H209        1.9085  -25.7592  -51.3936 H         1 UNK         0.0600 
    210 H210       -0.9565  -25.1611  -50.2458 H         1 UNK         0.3000 
    211 H211       -2.3572  -23.6480  -51.0361 H         1 UNK         0.0600 
    212 H212       -3.6959  -26.0131  -52.4526 H         1 UNK         0.0600 
    213 H213       -4.4373  -24.4553  -52.1215 H         1 UNK         0.0600 
    214 H214       -3.9836  -25.5069  -50.7887 H         1 UNK         0.0600 
    215 H215       -0.1152  -23.2844  -52.2465 H         1 UNK         0.3000 
    216 H216        0.0814  -23.5965  -55.0240 H         1 UNK         0.0600 
    217 H217        2.0037  -22.0172  -54.8025 H         1 UNK         0.0600 
    218 H218        2.0188  -23.2358  -53.5390 H         1 UNK         0.0600 
    219 H219        1.4835  -21.5971  -53.1771 H         1 UNK         0.0600 
    220 H220       -1.8495  -21.3101  -53.3657 H         1 UNK         0.3000 
    221 H221       -2.1178  -19.3251  -55.4651 H         1 UNK         0.0600 
    222 H222       -3.8681  -20.0433  -53.0486 H         1 UNK         0.0600 
    223 H223       -2.6618  -18.7602  -53.1368 H         1 UNK         0.0600 
    224 H224       -4.1255  -18.6497  -54.0904 H         1 UNK         0.0600 
    225 H225       -3.1284  -22.5741  -55.2403 H         1 UNK         0.3000 
    226 H226       -4.2161  -23.9564  -56.4977 H         1 UNK         0.0600 
    227 H227       -3.4459  -22.6976  -58.5011 H         1 UNK         0.0600 
    228 H228       -5.0295  -23.4155  -58.7544 H         1 UNK         0.0600 
    229 H229       -4.8937  -21.6926  -58.4465 H         1 UNK         0.0600 
    230 H230       -6.0857  -20.9520  -56.1815 H         1 UNK         0.3000 
    231 H231       -8.6388  -22.3600  -55.6994 H         1 UNK         0.0600 
    232 H232       -7.8740  -19.3894  -55.5730 H         1 UNK         0.0600 
    233 H233       -9.5093  -20.0343  -55.4844 H         1 UNK         0.0600 
    234 H234       -8.5824  -20.2074  -56.9649 H         1 UNK         0.0600 
    235 H235       -5.9152  -21.8067  -53.8786 H         1 UNK         0.3000 
    236 H236       -5.2981  -21.7029  -51.7448 H         1 UNK         0.0600 
    237 H237       -6.6910  -23.8208  -51.6394 H         1 UNK         0.0600 
    238 H238       -6.5599  -22.9918  -50.0977 H         1 UNK         0.0600 
    239 H239       -8.0408  -22.8656  -51.0360 H         1 UNK         0.0600 
    240 H240       -6.7487  -19.3980  -52.9138 H         1 UNK         0.3000 
    241 H241       -7.4970  -17.3860  -52.4908 H         1 UNK         0.0600 
    242 H242      -10.7726  -19.0652  -51.3629 H         1 UNK         0.3800 
    243 H243       -9.3897  -19.8434  -52.0893 H         1 UNK         0.3800 
    244 H244       -6.6933  -17.7122  -49.5623 H         1 UNK         0.0800 
    245 H245       -7.1262  -16.2140  -50.3338 H         1 UNK         0.0800 
    246 H246       -4.3008  -18.9939  -50.0908 H         1 UNK         0.0800 
    247 H247       -4.3629  -17.7255  -48.8940 H         1 UNK         0.0800 
@<TRIPOS>BOND
     1    1    2 1    
     2    1  127 1    
     3    1  128 1    
     4    1  129 1    
     5    2    3 2    
     6    2    4 am   BACKBONE|DICT|INTERRES
     7    4    5 1    
     8    4  130 1    
     9    5    6 1    
    10    5   65 1    
    11    5  131 1    
    12    6    7 1    
    13    6  132 1    
    14    6  133 1    
    15    7    8 1    
    16    8    9 1    
    17    8  134 1    
    18    8  135 1    
    19    9   10 ar   
    20    9   14 ar   
    21   10   11 ar   
    22   10  136 1    
    23   11   12 ar   
    24   11  126 1    
    25   12   13 ar   
    26   12  137 1    
    27   13   14 ar   
    28   13   15 1    
    29   14  138 1    
    30   15   16 1    
    31   15  139 1    
    32   15  140 1    
    33   16   17 1    
    34   17   18 1    
    35   17  141 1    
    36   17  142 1    
    37   18   19 1    
    38   18   67 1    
    39   18  143 1    
    40   19   20 am   BACKBONE|DICT|INTERRES
    41   19  144 1    
    42   20   21 2    
    43   20   22 1    
    44   22   23 1    
    45   22   24 1    
    46   22  145 1    
    47   23  146 1    
    48   23  147 1    
    49   23  148 1    
    50   24   25 am   BACKBONE|DICT|INTERRES
    51   24  149 1    
    52   25   26 2    
    53   25   27 1    
    54   27   28 1    
    55   27   29 1    
    56   27  150 1    
    57   28  151 1    
    58   28  152 1    
    59   28  153 1    
    60   29   30 am   BACKBONE|DICT|INTERRES
    61   29  154 1    
    62   30   31 2    
    63   30   32 1    
    64   32   33 1    
    65   32   34 1    
    66   32  155 1    
    67   33  156 1    
    68   33  157 1    
    69   33  158 1    
    70   34   35 am   BACKBONE|DICT|INTERRES
    71   34  159 1    
    72   35   36 2    
    73   35   37 1    
    74   37   38 1    
    75   37   39 1    
    76   37  160 1    
    77   38  161 1    
    78   38  162 1    
    79   38  163 1    
    80   39   40 am   BACKBONE|DICT|INTERRES
    81   39  164 1    
    82   40   41 2    
    83   40   42 1    
    84   42   43 1    
    85   42   44 1    
    86   42  165 1    
    87   43  166 1    
    88   43  167 1    
    89   43  168 1    
    90   44   45 am   BACKBONE|DICT|INTERRES
    91   44  169 1    
    92   45   46 2    
    93   45   47 1    
    94   47   48 1    
    95   47   49 1    
    96   47  170 1    
    97   48  171 1    
    98   48  172 1    
    99   48  173 1    
   100   49   50 am   BACKBONE|DICT|INTERRES
   101   49  174 1    
   102   50   51 2    
   103   50   52 1    
   104   52   53 1    
   105   52   54 1    
   106   52  175 1    
   107   53  176 1    
   108   53  177 1    
   109   53  178 1    
   110   54   55 am   BACKBONE|DICT|INTERRES
   111   54  179 1    
   112   55   56 2    
   113   55   57 1    
   114   57   58 1    
   115   57   59 1    
   116   57  180 1    
   117   58  181 1    
   118   58  182 1    
   119   58  183 1    
   120   59   60 am   BACKBONE|DICT|INTERRES
   121   59  184 1    
   122   60   61 2    
   123   60   62 1    
   124   62   63 1    
   125   62   64 1    
   126   62  185 1    
   127   63  186 1    
   128   63  187 1    
   129   63  188 1    
   130   64   65 am   BACKBONE|DICT|INTERRES
   131   64  189 1    
   132   65   66 2    
   133   67   68 2    
   134   67   69 am   BACKBONE|DICT|INTERRES
   135   69   70 1    
   136   69  190 1    
   137   70   71 1    
   138   70   72 1    
   139   70  191 1    
   140   71  192 1    
   141   71  193 1    
   142   71  194 1    
   143   72   73 2    
   144   72   74 am   BACKBONE|DICT|INTERRES
   145   74   75 1    
   146   74  195 1    
   147   75   76 1    
   148   75   77 1    
   149   75  196 1    
   150   76  197 1    
   151   76  198 1    
   152   76  199 1    
   153   77   78 2    
   154   77   79 am   BACKBONE|DICT|INTERRES
   155   79   80 1    
   156   79  200 1    
   157   80   81 1    
   158   80   82 1    
   159   80  201 1    
   160   81  202 1    
   161   81  203 1    
   162   81  204 1    
   163   82   83 2    
   164   82   84 am   BACKBONE|DICT|INTERRES
   165   84   85 1    
   166   84  205 1    
   167   85   86 1    
   168   85   87 1    
   169   85  206 1    
   170   86  207 1    
   171   86  208 1    
   172   86  209 1    
   173   87   88 2    
   174   87   89 am   BACKBONE|DICT|INTERRES
   175   89   90 1    
   176   89  210 1    
   177   90   91 1    
   178   90   92 1    
   179   90  211 1    
   180   91  212 1    
   181   91  213 1    
   182   91  214 1    
   183   92   93 2    
   184   92   94 am   BACKBONE|DICT|INTERRES
   185   94   95 1    
   186   94  215 1    
   187   95   96 1    
   188   95   97 1    
   189   95  216 1    
   190   96  217 1    
   191   96  218 1    
   192   96  219 1    
   193   97   98 2    
   194   97   99 am   BACKBONE|DICT|INTERRES
   195   99  100 1    
   196   99  220 1    
   197  100  101 1    
   198  100  102 1    
   199  100  221 1    
   200  101  222 1    
   201  101  223 1    
   202  101  224 1    
   203  102  103 2    
   204  102  104 am   BACKBONE|DICT|INTERRES
   205  104  105 1    
   206  104  225 1    
   207  105  106 1    
   208  105  107 1    
   209  105  226 1    
   210  106  227 1    
   211  106  228 1    
   212  106  229 1    
   213  107  108 2    
   214  107  109 am   BACKBONE|DICT|INTERRES
   215  109  110 1    
   216  109  230 1    
   217  110  111 1    
   218  110  112 1    
   219  110  231 1    
   220  111  232 1    
   221  111  233 1    
   222  111  234 1    
   223  112  113 2    
   224  112  114 am   BACKBONE|DICT|INTERRES
   225  114  115 1    
   226  114  235 1    
   227  115  116 1    
   228  115  117 1    
   229  115  236 1    
   230  116  237 1    
   231  116  238 1    
   232  116  239 1    
   233  117  118 2    
   234  117  119 am   BACKBONE|DICT|INTERRES
   235  119  120 1    
   236  119  240 1    
   237  120  121 1    
   238  120  124 1    
   239  120  241 1    
   240  121  122 am   BACKBONE|DICT|INTERRES
   241  121  123 2    
   242  122  242 1    
   243  122  243 1    
   244  124  125 1    
   245  124  244 1    
   246  124  245 1    
   247  125  126 1    
   248  126  246 1    
   249  126  247 1    
@<TRIPOS>SUBSTRUCTURE
     1 UNK         1 GROUP             0       ****    0 ROOT    
