@<TRIPOS>MOLECULE
3R540
247   249    1
SMALL
USER_CHARGES


@<TRIPOS>ATOM
      1 CA          2.4655  -11.0194  -44.6252 C.3       0 UNK        -0.1800 
      2 C           1.4713  -12.1662  -44.5270 C.2       0 UNK         0.5000 
      3 O           1.3694  -12.8035  -43.4789 O.2       0 UNK        -0.5000 
      4 N           0.7361  -12.4233  -45.6162 N.am      1 UNK        -0.5000 
      5 CA         -0.2083  -13.5381  -45.7802 C.3       1 UNK         0.1400 
      6 C6         -0.7815  -13.5729  -47.2210 C.3       23 UNK        -0.0398 
      7 S7         -1.0301  -15.2726  -47.8269 S.3       23 UNK        -0.2404 
      8 C8         -0.0870  -15.2414  -49.3843 C.3       23 UNK        -0.0205 
      9 C9         -0.1440  -16.5768  -50.1128 C.ar      23 UNK        -0.0193 
     10 C10        -1.3454  -17.0139  -50.6774 C.ar      23 UNK        -0.1150 
     11 C11        -1.4077  -18.2298  -51.3616 C.ar      23 UNK        -0.0193 
     12 C12        -0.2493  -18.9986  -51.5079 C.ar      23 UNK        -0.1150 
     13 C13         0.9625  -18.5698  -50.9573 C.ar      23 UNK        -0.0193 
     14 C14         1.0052  -17.3624  -50.2508 C.ar      23 UNK        -0.1150 
     15 C15         2.2362  -19.3829  -51.1640 C.3       23 UNK        -0.0205 
     16 S16         2.1427  -21.0762  -50.4938 S.3       23 UNK        -0.2404 
     17 C17         1.9956  -20.7625  -48.7012 C.3       23 UNK        -0.0398 
     18 CA          0.9289  -21.6404  -48.0009 C.3       11 UNK         0.1400 
     19 N           0.9943  -21.5063  -46.5431 N.am      11 UNK        -0.5000 
     20 C           0.3564  -22.2975  -45.6684 C.2       10 UNK         0.5000 
     21 O          -0.2813  -23.3001  -45.9898 O.2       10 UNK        -0.5000 
     22 CA          0.4252  -21.8950  -44.1836 C.3       10 UNK         0.1400 
     23 CB          1.6752  -22.4939  -43.5217 C.3       10 UNK        -0.1800 
     24 N           0.4096  -20.4445  -43.9822 N.am      10 UNK        -0.5000 
     25 C          -0.6372  -19.6489  -44.2456 C.2       9 UNK         0.5000 
     26 O          -1.7276  -20.0663  -44.6361 O.2       9 UNK        -0.5000 
     27 CA         -0.4174  -18.1299  -44.0965 C.3       9 UNK         0.1400 
     28 CB         -0.5587  -17.6876  -42.6351 C.3       9 UNK        -0.1800 
     29 N           0.8786  -17.6876  -44.6115 N.am      9 UNK        -0.5000 
     30 C           1.2538  -17.7985  -45.8931 C.2       8 UNK         0.5000 
     31 O           0.5404  -18.2713  -46.7762 O.2       8 UNK        -0.5000 
     32 CA          2.6948  -17.3794  -46.2249 C.3       8 UNK         0.1400 
     33 CB          2.8218  -15.8531  -46.3341 C.3       8 UNK        -0.1800 
     34 N           3.6405  -17.8860  -45.2302 N.am      8 UNK        -0.5000 
     35 C           3.9629  -19.1802  -45.0931 C.2       7 UNK         0.5000 
     36 O           3.5213  -20.0729  -45.8154 O.2       7 UNK        -0.5000 
     37 CA          4.9062  -19.5438  -43.9320 C.3       7 UNK         0.1400 
     38 CB          6.3720  -19.3330  -44.3391 C.3       7 UNK        -0.1800 
     39 N           4.6265  -18.7838  -42.7132 N.am      7 UNK        -0.5000 
     40 C           3.4958  -18.8826  -41.9998 C.2       6 UNK         0.5000 
     41 O           2.5734  -19.6443  -42.2830 O.2       6 UNK        -0.5000 
     42 CA          3.3496  -17.9375  -40.7939 C.3       6 UNK         0.1400 
     43 CB          3.9481  -18.5754  -39.5317 C.3       6 UNK        -0.1800 
     44 N           3.9545  -16.6203  -41.0075 N.am      6 UNK        -0.5000 
     45 C           3.5827  -15.7600  -41.9633 C.2       5 UNK         0.5000 
     46 O           2.7027  -15.9974  -42.7953 O.2       5 UNK        -0.5000 
     47 CA          4.3012  -14.4057  -41.9758 C.3       5 UNK         0.1400 
     48 CB          4.8192  -14.0575  -43.3808 C.3       5 UNK        -0.1800 
     49 N           3.3306  -13.4064  -41.5586 N.am      5 UNK        -0.5000 
     50 C           3.3259  -12.7568  -40.3892 C.2       4 UNK         0.5000 
     51 O           4.2306  -12.8282  -39.5566 O.2       4 UNK        -0.5000 
     52 CA          2.0706  -11.9219  -40.0828 C.3       4 UNK         0.1400 
     53 CB          2.1324  -10.5474  -40.7639 C.3       4 UNK        -0.1800 
     54 N           0.8617  -12.6302  -40.5075 N.am      4 UNK        -0.5000 
     55 C           0.2349  -13.5491  -39.7611 C.2       3 UNK         0.5000 
     56 O           0.5726  -13.8207  -38.6073 O.2       3 UNK        -0.5000 
     57 CA         -0.9374  -14.3227  -40.4038 C.3       3 UNK         0.1400 
     58 CB         -2.0531  -14.6514  -39.3899 C.3       3 UNK        -0.1800 
     59 N          -1.5043  -13.7130  -41.6133 N.am      3 UNK        -0.5000 
     60 C          -2.1354  -12.5364  -41.7311 C.2       2 UNK         0.5000 
     61 O          -2.2758  -11.7424  -40.7996 O.2       2 UNK        -0.5000 
     62 CA         -2.6966  -12.1959  -43.1328 C.3       2 UNK         0.1400 
     63 CB         -3.2314  -10.7551  -43.2232 C.3       2 UNK        -0.1800 
     64 N          -1.7153  -12.3939  -44.2026 N.am      2 UNK        -0.5000 
     65 C          -1.3360  -13.5701  -44.7223 C.2       1 UNK         0.5000 
     66 O          -1.8044  -14.6496  -44.3590 O.2       1 UNK        -0.5000 
     67 C          -0.4987  -21.3718  -48.5234 C.2       11 UNK         0.5000 
     68 O          -0.9854  -22.1278  -49.3638 O.2       11 UNK        -0.5000 
     69 N          -1.1525  -20.3293  -47.9926 N.am      12 UNK        -0.5000 
     70 CA         -2.5355  -19.9883  -48.3073 C.3       12 UNK         0.1400 
     71 CB         -2.8729  -18.6002  -47.7470 C.3       12 UNK        -0.1800 
     72 C          -3.5355  -21.0370  -47.8014 C.2       12 UNK         0.5000 
     73 O          -4.3457  -21.5234  -48.5913 O.2       12 UNK        -0.5000 
     74 N          -3.4769  -21.3437  -46.4969 N.am      13 UNK        -0.5000 
     75 CA         -4.3879  -22.2156  -45.7503 C.3       13 UNK         0.1400 
     76 CB         -4.1751  -23.6924  -46.1498 C.3       13 UNK        -0.1800 
     77 C          -5.8506  -21.7358  -45.8773 C.2       13 UNK         0.5000 
     78 O          -6.2262  -20.7603  -45.2266 O.2       13 UNK        -0.5000 
     79 N          -6.6312  -22.3945  -46.7438 N.am      14 UNK        -0.5000 
     80 CA         -8.0012  -22.0272  -47.1155 C.3       14 UNK         0.1400 
     81 CB         -8.7077  -23.2902  -47.6370 C.3       14 UNK        -0.1800 
     82 C          -8.0775  -20.8913  -48.1635 C.2       14 UNK         0.5000 
     83 O          -9.1811  -20.5274  -48.5702 O.2       14 UNK        -0.5000 
     84 N          -6.9159  -20.3843  -48.6027 N.am      15 UNK        -0.5000 
     85 CA         -6.6813  -19.4450  -49.7063 C.3       15 UNK         0.1400 
     86 CB         -7.4594  -18.1246  -49.5304 C.3       15 UNK        -0.1800 
     87 C          -6.8800  -20.1059  -51.0858 C.2       15 UNK         0.5000 
     88 O          -7.2124  -19.4225  -52.0544 O.2       15 UNK        -0.5000 
     89 N          -6.6450  -21.4226  -51.1397 N.am      16 UNK        -0.5000 
     90 CA         -6.7380  -22.3046  -52.2996 C.3       16 UNK         0.1400 
     91 CB         -8.1670  -22.3249  -52.8858 C.3       16 UNK        -0.1800 
     92 C          -6.2718  -23.6958  -51.8432 C.2       16 UNK         0.5000 
     93 O          -7.0695  -24.6336  -51.7887 O.2       16 UNK        -0.5000 
     94 N          -4.9985  -23.7874  -51.4400 N.am      17 UNK        -0.5000 
     95 CA         -4.4014  -25.0024  -50.8790 C.3       17 UNK         0.1400 
     96 CB         -3.1249  -24.6307  -50.1116 C.3       17 UNK        -0.1800 
     97 C          -4.0960  -26.0752  -51.9410 C.2       17 UNK         0.5000 
     98 O          -4.1198  -27.2655  -51.6249 O.2       17 UNK        -0.5000 
     99 N          -3.8178  -25.6384  -53.1730 N.am      18 UNK        -0.5000 
    100 CA        -3.4865  -26.4574  -54.3349 C.3       18 UNK         0.1400 
    101 CB        -2.0642  -27.0358  -54.1910 C.3       18 UNK        -0.1800 
    102 C         -3.5811  -25.5685  -55.5814 C.2       18 UNK         0.5000 
    103 O         -3.6734  -24.3461  -55.4502 O.2       18 UNK        -0.5000 
    104 N         -3.4941  -26.1686  -56.7749 N.am      19 UNK        -0.5000 
    105 CA        -3.4899  -25.4545  -58.0600 C.3       19 UNK         0.1400 
    106 CB        -3.5029  -26.4780  -59.2053 C.3       19 UNK        -0.1800 
    107 C         -2.3074  -24.4740  -58.2237 C.2       19 UNK         0.5000 
    108 O         -2.4476  -23.4557  -58.9012 O.2       19 UNK        -0.5000 
    109 N         -1.1802  -24.7863  -57.5710 N.am      20 UNK        -0.5000 
    110 CA         0.0156  -23.9454  -57.4929 C.3       20 UNK         0.1400 
    111 CB         1.2448  -24.8659  -57.4110 C.3       20 UNK        -0.1800 
    112 C         -0.0081  -22.9678  -56.2968 C.2       20 UNK         0.5000 
    113 O          0.9219  -22.1720  -56.1600 O.2       20 UNK        -0.5000 
    114 N         -1.0392  -23.0456  -55.4454 N.am      21 UNK        -0.5000 
    115 CA        -1.1900  -22.2723  -54.2159 C.3       21 UNK         0.1400 
    116 CB        -0.8172  -23.1519  -53.0109 C.3       21 UNK        -0.1800 
    117 C         -2.6180  -21.7105  -54.1422 C.2       21 UNK         0.5000 
    118 O         -3.3739  -22.0290  -53.2216 O.2       21 UNK        -0.5000 
    119 N         -2.9486  -20.8877  -55.1436 N.am      22 UNK        -0.5000 
    120 CA        -4.1813  -20.0902  -55.2819 C.3       22 UNK         0.1400 
    121 C         -5.4612  -20.8729  -55.7018 C.2       22 UNK         0.5000 
    122 N         -5.4342  -22.1871  -55.8753 N.am      22 UNK        -0.7600 
    123 O         -6.5060  -20.2646  -55.9151 O.2       22 UNK        -0.5000 
    124 C124       -4.4610  -19.1518  -54.0729 C.3       23 UNK        -0.0398 
    125 S125       -3.0314  -18.1151  -53.6018 S.3       23 UNK        -0.2404 
    126 C126       -2.7315  -18.7263  -51.9161 C.3       23 UNK        -0.0205 
    127 H127        2.0396  -10.1135  -44.1946 H         1 UNK         0.0600 
    128 H128        2.7356  -10.8124  -45.6609 H         1 UNK         0.0600 
    129 H129        3.3787  -11.2635  -44.0820 H         1 UNK         0.0600 
    130 H130        0.8636  -11.8388  -46.4299 H         1 UNK         0.3000 
    131 H131        0.3800  -14.4423  -45.6163 H         1 UNK         0.0600 
    132 H132       -1.7218  -13.0237  -47.2995 H         1 UNK         0.0800 
    133 H133       -0.1005  -13.0712  -47.9098 H         1 UNK         0.0800 
    134 H134        0.9468  -14.9635  -49.1753 H         1 UNK         0.0800 
    135 H135       -0.4916  -14.4648  -50.0350 H         1 UNK         0.0800 
    136 H136       -2.2368  -16.4121  -50.5688 H         1 UNK         0.1150 
    137 H137       -0.2902  -19.9356  -52.0450 H         1 UNK         0.1150 
    138 H138        1.9381  -17.0233  -49.8234 H         1 UNK         0.1150 
    139 H139        2.4377  -19.4443  -52.2342 H         1 UNK         0.0800 
    140 H140        3.0962  -18.8775  -50.7217 H         1 UNK         0.0800 
    141 H141        1.7965  -19.7061  -48.5253 H         1 UNK         0.0800 
    142 H142        2.9750  -20.9583  -48.2639 H         1 UNK         0.0800 
    143 H143        1.1623  -22.6824  -48.2305 H         1 UNK         0.0600 
    144 H144        1.5489  -20.7366  -46.1872 H         1 UNK         0.3000 
    145 H145       -0.4539  -22.3117  -43.6876 H         1 UNK         0.0600 
    146 H146        1.6874  -22.2939  -42.4502 H         1 UNK         0.0600 
    147 H147        1.7061  -23.5765  -43.6503 H         1 UNK         0.0600 
    148 H148        2.5912  -22.0848  -43.9494 H         1 UNK         0.0600 
    149 H149        1.2533  -20.0338  -43.5909 H         1 UNK         0.3000 
    150 H150       -1.1913  -17.6244  -44.6786 H         1 UNK         0.0600 
    151 H151       -1.5384  -17.9546  -42.2372 H         1 UNK         0.0600 
    152 H152       -0.4553  -16.6067  -42.5558 H         1 UNK         0.0600 
    153 H153        0.1963  -18.1473  -41.9972 H         1 UNK         0.0600 
    154 H154        1.5229  -17.2715  -43.9474 H         1 UNK         0.3000 
    155 H155        2.9539  -17.8086  -47.1953 H         1 UNK         0.0600 
    156 H156        2.5666  -15.3586  -45.3973 H         1 UNK         0.0600 
    157 H157        2.1552  -15.4626  -47.1030 H         1 UNK         0.0600 
    158 H158        3.8361  -15.5586  -46.6031 H         1 UNK         0.0600 
    159 H159        3.9932  -17.2214  -44.5573 H         1 UNK         0.3000 
    160 H160        4.7632  -20.6032  -43.7087 H         1 UNK         0.0600 
    161 H161        6.5868  -18.2842  -44.5482 H         1 UNK         0.0600 
    162 H162        6.6129  -19.9031  -45.2374 H         1 UNK         0.0600 
    163 H163        7.0510  -19.6650  -43.5535 H         1 UNK         0.0600 
    164 H164        5.3321  -18.1299  -42.4082 H         1 UNK         0.3000 
    165 H165        2.2816  -17.7863  -40.6245 H         1 UNK         0.0600 
    166 H166        3.7675  -17.9560  -38.6530 H         1 UNK         0.0600 
    167 H167        3.4998  -19.5508  -39.3374 H         1 UNK         0.0600 
    168 H168        5.0249  -18.7216  -39.6252 H         1 UNK         0.0600 
    169 H169        4.6718  -16.3442  -40.3523 H         1 UNK         0.3000 
    170 H170        5.1532  -14.4380  -41.2936 H         1 UNK         0.0600 
    171 H171        5.5092  -14.8197  -43.7444 H         1 UNK         0.0600 
    172 H172        4.0085  -13.9736  -44.1044 H         1 UNK         0.0600 
    173 H173        5.3548  -13.1083  -43.3745 H         1 UNK         0.0600 
    174 H174        2.5314  -13.2972  -42.1810 H         1 UNK         0.3000 
    175 H175        2.0339  -11.7530  -39.0044 H         1 UNK         0.0600 
    176 H176        2.1724  -10.6354  -41.8476 H         1 UNK         0.0600 
    177 H177        1.2614   -9.9434  -40.5094 H         1 UNK         0.0600 
    178 H178        3.0174   -9.9947  -40.4464 H         1 UNK         0.0600 
    179 H179        0.5734  -12.5084  -41.4706 H         1 UNK         0.3000 
    180 H180       -0.5057  -15.2708  -40.7215 H         1 UNK         0.0600 
    181 H181       -2.4932  -13.7486  -38.9656 H         1 UNK         0.0600 
    182 H182       -1.6697  -15.2477  -38.5611 H         1 UNK         0.0600 
    183 H183       -2.8521  -15.2277  -39.8564 H         1 UNK         0.0600 
    184 H184       -1.4411  -14.2727  -42.4585 H         1 UNK         0.3000 
    185 H185       -3.5372  -12.8707  -43.3070 H         1 UNK         0.0600 
    186 H186       -3.6621  -10.5549  -44.2045 H         1 UNK         0.0600 
    187 H187       -4.0165  -10.5801  -42.4864 H         1 UNK         0.0600 
    188 H188       -2.4435  -10.0219  -43.0462 H         1 UNK         0.0600 
    189 H189       -1.2388  -11.5648  -44.5259 H         1 UNK         0.3000 
    190 H190       -0.6583  -19.7119  -47.3548 H         1 UNK         0.3000 
    191 H191       -2.6284  -19.9477  -49.3924 H         1 UNK         0.0600 
    192 H192       -2.7726  -18.5596  -46.6623 H         1 UNK         0.0600 
    193 H193       -3.8939  -18.3101  -47.9965 H         1 UNK         0.0600 
    194 H194       -2.2090  -17.8479  -48.1650 H         1 UNK         0.0600 
    195 H195       -2.7878  -20.8594  -45.9241 H         1 UNK         0.3000 
    196 H196       -4.1172  -22.1158  -44.6982 H         1 UNK         0.0600 
    197 H197       -4.3811  -23.8756  -47.2038 H         1 UNK         0.0600 
    198 H198       -3.1457  -23.9982  -45.9615 H         1 UNK         0.0600 
    199 H199       -4.8189  -24.3518  -45.5664 H         1 UNK         0.0600 
    200 H200       -6.2212  -23.1637  -47.2536 H         1 UNK         0.3000 
    201 H201       -8.5287  -21.6826  -46.2238 H         1 UNK         0.0600 
    202 H202       -8.2371  -23.6682  -48.5458 H         1 UNK         0.0600 
    203 H203       -9.7543  -23.0891  -47.8692 H         1 UNK         0.0600 
    204 H204       -8.6915  -24.0873  -46.8934 H         1 UNK         0.0600 
    205 H205       -6.0678  -20.8114  -48.2420 H         1 UNK         0.3000 
    206 H206       -5.6209  -19.1953  -49.6563 H         1 UNK         0.0600 
    207 H207       -8.5301  -18.2573  -49.6859 H         1 UNK         0.0600 
    208 H208       -7.3111  -17.7083  -48.5341 H         1 UNK         0.0600 
    209 H209       -7.1200  -17.3769  -50.2480 H         1 UNK         0.0600 
    210 H210       -6.3310  -21.8746  -50.2909 H         1 UNK         0.3000 
    211 H211       -6.0463  -21.9534  -53.0642 H         1 UNK         0.0600 
    212 H212       -8.4383  -21.3629  -53.3194 H         1 UNK         0.0600 
    213 H213       -8.9094  -22.5735  -52.1266 H         1 UNK         0.0600 
    214 H214       -8.2493  -23.0627  -53.6848 H         1 UNK         0.0600 
    215 H215       -4.3815  -22.9943  -51.5797 H         1 UNK         0.3000 
    216 H216       -5.1059  -25.4352  -50.1655 H         1 UNK         0.0600 
    217 H217       -2.3769  -24.1845  -50.7655 H         1 UNK         0.0600 
    218 H218       -2.6745  -25.5089  -49.6479 H         1 UNK         0.0600 
    219 H219       -3.3326  -23.9154  -49.3175 H         1 UNK         0.0600 
    220 H220       -3.8607  -24.6443  -53.3681 H         1 UNK         0.3000 
    221 H221       -4.2153  -27.2649  -54.4259 H         1 UNK         0.0600 
    222 H222       -1.9750  -27.6643  -53.3051 H         1 UNK         0.0600 
    223 H223       -1.3150  -26.2468  -54.1149 H         1 UNK         0.0600 
    224 H224       -1.8005  -27.6575  -55.0471 H         1 UNK         0.0600 
    225 H225       -3.4144  -27.1746  -56.8177 H         1 UNK         0.3000 
    226 H226       -4.4087  -24.8669  -58.1161 H         1 UNK         0.0600 
    227 H227       -4.3829  -27.1192  -59.1519 H         1 UNK         0.0600 
    228 H228       -3.5249  -25.9790  -60.1751 H         1 UNK         0.0600 
    229 H229       -2.6189  -27.1166  -59.1846 H         1 UNK         0.0600 
    230 H230       -1.1574  -25.6483  -57.0465 H         1 UNK         0.3000 
    231 H231        0.1005  -23.3460  -58.4017 H         1 UNK         0.0600 
    232 H232        1.2297  -25.4780  -56.5084 H         1 UNK         0.0600 
    233 H233        2.1697  -24.2876  -57.4002 H         1 UNK         0.0600 
    234 H234        1.2940  -25.5351  -58.2703 H         1 UNK         0.0600 
    235 H235       -1.8146  -23.6627  -55.6609 H         1 UNK         0.3000 
    236 H236       -0.5202  -21.4099  -54.2206 H         1 UNK         0.0600 
    237 H237       -1.4403  -24.0438  -52.9581 H         1 UNK         0.0600 
    238 H238        0.2229  -23.4730  -53.0651 H         1 UNK         0.0600 
    239 H239       -0.9380  -22.6036  -52.0760 H         1 UNK         0.0600 
    240 H240       -2.2667  -20.7434  -55.8738 H         1 UNK         0.3000 
    241 H241       -3.9804  -19.4413  -56.1349 H         1 UNK         0.0600 
    242 H242       -4.6035  -22.7411  -55.6879 H         1 UNK         0.3800 
    243 H243       -6.2749  -22.6522  -56.1745 H         1 UNK         0.3800 
    244 H244       -4.7846  -19.7401  -53.2147 H         1 UNK         0.0800 
    245 H245       -5.2903  -18.4791  -54.2979 H         1 UNK         0.0800 
    246 H246       -3.5511  -18.4080  -51.2701 H         1 UNK         0.0800 
    247 H247       -2.7413  -19.8161  -51.9047 H         1 UNK         0.0800 
@<TRIPOS>BOND
     1    1    2 1    
     2    1  127 1    
     3    1  128 1    
     4    1  129 1    
     5    2    3 2    
     6    2    4 am   BACKBONE|DICT|INTERRES
     7    4    5 1    
     8    4  130 1    
     9    5    6 1    
    10    5   65 1    
    11    5  131 1    
    12    6    7 1    
    13    6  132 1    
    14    6  133 1    
    15    7    8 1    
    16    8    9 1    
    17    8  134 1    
    18    8  135 1    
    19    9   10 ar   
    20    9   14 ar   
    21   10   11 ar   
    22   10  136 1    
    23   11   12 ar   
    24   11  126 1    
    25   12   13 ar   
    26   12  137 1    
    27   13   14 ar   
    28   13   15 1    
    29   14  138 1    
    30   15   16 1    
    31   15  139 1    
    32   15  140 1    
    33   16   17 1    
    34   17   18 1    
    35   17  141 1    
    36   17  142 1    
    37   18   19 1    
    38   18   67 1    
    39   18  143 1    
    40   19   20 am   BACKBONE|DICT|INTERRES
    41   19  144 1    
    42   20   21 2    
    43   20   22 1    
    44   22   23 1    
    45   22   24 1    
    46   22  145 1    
    47   23  146 1    
    48   23  147 1    
    49   23  148 1    
    50   24   25 am   BACKBONE|DICT|INTERRES
    51   24  149 1    
    52   25   26 2    
    53   25   27 1    
    54   27   28 1    
    55   27   29 1    
    56   27  150 1    
    57   28  151 1    
    58   28  152 1    
    59   28  153 1    
    60   29   30 am   BACKBONE|DICT|INTERRES
    61   29  154 1    
    62   30   31 2    
    63   30   32 1    
    64   32   33 1    
    65   32   34 1    
    66   32  155 1    
    67   33  156 1    
    68   33  157 1    
    69   33  158 1    
    70   34   35 am   BACKBONE|DICT|INTERRES
    71   34  159 1    
    72   35   36 2    
    73   35   37 1    
    74   37   38 1    
    75   37   39 1    
    76   37  160 1    
    77   38  161 1    
    78   38  162 1    
    79   38  163 1    
    80   39   40 am   BACKBONE|DICT|INTERRES
    81   39  164 1    
    82   40   41 2    
    83   40   42 1    
    84   42   43 1    
    85   42   44 1    
    86   42  165 1    
    87   43  166 1    
    88   43  167 1    
    89   43  168 1    
    90   44   45 am   BACKBONE|DICT|INTERRES
    91   44  169 1    
    92   45   46 2    
    93   45   47 1    
    94   47   48 1    
    95   47   49 1    
    96   47  170 1    
    97   48  171 1    
    98   48  172 1    
    99   48  173 1    
   100   49   50 am   BACKBONE|DICT|INTERRES
   101   49  174 1    
   102   50   51 2    
   103   50   52 1    
   104   52   53 1    
   105   52   54 1    
   106   52  175 1    
   107   53  176 1    
   108   53  177 1    
   109   53  178 1    
   110   54   55 am   BACKBONE|DICT|INTERRES
   111   54  179 1    
   112   55   56 2    
   113   55   57 1    
   114   57   58 1    
   115   57   59 1    
   116   57  180 1    
   117   58  181 1    
   118   58  182 1    
   119   58  183 1    
   120   59   60 am   BACKBONE|DICT|INTERRES
   121   59  184 1    
   122   60   61 2    
   123   60   62 1    
   124   62   63 1    
   125   62   64 1    
   126   62  185 1    
   127   63  186 1    
   128   63  187 1    
   129   63  188 1    
   130   64   65 am   BACKBONE|DICT|INTERRES
   131   64  189 1    
   132   65   66 2    
   133   67   68 2    
   134   67   69 am   BACKBONE|DICT|INTERRES
   135   69   70 1    
   136   69  190 1    
   137   70   71 1    
   138   70   72 1    
   139   70  191 1    
   140   71  192 1    
   141   71  193 1    
   142   71  194 1    
   143   72   73 2    
   144   72   74 am   BACKBONE|DICT|INTERRES
   145   74   75 1    
   146   74  195 1    
   147   75   76 1    
   148   75   77 1    
   149   75  196 1    
   150   76  197 1    
   151   76  198 1    
   152   76  199 1    
   153   77   78 2    
   154   77   79 am   BACKBONE|DICT|INTERRES
   155   79   80 1    
   156   79  200 1    
   157   80   81 1    
   158   80   82 1    
   159   80  201 1    
   160   81  202 1    
   161   81  203 1    
   162   81  204 1    
   163   82   83 2    
   164   82   84 am   BACKBONE|DICT|INTERRES
   165   84   85 1    
   166   84  205 1    
   167   85   86 1    
   168   85   87 1    
   169   85  206 1    
   170   86  207 1    
   171   86  208 1    
   172   86  209 1    
   173   87   88 2    
   174   87   89 am   BACKBONE|DICT|INTERRES
   175   89   90 1    
   176   89  210 1    
   177   90   91 1    
   178   90   92 1    
   179   90  211 1    
   180   91  212 1    
   181   91  213 1    
   182   91  214 1    
   183   92   93 2    
   184   92   94 am   BACKBONE|DICT|INTERRES
   185   94   95 1    
   186   94  215 1    
   187   95   96 1    
   188   95   97 1    
   189   95  216 1    
   190   96  217 1    
   191   96  218 1    
   192   96  219 1    
   193   97   98 2    
   194   97   99 am   BACKBONE|DICT|INTERRES
   195   99  100 1    
   196   99  220 1    
   197  100  101 1    
   198  100  102 1    
   199  100  221 1    
   200  101  222 1    
   201  101  223 1    
   202  101  224 1    
   203  102  103 2    
   204  102  104 am   BACKBONE|DICT|INTERRES
   205  104  105 1    
   206  104  225 1    
   207  105  106 1    
   208  105  107 1    
   209  105  226 1    
   210  106  227 1    
   211  106  228 1    
   212  106  229 1    
   213  107  108 2    
   214  107  109 am   BACKBONE|DICT|INTERRES
   215  109  110 1    
   216  109  230 1    
   217  110  111 1    
   218  110  112 1    
   219  110  231 1    
   220  111  232 1    
   221  111  233 1    
   222  111  234 1    
   223  112  113 2    
   224  112  114 am   BACKBONE|DICT|INTERRES
   225  114  115 1    
   226  114  235 1    
   227  115  116 1    
   228  115  117 1    
   229  115  236 1    
   230  116  237 1    
   231  116  238 1    
   232  116  239 1    
   233  117  118 2    
   234  117  119 am   BACKBONE|DICT|INTERRES
   235  119  120 1    
   236  119  240 1    
   237  120  121 1    
   238  120  124 1    
   239  120  241 1    
   240  121  122 am   BACKBONE|DICT|INTERRES
   241  121  123 2    
   242  122  242 1    
   243  122  243 1    
   244  124  125 1    
   245  124  244 1    
   246  124  245 1    
   247  125  126 1    
   248  126  246 1    
   249  126  247 1    
@<TRIPOS>SUBSTRUCTURE
     1 UNK         1 GROUP             0       ****    0 ROOT    
