@<TRIPOS>MOLECULE
3R540
247   249    1
SMALL
USER_CHARGES


@<TRIPOS>ATOM
      1 CA         -2.1414  -12.6614  -44.9133 C.3       0 UNK        -0.1800 
      2 C          -1.2851  -13.1908  -46.0547 C.2       0 UNK         0.5000 
      3 O          -1.0805  -14.3988  -46.1606 O.2       0 UNK        -0.5000 
      4 N          -0.7866  -12.2850  -46.9078 N.am      1 UNK        -0.5000 
      5 CA          0.0634  -12.5662  -48.0762 C.3       1 UNK         0.1400 
      6 C6         -0.6224  -13.5052  -49.1142 C.3       23 UNK        -0.0398 
      7 S7         -0.5037  -12.9012  -50.8360 S.3       23 UNK        -0.2404 
      8 C8          0.7889  -13.9565  -51.5742 C.3       23 UNK        -0.0205 
      9 C9          0.4933  -15.4434  -51.4368 C.ar      23 UNK        -0.0193 
     10 C10        -0.6166  -16.0093  -52.0714 C.ar      23 UNK        -0.1150 
     11 C11        -0.9041  -17.3687  -51.9173 C.ar      23 UNK        -0.0193 
     12 C12        -0.0686  -18.1643  -51.1286 C.ar      23 UNK        -0.1150 
     13 C13         1.0478  -17.6106  -50.4953 C.ar      23 UNK        -0.0193 
     14 C14         1.3270  -16.2520  -50.6591 C.ar      23 UNK        -0.1150 
     15 C15         1.9412  -18.4758  -49.6186 C.3       23 UNK        -0.0205 
     16 S16         1.7918  -18.0664  -47.8477 S.3       23 UNK        -0.2404 
     17 C17         0.0163  -18.3472  -47.5364 C.3       23 UNK        -0.0398 
     18 CA         -0.3209  -19.8352  -47.2810 C.3       11 UNK         0.1400 
     19 N           0.2056  -20.3290  -46.0037 N.am      11 UNK        -0.5000 
     20 C           0.1607  -21.6064  -45.5988 C.2       10 UNK         0.5000 
     21 O          -0.2728  -22.5258  -46.2921 O.2       10 UNK        -0.5000 
     22 CA          0.6199  -21.9041  -44.1588 C.3       10 UNK         0.1400 
     23 CB          2.1495  -22.0102  -44.0700 C.3       10 UNK        -0.1800 
     24 N           0.1260  -20.9154  -43.1985 N.am      10 UNK        -0.5000 
     25 C          -1.1705  -20.7364  -42.9055 C.2       9 UNK         0.5000 
     26 O          -2.0754  -21.4279  -43.3715 O.2       9 UNK        -0.5000 
     27 CA         -1.5264  -19.5619  -41.9761 C.3       9 UNK         0.1400 
     28 CB         -1.3398  -19.9528  -40.5029 C.3       9 UNK        -0.1800 
     29 N          -0.7544  -18.3550  -42.2710 N.am      9 UNK        -0.5000 
     30 C          -0.8141  -17.6779  -43.4269 C.2       8 UNK         0.5000 
     31 O          -1.5791  -17.9669  -44.3465 O.2       8 UNK        -0.5000 
     32 CA          0.1889  -16.5235  -43.6074 C.3       8 UNK         0.1400 
     33 CB         -0.3100  -15.2511  -42.9090 C.3       8 UNK        -0.1800 
     34 N           1.5277  -16.8601  -43.1205 N.am      8 UNK        -0.5000 
     35 C           2.2845  -17.8530  -43.6087 C.2       7 UNK         0.5000 
     36 O           1.9433  -18.5711  -44.5452 O.2       7 UNK        -0.5000 
     37 CA          3.6122  -18.1391  -42.8876 C.3       7 UNK         0.1400 
     38 CB          4.7191  -17.1736  -43.3333 C.3       7 UNK        -0.1800 
     39 N           3.4590  -18.0779  -41.4361 N.am      7 UNK        -0.5000 
     40 C           2.7848  -18.9823  -40.7128 C.2       6 UNK         0.5000 
     41 O           2.2686  -19.9935  -41.1892 O.2       6 UNK        -0.5000 
     42 CA          2.6278  -18.6769  -39.2123 C.3       6 UNK         0.1400 
     43 CB          3.8666  -19.1401  -38.4314 C.3       6 UNK        -0.1800 
     44 N           2.3946  -17.2539  -38.9552 N.am      6 UNK        -0.5000 
     45 C           1.2851  -16.5953  -39.3192 C.2       5 UNK         0.5000 
     46 O           0.3287  -17.1286  -39.8791 O.2       5 UNK        -0.5000 
     47 CA          1.2569  -15.0799  -39.0507 C.3       5 UNK         0.1400 
     48 CB          0.7577  -14.7940  -37.6267 C.3       5 UNK        -0.1800 
     49 N           2.5548  -14.4299  -39.2513 N.am      5 UNK        -0.5000 
     50 C           3.1962  -14.3510  -40.4242 C.2       4 UNK         0.5000 
     51 O           2.7869  -14.8616  -41.4696 O.2       4 UNK        -0.5000 
     52 CA          4.5440  -13.6224  -40.4132 C.3       4 UNK         0.1400 
     53 CB          5.6857  -14.6142  -40.1364 C.3       4 UNK        -0.1800 
     54 N           4.7662  -12.9886  -41.7104 N.am      4 UNK        -0.5000 
     55 C           5.1573  -11.7213  -41.8912 C.2       3 UNK         0.5000 
     56 O           5.3811  -10.9408  -40.9643 O.2       3 UNK        -0.5000 
     57 CA          5.3594  -11.2306  -43.3396 C.3       3 UNK         0.1400 
     58 CB          6.8550  -11.0185  -43.6266 C.3       3 UNK        -0.1800 
     59 N           4.8157  -12.1285  -44.3621 N.am      3 UNK        -0.5000 
     60 C           3.5293  -12.1826  -44.7252 C.2       2 UNK         0.5000 
     61 O           2.6321  -11.5255  -44.1898 O.2       2 UNK        -0.5000 
     62 CA          3.1995  -13.1346  -45.8832 C.3       2 UNK         0.1400 
     63 CB          3.1819  -14.5965  -45.4090 C.3       2 UNK        -0.1800 
     64 N           1.8990  -12.7813  -46.4384 N.am      2 UNK        -0.5000 
     65 C           1.4925  -13.0276  -47.6898 C.2       1 UNK         0.5000 
     66 O           2.2097  -13.5760  -48.5269 O.2       1 UNK        -0.5000 
     67 C          -1.8389  -20.0723  -47.4084 C.2       11 UNK         0.5000 
     68 O          -2.2878  -20.5508  -48.4500 O.2       11 UNK        -0.5000 
     69 N          -2.5965  -19.7748  -46.3431 N.am      12 UNK        -0.5000 
     70 CA         -4.0366  -20.0192  -46.2617 C.3       12 UNK         0.1400 
     71 CB         -4.6004  -19.3938  -44.9773 C.3       12 UNK        -0.1800 
     72 C          -4.3875  -21.5151  -46.3497 C.2       12 UNK         0.5000 
     73 O          -5.2925  -21.8784  -47.0996 O.2       12 UNK        -0.5000 
     74 N          -3.6388  -22.3585  -45.6252 N.am      13 UNK        -0.5000 
     75 CA         -3.7706  -23.8163  -45.6498 C.3       13 UNK         0.1400 
     76 CB         -2.8890  -24.4314  -44.5527 C.3       13 UNK        -0.1800 
     77 C          -3.4416  -24.4318  -47.0231 C.2       13 UNK         0.5000 
     78 O          -4.1104  -25.3802  -47.4330 O.2       13 UNK        -0.5000 
     79 N          -2.4386  -23.8743  -47.7156 N.am      14 UNK        -0.5000 
     80 CA         -2.0613  -24.2556  -49.0766 C.3       14 UNK         0.1400 
     81 CB         -0.6928  -23.6478  -49.4218 C.3       14 UNK        -0.1800 
     82 C          -3.1159  -23.8492  -50.1226 C.2       14 UNK         0.5000 
     83 O          -3.3518  -24.6053  -51.0639 O.2       14 UNK        -0.5000 
     84 N          -3.7259  -22.6699  -49.9436 N.am      15 UNK        -0.5000 
     85 CA         -4.7690  -22.1351  -50.8184 C.3       15 UNK         0.1400 
     86 CB         -4.9244  -20.6309  -50.5517 C.3       15 UNK        -0.1800 
     87 C          -6.1239  -22.8491  -50.6600 C.2       15 UNK         0.5000 
     88 O          -6.8534  -22.9819  -51.6433 O.2       15 UNK        -0.5000 
     89 N          -6.4491  -23.2646  -49.4281 N.am      16 UNK        -0.5000 
     90 CA         -7.7112  -23.8952  -49.0442 C.3       16 UNK         0.1400 
     91 CB         -7.7189  -24.1328  -47.5250 C.3       16 UNK        -0.1800 
     92 C          -7.9949  -25.2025  -49.8095 C.2       16 UNK         0.5000 
     93 O          -7.3245  -26.2091  -49.5718 O.2       16 UNK        -0.5000 
     94 N          -9.0018  -25.1514  -50.6940 N.am      17 UNK        -0.5000 
     95 CA         -9.5524  -26.2580  -51.4851 C.3       17 UNK         0.1400 
     96 CB        -10.2948  -27.2518  -50.5663 C.3       17 UNK        -0.1800 
     97 C          -8.5245  -26.9477  -52.4094 C.2       17 UNK         0.5000 
     98 O          -8.5807  -28.1665  -52.5881 O.2       17 UNK        -0.5000 
     99 N          -7.6105  -26.1622  -52.9910 N.am      18 UNK        -0.5000 
    100 CA        -6.5823  -26.6311  -53.9148 C.3       18 UNK         0.1400 
    101 CB        -5.2881  -26.9117  -53.1352 C.3       18 UNK        -0.1800 
    102 C         -6.3441  -25.5813  -55.0066 C.2       18 UNK         0.5000 
    103 O         -6.5551  -24.3875  -54.7773 O.2       18 UNK        -0.5000 
    104 N         -5.8713  -26.0405  -56.1710 N.am      19 UNK        -0.5000 
    105 CA        -5.5015  -25.2136  -57.3203 C.3       19 UNK         0.1400 
    106 CB        -5.6231  -26.0612  -58.5998 C.3       19 UNK        -0.1800 
    107 C         -4.0923  -24.6153  -57.1329 C.2       19 UNK         0.5000 
    108 O         -3.1655  -24.9566  -57.8700 O.2       19 UNK        -0.5000 
    109 N         -3.9516  -23.7548  -56.1167 N.am      20 UNK        -0.5000 
    110 CA        -2.6934  -23.1154  -55.7225 C.3       20 UNK         0.1400 
    111 CB        -2.8631  -22.5131  -54.3203 C.3       20 UNK        -0.1800 
    112 C         -2.1906  -22.0538  -56.7227 C.2       20 UNK         0.5000 
    113 O         -0.9919  -21.7719  -56.7404 O.2       20 UNK        -0.5000 
    114 N         -3.1065  -21.5079  -57.5401 N.am      21 UNK        -0.5000 
    115 CA        -2.8762  -20.5183  -58.6005 C.3       21 UNK         0.1400 
    116 CB        -2.0457  -21.1321  -59.7476 C.3       21 UNK        -0.1800 
    117 C         -2.2896  -19.1955  -58.0638 C.2       21 UNK         0.5000 
    118 O         -1.3106  -18.6758  -58.6041 O.2       21 UNK        -0.5000 
    119 N         -2.9067  -18.6802  -56.9976 N.am      22 UNK        -0.5000 
    120 CA        -2.5202  -17.4512  -56.2967 C.3       22 UNK         0.1400 
    121 C         -3.7503  -16.7509  -55.6584 C.2       22 UNK         0.5000 
    122 N         -3.6169  -15.4924  -55.2613 N.am      22 UNK        -0.7600 
    123 O         -4.8232  -17.3337  -55.5110 O.2       22 UNK        -0.5000 
    124 C124       -1.3640  -17.6883  -55.2855 C.3       23 UNK        -0.0398 
    125 S125       -1.7133  -18.9749  -54.0326 S.3       23 UNK        -0.2404 
    126 C126       -2.1346  -17.9775  -52.5703 C.3       23 UNK        -0.0205 
    127 H127       -1.5598  -12.6260  -43.9924 H         1 UNK         0.0600 
    128 H128       -3.0010  -13.3120  -44.7521 H         1 UNK         0.0600 
    129 H129       -2.5124  -11.6577  -45.1217 H         1 UNK         0.0600 
    130 H130       -0.9956  -11.3074  -46.7576 H         1 UNK         0.3000 
    131 H131        0.2030  -11.5897  -48.5419 H         1 UNK         0.0600 
    132 H132       -0.2682  -14.5328  -49.0254 H         1 UNK         0.0800 
    133 H133       -1.6919  -13.5691  -48.9101 H         1 UNK         0.0800 
    134 H134        0.8786  -13.7112  -52.6332 H         1 UNK         0.0800 
    135 H135        1.7511  -13.7080  -51.1250 H         1 UNK         0.0800 
    136 H136       -1.2664  -15.3840  -52.6675 H         1 UNK         0.1150 
    137 H137       -0.2973  -19.2134  -51.0011 H         1 UNK         0.1150 
    138 H138        2.1821  -15.8204  -50.1572 H         1 UNK         0.1150 
    139 H139        1.7188  -19.5339  -49.7633 H         1 UNK         0.0800 
    140 H140        2.9795  -18.3396  -49.9237 H         1 UNK         0.0800 
    141 H141       -0.5563  -17.9483  -48.3742 H         1 UNK         0.0800 
    142 H142       -0.2730  -17.7401  -46.6780 H         1 UNK         0.0800 
    143 H143        0.1487  -20.4276  -48.0686 H         1 UNK         0.0600 
    144 H144        0.6482  -19.6403  -45.3994 H         1 UNK         0.3000 
    145 H145        0.2040  -22.8731  -43.8752 H         1 UNK         0.0600 
    146 H146        2.4689  -22.2631  -43.0589 H         1 UNK         0.0600 
    147 H147        2.5229  -22.7902  -44.7346 H         1 UNK         0.0600 
    148 H148        2.6406  -21.0798  -44.3523 H         1 UNK         0.0600 
    149 H149        0.8177  -20.3261  -42.7501 H         1 UNK         0.3000 
    150 H150       -2.5810  -19.3256  -42.1312 H         1 UNK         0.0600 
    151 H151       -1.9224  -20.8417  -40.2580 H         1 UNK         0.0600 
    152 H152       -1.6706  -19.1540  -39.8389 H         1 UNK         0.0600 
    153 H153       -0.2969  -20.1691  -40.2712 H         1 UNK         0.0600 
    154 H154       -0.1442  -18.0129  -41.5342 H         1 UNK         0.3000 
    155 H155        0.2688  -16.3160  -44.6763 H         1 UNK         0.0600 
    156 H156       -1.3061  -14.9840  -43.2621 H         1 UNK         0.0600 
    157 H157        0.3482  -14.4057  -43.1106 H         1 UNK         0.0600 
    158 H158       -0.3723  -15.3805  -41.8296 H         1 UNK         0.0600 
    159 H159        1.9034  -16.2771  -42.3778 H         1 UNK         0.3000 
    160 H160        3.9236  -19.1510  -43.1559 H         1 UNK         0.0600 
    161 H161        4.4930  -16.1435  -43.0604 H         1 UNK         0.0600 
    162 H162        4.8519  -17.2093  -44.4153 H         1 UNK         0.0600 
    163 H163        5.6752  -17.4362  -42.8805 H         1 UNK         0.0600 
    164 H164        3.8096  -17.2525  -40.9749 H         1 UNK         0.3000 
    165 H165        1.7639  -19.2363  -38.8469 H         1 UNK         0.0600 
    166 H166        3.7333  -18.9952  -37.3592 H         1 UNK         0.0600 
    167 H167        4.0547  -20.2023  -38.5937 H         1 UNK         0.0600 
    168 H168        4.7627  -18.5976  -38.7352 H         1 UNK         0.0600 
    169 H169        3.1322  -16.7421  -38.4945 H         1 UNK         0.3000 
    170 H170        0.5500  -14.6330  -39.7522 H         1 UNK         0.0600 
    171 H171       -0.2185  -15.2505  -37.4566 H         1 UNK         0.0600 
    172 H172        1.4401  -15.1878  -36.8724 H         1 UNK         0.0600 
    173 H173        0.6478  -13.7232  -37.4546 H         1 UNK         0.0600 
    174 H174        2.9670  -13.9954  -38.4381 H         1 UNK         0.3000 
    175 H175        4.5205  -12.8753  -39.6171 H         1 UNK         0.0600 
    176 H176        5.7450  -15.3872  -40.9035 H         1 UNK         0.0600 
    177 H177        6.6483  -14.1034  -40.1041 H         1 UNK         0.0600 
    178 H178        5.5510  -15.1122  -39.1755 H         1 UNK         0.0600 
    179 H179        4.5189  -13.5465  -42.5153 H         1 UNK         0.3000 
    180 H180        4.8601  -10.2629  -43.4238 H         1 UNK         0.0600 
    181 H181        7.4140  -11.9526  -43.5588 H         1 UNK         0.0600 
    182 H182        7.2966  -10.3198  -42.9147 H         1 UNK         0.0600 
    183 H183        7.0111  -10.6041  -44.6228 H         1 UNK         0.0600 
    184 H184        5.4866  -12.7085  -44.8457 H         1 UNK         0.3000 
    185 H185        3.9637  -13.0098  -46.6534 H         1 UNK         0.0600 
    186 H186        4.1742  -14.9072  -45.0849 H         1 UNK         0.0600 
    187 H187        2.4987  -14.7310  -44.5708 H         1 UNK         0.0600 
    188 H188        2.8745  -15.2763  -46.2041 H         1 UNK         0.0600 
    189 H189        1.2929  -12.2772  -45.8040 H         1 UNK         0.3000 
    190 H190       -2.1624  -19.3310  -45.5375 H         1 UNK         0.3000 
    191 H191       -4.5044  -19.5199  -47.1127 H         1 UNK         0.0600 
    192 H192       -4.4119  -18.3205  -44.9466 H         1 UNK         0.0600 
    193 H193       -5.6797  -19.5374  -44.9151 H         1 UNK         0.0600 
    194 H194       -4.1585  -19.8355  -44.0844 H         1 UNK         0.0600 
    195 H195       -2.9402  -21.9759  -44.9933 H         1 UNK         0.3000 
    196 H196       -4.8112  -24.0572  -45.4226 H         1 UNK         0.0600 
    197 H197       -2.9879  -25.5174  -44.5345 H         1 UNK         0.0600 
    198 H198       -3.1717  -24.0621  -43.5668 H         1 UNK         0.0600 
    199 H199       -1.8350  -24.1994  -44.7070 H         1 UNK         0.0600 
    200 H200       -1.8844  -23.1465  -47.2748 H         1 UNK         0.3000 
    201 H201       -1.9648  -25.3429  -49.1083 H         1 UNK         0.0600 
    202 H202        0.0761  -23.9900  -48.7290 H         1 UNK         0.0600 
    203 H203       -0.7136  -22.5585  -49.3859 H         1 UNK         0.0600 
    204 H204       -0.3792  -23.9372  -50.4255 H         1 UNK         0.0600 
    205 H205       -3.4222  -22.0751  -49.1794 H         1 UNK         0.3000 
    206 H206       -4.4473  -22.2618  -51.8529 H         1 UNK         0.0600 
    207 H207       -5.2615  -20.4352  -49.5332 H         1 UNK         0.0600 
    208 H208       -3.9795  -20.1088  -50.6936 H         1 UNK         0.0600 
    209 H209       -5.6508  -20.1851  -51.2323 H         1 UNK         0.0600 
    210 H210       -5.8071  -23.0567  -48.6707 H         1 UNK         0.3000 
    211 H211       -8.5085  -23.1832  -49.2672 H         1 UNK         0.0600 
    212 H212       -6.8792  -24.7540  -47.2112 H         1 UNK         0.0600 
    213 H213       -8.6351  -24.6345  -47.2112 H         1 UNK         0.0600 
    214 H214       -7.6625  -23.1920  -46.9777 H         1 UNK         0.0600 
    215 H215       -9.4486  -24.2572  -50.8436 H         1 UNK         0.3000 
    216 H216      -10.2948  -25.8137  -52.1495 H         1 UNK         0.0600 
    217 H217      -10.8270  -28.0043  -51.1493 H         1 UNK         0.0600 
    218 H218      -11.0341  -26.7417  -49.9488 H         1 UNK         0.0600 
    219 H219       -9.6083  -27.7775  -49.9018 H         1 UNK         0.0600 
    220 H220       -7.6234  -25.1616  -52.8296 H         1 UNK         0.3000 
    221 H221       -6.9117  -27.5500  -54.4047 H         1 UNK         0.0600 
    222 H222       -4.9271  -26.0135  -52.6344 H         1 UNK         0.0600 
    223 H223       -5.4427  -27.6776  -52.3749 H         1 UNK         0.0600 
    224 H224       -4.4949  -27.2625  -53.7963 H         1 UNK         0.0600 
    225 H225       -5.6888  -27.0296  -56.2643 H         1 UNK         0.3000 
    226 H226       -6.2034  -24.3814  -57.4073 H         1 UNK         0.0600 
    227 H227       -6.6416  -26.4258  -58.7348 H         1 UNK         0.0600 
    228 H228       -5.3706  -25.4734  -59.4833 H         1 UNK         0.0600 
    229 H229       -4.9582  -26.9256  -58.5781 H         1 UNK         0.0600 
    230 H230       -4.7629  -23.5736  -55.5357 H         1 UNK         0.3000 
    231 H231       -1.9272  -23.8913  -55.6637 H         1 UNK         0.0600 
    232 H232       -3.6265  -21.7343  -54.3045 H         1 UNK         0.0600 
    233 H233       -1.9309  -22.0682  -53.9701 H         1 UNK         0.0600 
    234 H234       -3.1447  -23.2796  -53.5983 H         1 UNK         0.0600 
    235 H235       -4.0629  -21.8104  -57.4245 H         1 UNK         0.3000 
    236 H236       -3.8576  -20.2707  -59.0076 H         1 UNK         0.0600 
    237 H237       -2.5027  -22.0505  -60.1165 H         1 UNK         0.0600 
    238 H238       -1.9755  -20.4435  -60.5903 H         1 UNK         0.0600 
    239 H239       -1.0287  -21.3676  -59.4329 H         1 UNK         0.0600 
    240 H240       -3.7214  -19.1416  -56.6167 H         1 UNK         0.3000 
    241 H241       -2.1591  -16.7508  -57.0525 H         1 UNK         0.0600 
    242 H242       -2.7578  -14.9809  -55.3892 H         1 UNK         0.3800 
    243 H243       -4.4093  -15.0272  -54.8464 H         1 UNK         0.3800 
    244 H244       -0.4745  -18.0049  -55.8314 H         1 UNK         0.0800 
    245 H245       -1.0801  -16.7564  -54.7967 H         1 UNK         0.0800 
    246 H246       -2.8560  -17.2053  -52.8401 H         1 UNK         0.0800 
    247 H247       -2.6371  -18.6181  -51.8462 H         1 UNK         0.0800 
@<TRIPOS>BOND
     1    1    2 1    
     2    1  127 1    
     3    1  128 1    
     4    1  129 1    
     5    2    3 2    
     6    2    4 am   BACKBONE|DICT|INTERRES
     7    4    5 1    
     8    4  130 1    
     9    5    6 1    
    10    5   65 1    
    11    5  131 1    
    12    6    7 1    
    13    6  132 1    
    14    6  133 1    
    15    7    8 1    
    16    8    9 1    
    17    8  134 1    
    18    8  135 1    
    19    9   10 ar   
    20    9   14 ar   
    21   10   11 ar   
    22   10  136 1    
    23   11   12 ar   
    24   11  126 1    
    25   12   13 ar   
    26   12  137 1    
    27   13   14 ar   
    28   13   15 1    
    29   14  138 1    
    30   15   16 1    
    31   15  139 1    
    32   15  140 1    
    33   16   17 1    
    34   17   18 1    
    35   17  141 1    
    36   17  142 1    
    37   18   19 1    
    38   18   67 1    
    39   18  143 1    
    40   19   20 am   BACKBONE|DICT|INTERRES
    41   19  144 1    
    42   20   21 2    
    43   20   22 1    
    44   22   23 1    
    45   22   24 1    
    46   22  145 1    
    47   23  146 1    
    48   23  147 1    
    49   23  148 1    
    50   24   25 am   BACKBONE|DICT|INTERRES
    51   24  149 1    
    52   25   26 2    
    53   25   27 1    
    54   27   28 1    
    55   27   29 1    
    56   27  150 1    
    57   28  151 1    
    58   28  152 1    
    59   28  153 1    
    60   29   30 am   BACKBONE|DICT|INTERRES
    61   29  154 1    
    62   30   31 2    
    63   30   32 1    
    64   32   33 1    
    65   32   34 1    
    66   32  155 1    
    67   33  156 1    
    68   33  157 1    
    69   33  158 1    
    70   34   35 am   BACKBONE|DICT|INTERRES
    71   34  159 1    
    72   35   36 2    
    73   35   37 1    
    74   37   38 1    
    75   37   39 1    
    76   37  160 1    
    77   38  161 1    
    78   38  162 1    
    79   38  163 1    
    80   39   40 am   BACKBONE|DICT|INTERRES
    81   39  164 1    
    82   40   41 2    
    83   40   42 1    
    84   42   43 1    
    85   42   44 1    
    86   42  165 1    
    87   43  166 1    
    88   43  167 1    
    89   43  168 1    
    90   44   45 am   BACKBONE|DICT|INTERRES
    91   44  169 1    
    92   45   46 2    
    93   45   47 1    
    94   47   48 1    
    95   47   49 1    
    96   47  170 1    
    97   48  171 1    
    98   48  172 1    
    99   48  173 1    
   100   49   50 am   BACKBONE|DICT|INTERRES
   101   49  174 1    
   102   50   51 2    
   103   50   52 1    
   104   52   53 1    
   105   52   54 1    
   106   52  175 1    
   107   53  176 1    
   108   53  177 1    
   109   53  178 1    
   110   54   55 am   BACKBONE|DICT|INTERRES
   111   54  179 1    
   112   55   56 2    
   113   55   57 1    
   114   57   58 1    
   115   57   59 1    
   116   57  180 1    
   117   58  181 1    
   118   58  182 1    
   119   58  183 1    
   120   59   60 am   BACKBONE|DICT|INTERRES
   121   59  184 1    
   122   60   61 2    
   123   60   62 1    
   124   62   63 1    
   125   62   64 1    
   126   62  185 1    
   127   63  186 1    
   128   63  187 1    
   129   63  188 1    
   130   64   65 am   BACKBONE|DICT|INTERRES
   131   64  189 1    
   132   65   66 2    
   133   67   68 2    
   134   67   69 am   BACKBONE|DICT|INTERRES
   135   69   70 1    
   136   69  190 1    
   137   70   71 1    
   138   70   72 1    
   139   70  191 1    
   140   71  192 1    
   141   71  193 1    
   142   71  194 1    
   143   72   73 2    
   144   72   74 am   BACKBONE|DICT|INTERRES
   145   74   75 1    
   146   74  195 1    
   147   75   76 1    
   148   75   77 1    
   149   75  196 1    
   150   76  197 1    
   151   76  198 1    
   152   76  199 1    
   153   77   78 2    
   154   77   79 am   BACKBONE|DICT|INTERRES
   155   79   80 1    
   156   79  200 1    
   157   80   81 1    
   158   80   82 1    
   159   80  201 1    
   160   81  202 1    
   161   81  203 1    
   162   81  204 1    
   163   82   83 2    
   164   82   84 am   BACKBONE|DICT|INTERRES
   165   84   85 1    
   166   84  205 1    
   167   85   86 1    
   168   85   87 1    
   169   85  206 1    
   170   86  207 1    
   171   86  208 1    
   172   86  209 1    
   173   87   88 2    
   174   87   89 am   BACKBONE|DICT|INTERRES
   175   89   90 1    
   176   89  210 1    
   177   90   91 1    
   178   90   92 1    
   179   90  211 1    
   180   91  212 1    
   181   91  213 1    
   182   91  214 1    
   183   92   93 2    
   184   92   94 am   BACKBONE|DICT|INTERRES
   185   94   95 1    
   186   94  215 1    
   187   95   96 1    
   188   95   97 1    
   189   95  216 1    
   190   96  217 1    
   191   96  218 1    
   192   96  219 1    
   193   97   98 2    
   194   97   99 am   BACKBONE|DICT|INTERRES
   195   99  100 1    
   196   99  220 1    
   197  100  101 1    
   198  100  102 1    
   199  100  221 1    
   200  101  222 1    
   201  101  223 1    
   202  101  224 1    
   203  102  103 2    
   204  102  104 am   BACKBONE|DICT|INTERRES
   205  104  105 1    
   206  104  225 1    
   207  105  106 1    
   208  105  107 1    
   209  105  226 1    
   210  106  227 1    
   211  106  228 1    
   212  106  229 1    
   213  107  108 2    
   214  107  109 am   BACKBONE|DICT|INTERRES
   215  109  110 1    
   216  109  230 1    
   217  110  111 1    
   218  110  112 1    
   219  110  231 1    
   220  111  232 1    
   221  111  233 1    
   222  111  234 1    
   223  112  113 2    
   224  112  114 am   BACKBONE|DICT|INTERRES
   225  114  115 1    
   226  114  235 1    
   227  115  116 1    
   228  115  117 1    
   229  115  236 1    
   230  116  237 1    
   231  116  238 1    
   232  116  239 1    
   233  117  118 2    
   234  117  119 am   BACKBONE|DICT|INTERRES
   235  119  120 1    
   236  119  240 1    
   237  120  121 1    
   238  120  124 1    
   239  120  241 1    
   240  121  122 am   BACKBONE|DICT|INTERRES
   241  121  123 2    
   242  122  242 1    
   243  122  243 1    
   244  124  125 1    
   245  124  244 1    
   246  124  245 1    
   247  125  126 1    
   248  126  246 1    
   249  126  247 1    
@<TRIPOS>SUBSTRUCTURE
     1 UNK         1 GROUP             0       ****    0 ROOT    
