@<TRIPOS>MOLECULE
3R540
247   249    1
SMALL
USER_CHARGES


@<TRIPOS>ATOM
      1 CA          5.0666  -12.6847  -48.4458 C.3       0 UNK        -0.1800 
      2 C           3.7469  -11.9301  -48.3633 C.2       0 UNK         0.5000 
      3 O           3.6820  -10.8855  -47.7158 O.2       0 UNK        -0.5000 
      4 N           2.7039  -12.4575  -49.0194 N.am      1 UNK        -0.5000 
      5 CA          1.3493  -11.8911  -49.0912 C.3       1 UNK         0.1400 
      6 C6          0.3878  -12.8684  -49.8268 C.3       23 UNK        -0.0398 
      7 S7         -1.1831  -13.0902  -48.9332 S.3       23 UNK        -0.2404 
      8 C8         -0.7225  -14.3529  -47.7061 C.3       23 UNK        -0.0205 
      9 C9         -0.9718  -15.7568  -48.2327 C.ar      23 UNK        -0.0193 
     10 C10        -2.2793  -16.2465  -48.2849 C.ar      23 UNK        -0.1150 
     11 C11        -2.5420  -17.5305  -48.7653 C.ar      23 UNK        -0.0193 
     12 C12        -1.4767  -18.3288  -49.1913 C.ar      23 UNK        -0.1150 
     13 C13        -0.1602  -17.8582  -49.1366 C.ar      23 UNK        -0.0193 
     14 C14         0.0867  -16.5684  -48.6543 C.ar      23 UNK        -0.1150 
     15 C15         0.9873  -18.7388  -49.6190 C.3       23 UNK        -0.0205 
     16 S16         1.6571  -19.8087  -48.3004 S.3       23 UNK        -0.2404 
     17 C17         0.1925  -20.8153  -47.9087 C.3       23 UNK        -0.0398 
     18 CA          0.4727  -22.1687  -47.2138 C.3       11 UNK         0.1400 
     19 N           1.1182  -22.0326  -45.9015 N.am      11 UNK        -0.5000 
     20 C           1.5198  -23.0534  -45.1266 C.2       10 UNK         0.5000 
     21 O           1.4345  -24.2365  -45.4588 O.2       10 UNK        -0.5000 
     22 CA          2.0612  -22.7027  -43.7283 C.3       10 UNK         0.1400 
     23 CB          3.5622  -22.3771  -43.7751 C.3       10 UNK        -0.1800 
     24 N           1.3252  -21.5890  -43.1276 N.am      10 UNK        -0.5000 
     25 C           0.1204  -21.7084  -42.5516 C.2       9 UNK         0.5000 
     26 O          -0.4515  -22.7868  -42.3943 O.2       9 UNK        -0.5000 
     27 CA         -0.5796  -20.4144  -42.0883 C.3       9 UNK         0.1400 
     28 CB         -0.2315  -20.1079  -40.6242 C.3       9 UNK        -0.1800 
     29 N          -0.2582  -19.2496  -42.9131 N.am      9 UNK        -0.5000 
     30 C          -0.5938  -19.1082  -44.2032 C.2       8 UNK         0.5000 
     31 O          -1.2752  -19.9248  -44.8228 O.2       8 UNK        -0.5000 
     32 CA         -0.0151  -17.8799  -44.9353 C.3       8 UNK         0.1400 
     33 CB         -0.9001  -16.6465  -44.7082 C.3       8 UNK        -0.1800 
     34 N           1.3625  -17.5715  -44.5368 N.am      8 UNK        -0.5000 
     35 C           2.3968  -18.4178  -44.6517 C.2       7 UNK         0.5000 
     36 O           2.2999  -19.5515  -45.1123 O.2       7 UNK        -0.5000 
     37 CA          3.7474  -17.9575  -44.0869 C.3       7 UNK         0.1400 
     38 CB          4.4676  -17.0186  -45.0666 C.3       7 UNK        -0.1800 
     39 N           3.5702  -17.3110  -42.7875 N.am      7 UNK        -0.5000 
     40 C           3.3318  -17.9793  -41.6489 C.2       6 UNK         0.5000 
     41 O           3.3250  -19.2079  -41.5697 O.2       6 UNK        -0.5000 
     42 CA          3.0220  -17.1413  -40.3927 C.3       6 UNK         0.1400 
     43 CB          4.3163  -16.8068  -39.6365 C.3       6 UNK        -0.1800 
     44 N           2.3063  -15.9000  -40.6924 N.am      6 UNK        -0.5000 
     45 C           1.0501  -15.8385  -41.1570 C.2       5 UNK         0.5000 
     46 O           0.3396  -16.8282  -41.3299 O.2       5 UNK        -0.5000 
     47 CA          0.5211  -14.4417  -41.5465 C.3       5 UNK         0.1400 
     48 CB         -0.1644  -13.7719  -40.3467 C.3       5 UNK        -0.1800 
     49 N           1.5524  -13.5431  -42.0809 N.am      5 UNK        -0.5000 
     50 C           2.3104  -13.8073  -43.1540 C.2       4 UNK         0.5000 
     51 O           2.2105  -14.8449  -43.8115 O.2       4 UNK        -0.5000 
     52 CA          3.3636  -12.7432  -43.5226 C.3       4 UNK         0.1400 
     53 CB          4.3275  -13.2193  -44.6288 C.3       4 UNK        -0.1800 
     54 N           2.7774  -11.4487  -43.8861 N.am      4 UNK        -0.5000 
     55 C           1.9046  -11.2044  -44.8754 C.2       3 UNK         0.5000 
     56 O           1.3739  -12.0897  -45.5490 O.2       3 UNK        -0.5000 
     57 CA          1.5851   -9.7165  -45.1557 C.3       3 UNK         0.1400 
     58 CB          2.8078   -8.7954  -44.9726 C.3       3 UNK        -0.1800 
     59 N           1.0660   -9.5263  -46.5119 N.am      3 UNK        -0.5000 
     60 C          -0.2167   -9.6749  -46.8625 C.2       2 UNK         0.5000 
     61 O          -1.1180   -9.9031  -46.0545 O.2       2 UNK        -0.5000 
     62 CA         -0.5758   -9.5395  -48.3570 C.3       2 UNK         0.1400 
     63 CB         -1.4202   -8.2733  -48.5771 C.3       2 UNK        -0.1800 
     64 N           0.5526   -9.4936  -49.2953 N.am      2 UNK        -0.5000 
     65 C           1.3659  -10.4726  -49.7254 C.2       1 UNK         0.5000 
     66 O           2.1537  -10.2555  -50.6478 O.2       1 UNK        -0.5000 
     67 C          -0.8608  -22.9403  -47.1469 C.2       11 UNK         0.5000 
     68 O          -1.2133  -23.5890  -48.1266 O.2       11 UNK        -0.5000 
     69 N          -1.5788  -22.8403  -46.0180 N.am      12 UNK        -0.5000 
     70 CA         -2.9243  -23.3787  -45.7916 C.3       12 UNK         0.1400 
     71 CB         -3.4120  -22.9163  -44.4102 C.3       12 UNK        -0.1800 
     72 C          -3.0773  -24.9087  -45.9342 C.2       12 UNK         0.5000 
     73 O          -4.2109  -25.3857  -46.0167 O.2       12 UNK        -0.5000 
     74 N          -1.9624  -25.6530  -45.9750 N.am      13 UNK        -0.5000 
     75 CA         -1.9112  -27.0836  -46.2836 C.3       13 UNK         0.1400 
     76 CB         -0.4494  -27.5516  -46.2346 C.3       13 UNK        -0.1800 
     77 C          -2.5367  -27.3971  -47.6588 C.2       13 UNK         0.5000 
     78 O          -2.2995  -26.6619  -48.6198 O.2       13 UNK        -0.5000 
     79 N          -3.3585  -28.4559  -47.7154 N.am      14 UNK        -0.5000 
     80 CA         -4.1656  -28.8738  -48.8737 C.3       14 UNK         0.1400 
     81 CB         -3.2614  -29.4163  -50.0006 C.3       14 UNK        -0.1800 
     82 C          -5.1327  -27.7704  -49.3641 C.2       14 UNK         0.5000 
     83 O          -5.3625  -27.6334  -50.5679 O.2       14 UNK        -0.5000 
     84 N          -5.6372  -26.9653  -48.4147 N.am      15 UNK        -0.5000 
     85 CA         -6.4806  -25.7795  -48.6051 C.3       15 UNK         0.1400 
     86 CB         -7.8787  -26.1871  -49.1164 C.3       15 UNK        -0.1800 
     87 C          -5.8201  -24.6976  -49.4873 C.2       15 UNK         0.5000 
     88 O          -6.5232  -23.9818  -50.2020 O.2       15 UNK        -0.5000 
     89 N          -4.4790  -24.6289  -49.4644 N.am      16 UNK        -0.5000 
     90 CA         -3.6327  -23.7809  -50.3108 C.3       16 UNK         0.1400 
     91 CB         -3.7932  -22.2961  -49.9219 C.3       16 UNK        -0.1800 
     92 C          -3.8331  -24.0562  -51.8149 C.2       16 UNK         0.5000 
     93 O          -3.8429  -23.1240  -52.6210 O.2       16 UNK        -0.5000 
     94 N          -4.0235  -25.3431  -52.1492 N.am      17 UNK        -0.5000 
     95 CA         -4.3658  -25.8762  -53.4707 C.3       17 UNK         0.1400 
     96 CB         -3.2026  -25.6706  -54.4639 C.3       17 UNK        -0.1800 
     97 C          -5.7134  -25.3197  -53.9739 C.2       17 UNK         0.5000 
     98 O          -5.8120  -24.8682  -55.1144 O.2       17 UNK        -0.5000 
     99 N          -6.7143  -25.3214  -53.0798 N.am      18 UNK        -0.5000 
    100 CA        -8.0351  -24.6971  -53.2305 C.3       18 UNK         0.1400 
    101 CB        -8.8693  -25.4176  -54.3100 C.3       18 UNK        -0.1800 
    102 C         -7.9248  -23.1727  -53.4543 C.2       18 UNK         0.5000 
    103 O         -8.5383  -22.6252  -54.3719 O.2       18 UNK        -0.5000 
    104 N         -7.1039  -22.5332  -52.6099 N.am      19 UNK        -0.5000 
    105 CA        -6.7433  -21.1122  -52.5850 C.3       19 UNK         0.1400 
    106 CB        -7.9762  -20.2376  -52.2803 C.3       19 UNK        -0.1800 
    107 C         -5.9571  -20.6083  -53.8158 C.2       19 UNK         0.5000 
    108 O         -5.7864  -19.3972  -53.9610 O.2       19 UNK        -0.5000 
    109 N         -5.4576  -21.5144  -54.6687 N.am      20 UNK        -0.5000 
    110 CA        -4.6574  -21.1769  -55.8479 C.3       20 UNK         0.1400 
    111 CB        -4.5443  -22.3986  -56.7696 C.3       20 UNK        -0.1800 
    112 C         -3.2605  -20.6374  -55.4910 C.2       20 UNK         0.5000 
    113 O         -2.7492  -19.7712  -56.2024 O.2       20 UNK        -0.5000 
    114 N         -2.6786  -21.1223  -54.3836 N.am      21 UNK        -0.5000 
    115 CA        -1.3829  -20.6657  -53.8709 C.3       21 UNK         0.1400 
    116 CB        -0.8314  -21.7010  -52.8781 C.3       21 UNK        -0.1800 
    117 C         -1.4400  -19.2641  -53.2284 C.2       21 UNK         0.5000 
    118 O         -0.3901  -18.6526  -53.0297 O.2       21 UNK        -0.5000 
    119 N         -2.6506  -18.7787  -52.9247 N.am      22 UNK        -0.5000 
    120 CA        -2.9129  -17.4475  -52.3545 C.3       22 UNK         0.1400 
    121 C         -2.8505  -16.2870  -53.3913 C.2       22 UNK         0.5000 
    122 N         -2.7243  -16.5512  -54.6873 N.am      22 UNK        -0.7600 
    123 O         -2.9120  -15.1206  -53.0132 O.2       22 UNK        -0.5000 
    124 C124       -4.2461  -17.4033  -51.5580 C.3       23 UNK        -0.0398 
    125 S125       -4.4513  -18.7940  -50.3902 S.3       23 UNK        -0.2404 
    126 C126       -3.9756  -18.0491  -48.7965 C.3       23 UNK        -0.0205 
    127 H127        5.8099  -12.0816  -48.9670 H         1 UNK         0.0600 
    128 H128        4.9613  -13.6309  -48.9771 H         1 UNK         0.0600 
    129 H129        5.4422  -12.8984  -47.4454 H         1 UNK         0.0600 
    130 H130        2.8511  -13.2977  -49.5586 H         1 UNK         0.3000 
    131 H131        1.0337  -11.8048  -48.0557 H         1 UNK         0.0600 
    132 H132        0.1668  -12.5369  -50.8432 H         1 UNK         0.0800 
    133 H133        0.8346  -13.8568  -49.9444 H         1 UNK         0.0800 
    134 H134       -1.3228  -14.1945  -46.8093 H         1 UNK         0.0800 
    135 H135        0.3168  -14.2253  -47.3974 H         1 UNK         0.0800 
    136 H136       -3.0941  -15.6189  -47.9519 H         1 UNK         0.1150 
    137 H137       -1.6803  -19.3171  -49.5767 H         1 UNK         0.1150 
    138 H138        1.1008  -16.1974  -48.6089 H         1 UNK         0.1150 
    139 H139        0.6576  -19.3560  -50.4563 H         1 UNK         0.0800 
    140 H140        1.7932  -18.1144  -50.0072 H         1 UNK         0.0800 
    141 H141       -0.3225  -21.0003  -48.8533 H         1 UNK         0.0800 
    142 H142       -0.4829  -20.2091  -47.3043 H         1 UNK         0.0800 
    143 H143        1.1494  -22.7449  -47.8482 H         1 UNK         0.0600 
    144 H144        1.3111  -21.0840  -45.5892 H         1 UNK         0.3000 
    145 H145        1.9368  -23.5827  -43.0934 H         1 UNK         0.0600 
    146 H146        4.1324  -23.2368  -44.1288 H         1 UNK         0.0600 
    147 H147        3.7828  -21.5459  -44.4438 H         1 UNK         0.0600 
    148 H148        3.9408  -22.1194  -42.7858 H         1 UNK         0.0600 
    149 H149        1.7202  -20.6663  -43.2533 H         1 UNK         0.3000 
    150 H150       -1.6565  -20.5823  -42.1547 H         1 UNK         0.0600 
    151 H151       -0.4824  -20.9497  -39.9775 H         1 UNK         0.0600 
    152 H152       -0.7850  -19.2421  -40.2603 H         1 UNK         0.0600 
    153 H153        0.8319  -19.9020  -40.4988 H         1 UNK         0.0600 
    154 H154        0.2402  -18.4920  -42.4571 H         1 UNK         0.3000 
    155 H155       -0.0022  -18.0999  -46.0044 H         1 UNK         0.0600 
    156 H156       -0.4555  -15.7549  -45.1490 H         1 UNK         0.0600 
    157 H157       -1.0562  -16.4507  -43.6477 H         1 UNK         0.0600 
    158 H158       -1.8810  -16.7857  -45.1640 H         1 UNK         0.0600 
    159 H159        1.5406  -16.6404  -44.1716 H         1 UNK         0.3000 
    160 H160        4.3763  -18.8405  -43.9524 H         1 UNK         0.0600 
    161 H161        3.8600  -16.1529  -45.3280 H         1 UNK         0.0600 
    162 H162        4.6991  -17.5398  -45.9962 H         1 UNK         0.0600 
    163 H163        5.4094  -16.6593  -44.6519 H         1 UNK         0.0600 
    164 H164        3.4741  -16.3048  -42.7964 H         1 UNK         0.3000 
    165 H165        2.3907  -17.7470  -39.7390 H         1 UNK         0.0600 
    166 H166        4.1047  -16.2802  -38.7057 H         1 UNK         0.0600 
    167 H167        4.8624  -17.7150  -39.3776 H         1 UNK         0.0600 
    168 H168        4.9823  -16.1821  -40.2331 H         1 UNK         0.0600 
    169 H169        2.8178  -15.0380  -40.5749 H         1 UNK         0.3000 
    170 H170       -0.2260  -14.5821  -42.3297 H         1 UNK         0.0600 
    171 H171       -0.9527  -14.4085  -39.9422 H         1 UNK         0.0600 
    172 H172        0.5414  -13.5704  -39.5400 H         1 UNK         0.0600 
    173 H173       -0.6272  -12.8273  -40.6331 H         1 UNK         0.0600 
    174 H174        1.6810  -12.6647  -41.5997 H         1 UNK         0.3000 
    175 H175        3.9598  -12.5723  -42.6252 H         1 UNK         0.0600 
    176 H176        4.8756  -14.1066  -44.3117 H         1 UNK         0.0600 
    177 H177        3.7966  -13.4706  -45.5477 H         1 UNK         0.0600 
    178 H178        5.0638  -12.4521  -44.8679 H         1 UNK         0.0600 
    179 H179        3.1370  -10.6554  -43.3745 H         1 UNK         0.3000 
    180 H180        0.8261   -9.4088  -44.4337 H         1 UNK         0.0600 
    181 H181        3.6510   -9.1194  -45.5840 H         1 UNK         0.0600 
    182 H182        3.1399   -8.7685  -43.9346 H         1 UNK         0.0600 
    183 H183        2.5706   -7.7687  -45.2525 H         1 UNK         0.0600 
    184 H184        1.7593   -9.4014  -47.2368 H         1 UNK         0.3000 
    185 H185       -1.2059  -10.3857  -48.6189 H         1 UNK         0.0600 
    186 H186       -2.3077   -8.2750  -47.9426 H         1 UNK         0.0600 
    187 H187       -0.8556   -7.3686  -48.3478 H         1 UNK         0.0600 
    188 H188       -1.7655   -8.2022  -49.6088 H         1 UNK         0.0600 
    189 H189        0.6722   -8.5939  -49.7365 H         1 UNK         0.3000 
    190 H190       -1.2142  -22.2416  -45.2884 H         1 UNK         0.3000 
    191 H191       -3.5759  -22.9311  -46.5442 H         1 UNK         0.0600 
    192 H192       -3.3783  -21.8302  -44.3201 H         1 UNK         0.0600 
    193 H193       -4.4439  -23.2235  -44.2349 H         1 UNK         0.0600 
    194 H194       -2.8044  -23.3396  -43.6102 H         1 UNK         0.0600 
    195 H195       -1.0756  -25.1706  -45.9366 H         1 UNK         0.3000 
    196 H196       -2.4726  -27.6094  -45.5089 H         1 UNK         0.0600 
    197 H197       -0.3728  -28.6200  -46.4407 H         1 UNK         0.0600 
    198 H198       -0.0112  -27.3768  -45.2518 H         1 UNK         0.0600 
    199 H199        0.1628  -27.0290  -46.9711 H         1 UNK         0.0600 
    200 H200       -3.4978  -28.9998  -46.8746 H         1 UNK         0.3000 
    201 H201       -4.7954  -29.6961  -48.5315 H         1 UNK         0.0600 
    202 H202       -2.5967  -30.1970  -49.6310 H         1 UNK         0.0600 
    203 H203       -2.6451  -28.6318  -50.4406 H         1 UNK         0.0600 
    204 H204       -3.8565  -29.8523  -50.8039 H         1 UNK         0.0600 
    205 H205       -5.3414  -27.1255  -47.4609 H         1 UNK         0.3000 
    206 H206       -6.6053  -25.3292  -47.6194 H         1 UNK         0.0600 
    207 H207       -8.3290  -26.9415  -48.4715 H         1 UNK         0.0600 
    208 H208       -8.5554  -25.3319  -49.1325 H         1 UNK         0.0600 
    209 H209       -7.8397  -26.5914  -50.1282 H         1 UNK         0.0600 
    210 H210       -3.9731  -25.2881  -48.8837 H         1 UNK         0.3000 
    211 H211       -2.6032  -24.0742  -50.1149 H         1 UNK         0.0600 
    212 H212       -4.8158  -21.9479  -50.0558 H         1 UNK         0.0600 
    213 H213       -3.1502  -21.6507  -50.5179 H         1 UNK         0.0600 
    214 H214       -3.5257  -22.1336  -48.8787 H         1 UNK         0.0600 
    215 H215       -4.0502  -26.0227  -51.3988 H         1 UNK         0.3000 
    216 H216       -4.5068  -26.9507  -53.3451 H         1 UNK         0.0600 
    217 H217       -3.4253  -26.1299  -55.4276 H         1 UNK         0.0600 
    218 H218       -2.2853  -26.1268  -54.0919 H         1 UNK         0.0600 
    219 H219       -2.9990  -24.6153  -54.6439 H         1 UNK         0.0600 
    220 H220       -6.5134  -25.6923  -52.1610 H         1 UNK         0.3000 
    221 H221       -8.5477  -24.8293  -52.2765 H         1 UNK         0.0600 
    222 H222       -8.4458  -25.2898  -55.3065 H         1 UNK         0.0600 
    223 H223       -8.9352  -26.4866  -54.1080 H         1 UNK         0.0600 
    224 H224       -9.8879  -25.0290  -54.3371 H         1 UNK         0.0600 
    225 H225       -6.6900  -23.0876  -51.8637 H         1 UNK         0.3000 
    226 H226       -6.0585  -21.0043  -51.7453 H         1 UNK         0.0600 
    227 H227       -8.4983  -20.5894  -51.3906 H         1 UNK         0.0600 
    228 H228       -7.6854  -19.2030  -52.0940 H         1 UNK         0.0600 
    229 H229       -8.6851  -20.2335  -53.1085 H         1 UNK         0.0600 
    230 H230       -5.6001  -22.4971  -54.4754 H         1 UNK         0.3000 
    231 H231       -5.1836  -20.3927  -56.3964 H         1 UNK         0.0600 
    232 H232       -4.0001  -23.2131  -56.2922 H         1 UNK         0.0600 
    233 H233       -4.0141  -22.1458  -57.6885 H         1 UNK         0.0600 
    234 H234       -5.5283  -22.7724  -57.0533 H         1 UNK         0.0600 
    235 H235       -3.1661  -21.8268  -53.8331 H         1 UNK         0.3000 
    236 H236       -0.6874  -20.6076  -54.7108 H         1 UNK         0.0600 
    237 H237       -0.7756  -22.6918  -53.3294 H         1 UNK         0.0600 
    238 H238        0.1748  -21.4328  -52.5538 H         1 UNK         0.0600 
    239 H239       -1.4506  -21.7740  -51.9862 H         1 UNK         0.0600 
    240 H240       -3.4662  -19.3358  -53.1354 H         1 UNK         0.3000 
    241 H241       -2.1105  -17.2355  -51.6472 H         1 UNK         0.0600 
    242 H242       -2.6822  -15.7904  -55.3469 H         1 UNK         0.3800 
    243 H243       -2.6772  -17.5042  -55.0164 H         1 UNK         0.3800 
    244 H244       -4.3300  -16.4634  -51.0097 H         1 UNK         0.0800 
    245 H245       -5.0941  -17.4266  -52.2440 H         1 UNK         0.0800 
    246 H246       -4.0875  -18.8010  -48.0144 H         1 UNK         0.0800 
    247 H247       -4.6825  -17.2522  -48.5608 H         1 UNK         0.0800 
@<TRIPOS>BOND
     1    1    2 1    
     2    1  127 1    
     3    1  128 1    
     4    1  129 1    
     5    2    3 2    
     6    2    4 am   BACKBONE|DICT|INTERRES
     7    4    5 1    
     8    4  130 1    
     9    5    6 1    
    10    5   65 1    
    11    5  131 1    
    12    6    7 1    
    13    6  132 1    
    14    6  133 1    
    15    7    8 1    
    16    8    9 1    
    17    8  134 1    
    18    8  135 1    
    19    9   10 ar   
    20    9   14 ar   
    21   10   11 ar   
    22   10  136 1    
    23   11   12 ar   
    24   11  126 1    
    25   12   13 ar   
    26   12  137 1    
    27   13   14 ar   
    28   13   15 1    
    29   14  138 1    
    30   15   16 1    
    31   15  139 1    
    32   15  140 1    
    33   16   17 1    
    34   17   18 1    
    35   17  141 1    
    36   17  142 1    
    37   18   19 1    
    38   18   67 1    
    39   18  143 1    
    40   19   20 am   BACKBONE|DICT|INTERRES
    41   19  144 1    
    42   20   21 2    
    43   20   22 1    
    44   22   23 1    
    45   22   24 1    
    46   22  145 1    
    47   23  146 1    
    48   23  147 1    
    49   23  148 1    
    50   24   25 am   BACKBONE|DICT|INTERRES
    51   24  149 1    
    52   25   26 2    
    53   25   27 1    
    54   27   28 1    
    55   27   29 1    
    56   27  150 1    
    57   28  151 1    
    58   28  152 1    
    59   28  153 1    
    60   29   30 am   BACKBONE|DICT|INTERRES
    61   29  154 1    
    62   30   31 2    
    63   30   32 1    
    64   32   33 1    
    65   32   34 1    
    66   32  155 1    
    67   33  156 1    
    68   33  157 1    
    69   33  158 1    
    70   34   35 am   BACKBONE|DICT|INTERRES
    71   34  159 1    
    72   35   36 2    
    73   35   37 1    
    74   37   38 1    
    75   37   39 1    
    76   37  160 1    
    77   38  161 1    
    78   38  162 1    
    79   38  163 1    
    80   39   40 am   BACKBONE|DICT|INTERRES
    81   39  164 1    
    82   40   41 2    
    83   40   42 1    
    84   42   43 1    
    85   42   44 1    
    86   42  165 1    
    87   43  166 1    
    88   43  167 1    
    89   43  168 1    
    90   44   45 am   BACKBONE|DICT|INTERRES
    91   44  169 1    
    92   45   46 2    
    93   45   47 1    
    94   47   48 1    
    95   47   49 1    
    96   47  170 1    
    97   48  171 1    
    98   48  172 1    
    99   48  173 1    
   100   49   50 am   BACKBONE|DICT|INTERRES
   101   49  174 1    
   102   50   51 2    
   103   50   52 1    
   104   52   53 1    
   105   52   54 1    
   106   52  175 1    
   107   53  176 1    
   108   53  177 1    
   109   53  178 1    
   110   54   55 am   BACKBONE|DICT|INTERRES
   111   54  179 1    
   112   55   56 2    
   113   55   57 1    
   114   57   58 1    
   115   57   59 1    
   116   57  180 1    
   117   58  181 1    
   118   58  182 1    
   119   58  183 1    
   120   59   60 am   BACKBONE|DICT|INTERRES
   121   59  184 1    
   122   60   61 2    
   123   60   62 1    
   124   62   63 1    
   125   62   64 1    
   126   62  185 1    
   127   63  186 1    
   128   63  187 1    
   129   63  188 1    
   130   64   65 am   BACKBONE|DICT|INTERRES
   131   64  189 1    
   132   65   66 2    
   133   67   68 2    
   134   67   69 am   BACKBONE|DICT|INTERRES
   135   69   70 1    
   136   69  190 1    
   137   70   71 1    
   138   70   72 1    
   139   70  191 1    
   140   71  192 1    
   141   71  193 1    
   142   71  194 1    
   143   72   73 2    
   144   72   74 am   BACKBONE|DICT|INTERRES
   145   74   75 1    
   146   74  195 1    
   147   75   76 1    
   148   75   77 1    
   149   75  196 1    
   150   76  197 1    
   151   76  198 1    
   152   76  199 1    
   153   77   78 2    
   154   77   79 am   BACKBONE|DICT|INTERRES
   155   79   80 1    
   156   79  200 1    
   157   80   81 1    
   158   80   82 1    
   159   80  201 1    
   160   81  202 1    
   161   81  203 1    
   162   81  204 1    
   163   82   83 2    
   164   82   84 am   BACKBONE|DICT|INTERRES
   165   84   85 1    
   166   84  205 1    
   167   85   86 1    
   168   85   87 1    
   169   85  206 1    
   170   86  207 1    
   171   86  208 1    
   172   86  209 1    
   173   87   88 2    
   174   87   89 am   BACKBONE|DICT|INTERRES
   175   89   90 1    
   176   89  210 1    
   177   90   91 1    
   178   90   92 1    
   179   90  211 1    
   180   91  212 1    
   181   91  213 1    
   182   91  214 1    
   183   92   93 2    
   184   92   94 am   BACKBONE|DICT|INTERRES
   185   94   95 1    
   186   94  215 1    
   187   95   96 1    
   188   95   97 1    
   189   95  216 1    
   190   96  217 1    
   191   96  218 1    
   192   96  219 1    
   193   97   98 2    
   194   97   99 am   BACKBONE|DICT|INTERRES
   195   99  100 1    
   196   99  220 1    
   197  100  101 1    
   198  100  102 1    
   199  100  221 1    
   200  101  222 1    
   201  101  223 1    
   202  101  224 1    
   203  102  103 2    
   204  102  104 am   BACKBONE|DICT|INTERRES
   205  104  105 1    
   206  104  225 1    
   207  105  106 1    
   208  105  107 1    
   209  105  226 1    
   210  106  227 1    
   211  106  228 1    
   212  106  229 1    
   213  107  108 2    
   214  107  109 am   BACKBONE|DICT|INTERRES
   215  109  110 1    
   216  109  230 1    
   217  110  111 1    
   218  110  112 1    
   219  110  231 1    
   220  111  232 1    
   221  111  233 1    
   222  111  234 1    
   223  112  113 2    
   224  112  114 am   BACKBONE|DICT|INTERRES
   225  114  115 1    
   226  114  235 1    
   227  115  116 1    
   228  115  117 1    
   229  115  236 1    
   230  116  237 1    
   231  116  238 1    
   232  116  239 1    
   233  117  118 2    
   234  117  119 am   BACKBONE|DICT|INTERRES
   235  119  120 1    
   236  119  240 1    
   237  120  121 1    
   238  120  124 1    
   239  120  241 1    
   240  121  122 am   BACKBONE|DICT|INTERRES
   241  121  123 2    
   242  122  242 1    
   243  122  243 1    
   244  124  125 1    
   245  124  244 1    
   246  124  245 1    
   247  125  126 1    
   248  126  246 1    
   249  126  247 1    
@<TRIPOS>SUBSTRUCTURE
     1 UNK         1 GROUP             0       ****    0 ROOT    
