@<TRIPOS>MOLECULE
3R540
247   249    1
SMALL
USER_CHARGES


@<TRIPOS>ATOM
      1 CA         -0.4841  -14.1471  -50.8787 C.3       0 UNK        -0.1800 
      2 C           0.7355  -13.5429  -50.2011 C.2       0 UNK         0.5000 
      3 O           0.9135  -12.3248  -50.2259 O.2       0 UNK        -0.5000 
      4 N           1.5763  -14.3931  -49.5975 N.am      1 UNK        -0.5000 
      5 CA          2.8008  -14.0027  -48.8816 C.3       1 UNK         0.1400 
      6 C6          3.7120  -15.2100  -48.5471 C.3       23 UNK        -0.0398 
      7 S7          4.1136  -16.2420  -49.9995 S.3       23 UNK        -0.2404 
      8 C8          3.2894  -17.8121  -49.5823 C.3       23 UNK        -0.0205 
      9 C9          1.7738  -17.7049  -49.6649 C.ar      23 UNK        -0.0193 
     10 C10         1.1297  -17.8171  -50.9003 C.ar      23 UNK        -0.1150 
     11 C11        -0.2644  -17.7225  -50.9922 C.ar      23 UNK        -0.0193 
     12 C12        -1.0072  -17.5251  -49.8239 C.ar      23 UNK        -0.1150 
     13 C13        -0.3769  -17.4087  -48.5830 C.ar      23 UNK        -0.0193 
     14 C14         1.0141  -17.5006  -48.5102 C.ar      23 UNK        -0.1150 
     15 C15        -1.2042  -17.1936  -47.3253 C.3       23 UNK        -0.0205 
     16 S16        -1.9557  -18.7471  -46.7494 S.3       23 UNK        -0.2404 
     17 C17        -0.5237  -19.6213  -46.0339 C.3       23 UNK        -0.0398 
     18 CA          0.1981  -20.5805  -47.0198 C.3       11 UNK         0.1400 
     19 N           1.6318  -20.7356  -46.7280 N.am      11 UNK        -0.5000 
     20 C           2.1606  -21.2356  -45.5999 C.2       10 UNK         0.5000 
     21 O           1.4818  -21.5957  -44.6389 O.2       10 UNK        -0.5000 
     22 CA          3.6982  -21.3601  -45.5268 C.3       10 UNK         0.1400 
     23 CB          4.4207  -21.0149  -46.8447 C.3       10 UNK        -0.1800 
     24 N           4.2138  -20.4898  -44.4749 N.am      10 UNK        -0.5000 
     25 C           4.3750  -20.8099  -43.1850 C.2       9 UNK         0.5000 
     26 O           4.2182  -21.9471  -42.7388 O.2       9 UNK        -0.5000 
     27 CA          4.7583  -19.6670  -42.2186 C.3       9 UNK         0.1400 
     28 CB          6.2864  -19.5358  -42.0692 C.3       9 UNK        -0.1800 
     29 N           4.1166  -18.3826  -42.5416 N.am      9 UNK        -0.5000 
     30 C           4.3517  -17.5629  -43.5759 C.2       8 UNK         0.5000 
     31 O           5.2595  -17.7311  -44.3896 O.2       8 UNK        -0.5000 
     32 CA          3.3416  -16.4301  -43.8225 C.3       8 UNK         0.1400 
     33 CB          2.3568  -16.8832  -44.9106 C.3       8 UNK        -0.1800 
     34 N           2.5846  -16.0269  -42.6362 N.am      8 UNK        -0.5000 
     35 C           3.0728  -15.2554  -41.6546 C.2       7 UNK         0.5000 
     36 O           4.2393  -14.8638  -41.6116 O.2       7 UNK        -0.5000 
     37 CA          2.0972  -14.8462  -40.5378 C.3       7 UNK         0.1400 
     38 CB          1.2190  -13.6659  -40.9814 C.3       7 UNK        -0.1800 
     39 N           1.2322  -15.9576  -40.1509 N.am      7 UNK        -0.5000 
     40 C           1.4210  -16.7302  -39.0730 C.2       6 UNK         0.5000 
     41 O           2.3288  -16.5627  -38.2577 O.2       6 UNK        -0.5000 
     42 CA          0.4308  -17.8948  -38.8681 C.3       6 UNK         0.1400 
     43 CB         -0.7104  -17.4694  -37.9316 C.3       6 UNK        -0.1800 
     44 N          -0.1445  -18.4022  -40.1154 N.am      6 UNK        -0.5000 
     45 C           0.5543  -18.9921  -41.0948 C.2       5 UNK         0.5000 
     46 O           1.7655  -19.1945  -41.0408 O.2       5 UNK        -0.5000 
     47 CA         -0.2214  -19.3837  -42.3648 C.3       5 UNK         0.1400 
     48 CB         -0.7480  -20.8208  -42.2248 C.3       5 UNK        -0.1800 
     49 N          -1.3427  -18.4914  -42.6823 N.am      5 UNK        -0.5000 
     50 C          -1.2720  -17.1664  -42.8737 C.2       4 UNK         0.5000 
     51 O          -0.2280  -16.5103  -42.7991 O.2       4 UNK        -0.5000 
     52 CA         -2.6087  -16.4574  -43.1232 C.3       4 UNK         0.1400 
     53 CB         -3.4459  -16.4247  -41.8283 C.3       4 UNK        -0.1800 
     54 N          -2.3696  -15.0956  -43.5926 N.am      4 UNK        -0.5000 
     55 C          -3.2774  -14.3243  -44.2041 C.2       3 UNK         0.5000 
     56 O          -4.4184  -14.7019  -44.4748 O.2       3 UNK        -0.5000 
     57 CA         -2.8664  -12.8813  -44.5618 C.3       3 UNK         0.1400 
     58 CB         -3.3563  -11.9067  -43.4791 C.3       3 UNK        -0.1800 
     59 N          -1.4277  -12.6850  -44.7545 N.am      3 UNK        -0.5000 
     60 C          -0.7227  -13.1919  -45.7724 C.2       2 UNK         0.5000 
     61 O          -1.2045  -13.9275  -46.6390 O.2       2 UNK        -0.5000 
     62 CA          0.7659  -12.8110  -45.8318 C.3       2 UNK         0.1400 
     63 CB          1.5037  -13.1624  -44.5258 C.3       2 UNK        -0.1800 
     64 N           1.3523  -13.5064  -46.9695 N.am      2 UNK        -0.5000 
     65 C           2.4958  -13.2062  -47.5940 C.2       1 UNK         0.5000 
     66 O           3.2838  -12.3415  -47.2090 O.2       1 UNK        -0.5000 
     67 C          -0.5132  -21.9411  -47.2098 C.2       11 UNK         0.5000 
     68 O          -1.6980  -22.0821  -46.9030 O.2       11 UNK        -0.5000 
     69 N           0.2164  -22.9205  -47.7670 N.am      12 UNK        -0.5000 
     70 CA         -0.2888  -24.2554  -48.1051 C.3       12 UNK         0.1400 
     71 CB          0.8798  -25.1326  -48.5765 C.3       12 UNK        -0.1800 
     72 C          -1.4107  -24.2338  -49.1621 C.2       12 UNK         0.5000 
     73 O          -2.2547  -25.1285  -49.1700 O.2       12 UNK        -0.5000 
     74 N          -1.4322  -23.1869  -49.9996 N.am      13 UNK        -0.5000 
     75 CA         -2.4813  -22.9131  -50.9797 C.3       13 UNK         0.1400 
     76 CB         -2.0837  -21.6879  -51.8132 C.3       13 UNK        -0.1800 
     77 C          -3.8677  -22.7028  -50.3443 C.2       13 UNK         0.5000 
     78 O          -4.8652  -23.1088  -50.9392 O.2       13 UNK        -0.5000 
     79 N          -3.9218  -22.1075  -49.1439 N.am      14 UNK        -0.5000 
     80 CA         -5.1643  -21.9232  -48.3923 C.3       14 UNK         0.1400 
     81 CB         -4.9560  -20.8886  -47.2782 C.3       14 UNK        -0.1800 
     82 C          -5.6951  -23.2510  -47.8253 C.2       14 UNK         0.5000 
     83 O          -6.9023  -23.4866  -47.8693 O.2       14 UNK        -0.5000 
     84 N          -4.7832  -24.1146  -47.3552 N.am      15 UNK        -0.5000 
     85 CA         -5.0891  -25.4654  -46.8761 C.3       15 UNK         0.1400 
     86 CB         -3.8671  -26.0383  -46.1419 C.3       15 UNK        -0.1800 
     87 C          -5.5417  -26.4040  -48.0118 C.2       15 UNK         0.5000 
     88 O          -6.4442  -27.2166  -47.8097 O.2       15 UNK        -0.5000 
     89 N          -4.9335  -26.2446  -49.1950 N.am      16 UNK        -0.5000 
     90 CA         -5.2808  -26.9496  -50.4312 C.3       16 UNK         0.1400 
     91 CB         -4.1030  -26.8227  -51.4108 C.3       16 UNK        -0.1800 
     92 C          -6.5803  -26.4442  -51.0945 C.2       16 UNK         0.5000 
     93 O          -7.0558  -27.0818  -52.0345 O.2       16 UNK        -0.5000 
     94 N          -7.1115  -25.3072  -50.6187 N.am      17 UNK        -0.5000 
     95 CA         -8.2813  -24.5780  -51.1247 C.3       17 UNK         0.1400 
     96 CB         -9.5630  -25.4316  -51.0285 C.3       17 UNK        -0.1800 
     97 C          -8.0683  -23.9613  -52.5256 C.2       17 UNK         0.5000 
     98 O          -9.0389  -23.6752  -53.2286 O.2       17 UNK        -0.5000 
     99 N          -6.8009  -23.7322  -52.8902 N.am      18 UNK        -0.5000 
    100 CA        -6.3793  -22.9789  -54.0705 C.3       18 UNK         0.1400 
    101 CB        -4.9767  -23.4542  -54.4776 C.3       18 UNK        -0.1800 
    102 C         -6.3888  -21.4611  -53.7983 C.2       18 UNK         0.5000 
    103 O         -6.5677  -20.6762  -54.7307 O.2       18 UNK        -0.5000 
    104 N         -6.2228  -21.0844  -52.5205 N.am      19 UNK        -0.5000 
    105 CA        -6.2769  -19.7325  -51.9643 C.3       19 UNK         0.1400 
    106 CB        -7.7285  -19.2047  -51.9847 C.3       19 UNK        -0.1800 
    107 C         -5.2541  -18.7939  -52.6316 C.2       19 UNK         0.5000 
    108 O         -4.0599  -18.9368  -52.3763 O.2       19 UNK        -0.5000 
    109 N         -5.7314  -17.8639  -53.4691 N.am      20 UNK        -0.5000 
    110 CA        -4.9229  -16.8834  -54.1951 C.3       20 UNK         0.1400 
    111 CB        -5.8546  -15.8053  -54.7701 C.3       20 UNK        -0.1800 
    112 C         -4.0455  -17.4881  -55.3094 C.2       20 UNK         0.5000 
    113 O         -3.0917  -16.8364  -55.7369 O.2       20 UNK        -0.5000 
    114 N         -4.3621  -18.7079  -55.7667 N.am      21 UNK        -0.5000 
    115 CA        -3.5587  -19.4617  -56.7280 C.3       21 UNK         0.1400 
    116 CB        -4.4658  -20.4462  -57.4862 C.3       21 UNK        -0.1800 
    117 C         -2.3878  -20.1555  -56.0052 C.2       21 UNK         0.5000 
    118 O         -2.4385  -21.3612  -55.7569 O.2       21 UNK        -0.5000 
    119 N         -1.3774  -19.3595  -55.6364 N.am      22 UNK        -0.5000 
    120 CA        -0.1678  -19.7881  -54.9191 C.3       22 UNK         0.1400 
    121 C          0.6809  -20.8315  -55.7008 C.2       22 UNK         0.5000 
    122 N          1.3100  -21.7734  -55.0105 N.am      22 UNK        -0.7600 
    123 O          0.8145  -20.7649  -56.9210 O.2       22 UNK        -0.5000 
    124 C124        0.7246  -18.5865  -54.4993 C.3       23 UNK        -0.0398 
    125 S125       -0.1462  -17.1495  -53.7704 S.3       23 UNK        -0.2404 
    126 C126       -1.0102  -17.8439  -52.3198 C.3       23 UNK        -0.0205 
    127 H127       -0.1819  -14.8965  -51.6092 H         1 UNK         0.0600 
    128 H128       -1.1346  -14.6173  -50.1412 H         1 UNK         0.0600 
    129 H129       -1.0589  -13.3811  -51.3994 H         1 UNK         0.0600 
    130 H130        1.3941  -15.3869  -49.6450 H         1 UNK         0.3000 
    131 H131        3.3617  -13.3388  -49.5431 H         1 UNK         0.0600 
    132 H132        3.2635  -15.8296  -47.7709 H         1 UNK         0.0800 
    133 H133        4.6568  -14.8565  -48.1303 H         1 UNK         0.0800 
    134 H134        3.6359  -18.5835  -50.2718 H         1 UNK         0.0800 
    135 H135        3.6014  -18.1337  -48.5881 H         1 UNK         0.0800 
    136 H136        1.7261  -17.9698  -51.7862 H         1 UNK         0.1150 
    137 H137       -2.0855  -17.4633  -49.8776 H         1 UNK         0.1150 
    138 H138        1.5007  -17.4244  -47.5513 H         1 UNK         0.1150 
    139 H139       -0.6044  -16.7498  -46.5291 H         1 UNK         0.0800 
    140 H140       -1.9994  -16.4770  -47.5364 H         1 UNK         0.0800 
    141 H141       -0.8600  -20.1628  -45.1515 H         1 UNK         0.0800 
    142 H142        0.1709  -18.8681  -45.6689 H         1 UNK         0.0800 
    143 H143        0.1691  -20.1210  -48.0076 H         1 UNK         0.0600 
    144 H144        2.2625  -20.4605  -47.4669 H         1 UNK         0.3000 
    145 H145        3.9236  -22.4008  -45.2853 H         1 UNK         0.0600 
    146 H146        5.4943  -21.1790  -46.7487 H         1 UNK         0.0600 
    147 H147        4.0778  -21.6457  -47.6659 H         1 UNK         0.0600 
    148 H148        4.2768  -19.9726  -47.1305 H         1 UNK         0.0600 
    149 H149        4.4187  -19.5324  -44.7360 H         1 UNK         0.3000 
    150 H150        4.3649  -19.9469  -41.2403 H         1 UNK         0.0600 
    151 H151        6.7143  -20.4578  -41.6740 H         1 UNK         0.0600 
    152 H152        6.5480  -18.7336  -41.3792 H         1 UNK         0.0600 
    153 H153        6.7783  -19.3364  -43.0212 H         1 UNK         0.0600 
    154 H154        3.2934  -18.1951  -41.9793 H         1 UNK         0.3000 
    155 H155        3.8958  -15.5670  -44.1978 H         1 UNK         0.0600 
    156 H156        1.7059  -16.0750  -45.2389 H         1 UNK         0.0600 
    157 H157        1.7282  -17.6961  -44.5507 H         1 UNK         0.0600 
    158 H158        2.8917  -17.2463  -45.7882 H         1 UNK         0.0600 
    159 H159        1.5988  -16.2745  -42.6250 H         1 UNK         0.3000 
    160 H160        2.6928  -14.5130  -39.6852 H         1 UNK         0.0600 
    161 H161        0.5477  -13.9434  -41.7942 H         1 UNK         0.0600 
    162 H162        1.8300  -12.8292  -41.3222 H         1 UNK         0.0600 
    163 H163        0.6060  -13.3043  -40.1558 H         1 UNK         0.0600 
    164 H164        0.4833  -16.1904  -40.7902 H         1 UNK         0.3000 
    165 H165        0.9784  -18.7120  -38.3940 H         1 UNK         0.0600 
    166 H166       -1.3104  -16.6689  -38.3664 H         1 UNK         0.0600 
    167 H167       -1.3738  -18.3061  -37.7118 H         1 UNK         0.0600 
    168 H168       -0.3202  -17.1072  -36.9794 H         1 UNK         0.0600 
    169 H169       -1.1378  -18.2782  -40.2416 H         1 UNK         0.3000 
    170 H170        0.4816  -19.3496  -43.1984 H         1 UNK         0.0600 
    171 H171        0.0720  -21.5177  -42.0449 H         1 UNK         0.0600 
    172 H172       -1.4472  -20.9146  -41.3929 H         1 UNK         0.0600 
    173 H173       -1.2583  -21.1555  -43.1271 H         1 UNK         0.0600 
    174 H174       -2.2472  -18.9355  -42.7489 H         1 UNK         0.3000 
    175 H175       -3.1434  -17.0120  -43.8975 H         1 UNK         0.0600 
    176 H176       -4.4164  -15.9563  -41.9913 H         1 UNK         0.0600 
    177 H177       -3.6400  -17.4296  -41.4520 H         1 UNK         0.0600 
    178 H178       -2.9380  -15.8698  -41.0382 H         1 UNK         0.0600 
    179 H179       -1.4311  -14.7518  -43.4395 H         1 UNK         0.3000 
    180 H180       -3.3670  -12.6261  -45.4983 H         1 UNK         0.0600 
    181 H181       -2.8720  -12.0950  -42.5200 H         1 UNK         0.0600 
    182 H182       -4.4325  -11.9996  -43.3267 H         1 UNK         0.0600 
    183 H183       -3.1585  -10.8720  -43.7595 H         1 UNK         0.0600 
    184 H184       -0.9637  -12.0905  -44.0834 H         1 UNK         0.3000 
    185 H185        0.8347  -11.7366  -46.0126 H         1 UNK         0.0600 
    186 H186        2.5868  -13.1371  -44.6429 H         1 UNK         0.0600 
    187 H187        1.2534  -12.4489  -43.7411 H         1 UNK         0.0600 
    188 H188        1.2275  -14.1513  -44.1647 H         1 UNK         0.0600 
    189 H189        0.7209  -14.1751  -47.3946 H         1 UNK         0.3000 
    190 H190        1.1838  -22.7358  -47.9866 H         1 UNK         0.3000 
    191 H191       -0.7051  -24.6959  -47.1967 H         1 UNK         0.0600 
    192 H192        1.6436  -25.2215  -47.8037 H         1 UNK         0.0600 
    193 H193        0.5394  -26.1419  -48.8123 H         1 UNK         0.0600 
    194 H194        1.3521  -24.7278  -49.4724 H         1 UNK         0.0600 
    195 H195       -0.6929  -22.5049  -49.9256 H         1 UNK         0.3000 
    196 H196       -2.5483  -23.7742  -51.6470 H         1 UNK         0.0600 
    197 H197       -2.8273  -21.4760  -52.5832 H         1 UNK         0.0600 
    198 H198       -1.1323  -21.8503  -52.3183 H         1 UNK         0.0600 
    199 H199       -1.9911  -20.7950  -51.1936 H         1 UNK         0.0600 
    200 H200       -3.0641  -21.8409  -48.6775 H         1 UNK         0.3000 
    201 H201       -5.9223  -21.5296  -49.0726 H         1 UNK         0.0600 
    202 H202       -4.6427  -19.9289  -47.6890 H         1 UNK         0.0600 
    203 H203       -4.2010  -21.2098  -46.5603 H         1 UNK         0.0600 
    204 H204       -5.8811  -20.7185  -46.7262 H         1 UNK         0.0600 
    205 H205       -3.8097  -23.8451  -47.3734 H         1 UNK         0.3000 
    206 H206       -5.9101  -25.3914  -46.1597 H         1 UNK         0.0600 
    207 H207       -3.5721  -25.3999  -45.3089 H         1 UNK         0.0600 
    208 H208       -4.0873  -27.0251  -45.7329 H         1 UNK         0.0600 
    209 H209       -3.0076  -26.1440  -46.8040 H         1 UNK         0.0600 
    210 H210       -4.1373  -25.6155  -49.2445 H         1 UNK         0.3000 
    211 H211       -5.4212  -28.0069  -50.1980 H         1 UNK         0.0600 
    212 H212       -3.9307  -25.7848  -51.6963 H         1 UNK         0.0600 
    213 H213       -4.2891  -27.3875  -52.3251 H         1 UNK         0.0600 
    214 H214       -3.1815  -27.2079  -50.9738 H         1 UNK         0.0600 
    215 H215       -6.6303  -24.8620  -49.8490 H         1 UNK         0.3000 
    216 H216       -8.4082  -23.7304  -50.4497 H         1 UNK         0.0600 
    217 H217       -9.6817  -25.8528  -50.0301 H         1 UNK         0.0600 
    218 H218       -9.5591  -26.2548  -51.7431 H         1 UNK         0.0600 
    219 H219      -10.4491  -24.8296  -51.2324 H         1 UNK         0.0600 
    220 H220       -6.0738  -23.9334  -52.2111 H         1 UNK         0.3000 
    221 H221       -7.0661  -23.1819  -54.8947 H         1 UNK         0.0600 
    222 H222       -4.2342  -23.2311  -53.7112 H         1 UNK         0.0600 
    223 H223       -4.9609  -24.5296  -54.6550 H         1 UNK         0.0600 
    224 H224       -4.6513  -22.9710  -55.3981 H         1 UNK         0.0600 
    225 H225       -5.9882  -21.8166  -51.8586 H         1 UNK         0.3000 
    226 H226       -5.9729  -19.8151  -50.9199 H         1 UNK         0.0600 
    227 H227       -8.3821  -19.8516  -51.3993 H         1 UNK         0.0600 
    228 H228       -7.7912  -18.2073  -51.5476 H         1 UNK         0.0600 
    229 H229       -8.1388  -19.1546  -52.9938 H         1 UNK         0.0600 
    230 H230       -6.7256  -17.8448  -53.6435 H         1 UNK         0.3000 
    231 H231       -4.2498  -16.4065  -53.4795 H         1 UNK         0.0600 
    232 H232       -5.2859  -15.0338  -55.2910 H         1 UNK         0.0600 
    233 H233       -6.4215  -15.3109  -53.9810 H         1 UNK         0.0600 
    234 H234       -6.5649  -16.2267  -55.4825 H         1 UNK         0.0600 
    235 H235       -5.1433  -19.2008  -55.3480 H         1 UNK         0.3000 
    236 H236       -3.1360  -18.7776  -57.4670 H         1 UNK         0.0600 
    237 H237       -3.8909  -21.0303  -58.2058 H         1 UNK         0.0600 
    238 H238       -4.9592  -21.1468  -56.8145 H         1 UNK         0.0600 
    239 H239       -5.2408  -19.9174  -58.0411 H         1 UNK         0.0600 
    240 H240       -1.4558  -18.3672  -55.8214 H         1 UNK         0.3000 
    241 H241       -0.5145  -20.2852  -54.0139 H         1 UNK         0.0600 
    242 H242        1.2304  -21.8442  -54.0084 H         1 UNK         0.3800 
    243 H243        1.8761  -22.4439  -55.5072 H         1 UNK         0.3800 
    244 H244        1.4925  -18.9225  -53.8024 H         1 UNK         0.0800 
    245 H245        1.2642  -18.2061  -55.3688 H         1 UNK         0.0800 
    246 H246       -1.9543  -17.3031  -52.2424 H         1 UNK         0.0800 
    247 H247       -1.2816  -18.8834  -52.4863 H         1 UNK         0.0800 
@<TRIPOS>BOND
     1    1    2 1    
     2    1  127 1    
     3    1  128 1    
     4    1  129 1    
     5    2    3 2    
     6    2    4 am   BACKBONE|DICT|INTERRES
     7    4    5 1    
     8    4  130 1    
     9    5    6 1    
    10    5   65 1    
    11    5  131 1    
    12    6    7 1    
    13    6  132 1    
    14    6  133 1    
    15    7    8 1    
    16    8    9 1    
    17    8  134 1    
    18    8  135 1    
    19    9   10 ar   
    20    9   14 ar   
    21   10   11 ar   
    22   10  136 1    
    23   11   12 ar   
    24   11  126 1    
    25   12   13 ar   
    26   12  137 1    
    27   13   14 ar   
    28   13   15 1    
    29   14  138 1    
    30   15   16 1    
    31   15  139 1    
    32   15  140 1    
    33   16   17 1    
    34   17   18 1    
    35   17  141 1    
    36   17  142 1    
    37   18   19 1    
    38   18   67 1    
    39   18  143 1    
    40   19   20 am   BACKBONE|DICT|INTERRES
    41   19  144 1    
    42   20   21 2    
    43   20   22 1    
    44   22   23 1    
    45   22   24 1    
    46   22  145 1    
    47   23  146 1    
    48   23  147 1    
    49   23  148 1    
    50   24   25 am   BACKBONE|DICT|INTERRES
    51   24  149 1    
    52   25   26 2    
    53   25   27 1    
    54   27   28 1    
    55   27   29 1    
    56   27  150 1    
    57   28  151 1    
    58   28  152 1    
    59   28  153 1    
    60   29   30 am   BACKBONE|DICT|INTERRES
    61   29  154 1    
    62   30   31 2    
    63   30   32 1    
    64   32   33 1    
    65   32   34 1    
    66   32  155 1    
    67   33  156 1    
    68   33  157 1    
    69   33  158 1    
    70   34   35 am   BACKBONE|DICT|INTERRES
    71   34  159 1    
    72   35   36 2    
    73   35   37 1    
    74   37   38 1    
    75   37   39 1    
    76   37  160 1    
    77   38  161 1    
    78   38  162 1    
    79   38  163 1    
    80   39   40 am   BACKBONE|DICT|INTERRES
    81   39  164 1    
    82   40   41 2    
    83   40   42 1    
    84   42   43 1    
    85   42   44 1    
    86   42  165 1    
    87   43  166 1    
    88   43  167 1    
    89   43  168 1    
    90   44   45 am   BACKBONE|DICT|INTERRES
    91   44  169 1    
    92   45   46 2    
    93   45   47 1    
    94   47   48 1    
    95   47   49 1    
    96   47  170 1    
    97   48  171 1    
    98   48  172 1    
    99   48  173 1    
   100   49   50 am   BACKBONE|DICT|INTERRES
   101   49  174 1    
   102   50   51 2    
   103   50   52 1    
   104   52   53 1    
   105   52   54 1    
   106   52  175 1    
   107   53  176 1    
   108   53  177 1    
   109   53  178 1    
   110   54   55 am   BACKBONE|DICT|INTERRES
   111   54  179 1    
   112   55   56 2    
   113   55   57 1    
   114   57   58 1    
   115   57   59 1    
   116   57  180 1    
   117   58  181 1    
   118   58  182 1    
   119   58  183 1    
   120   59   60 am   BACKBONE|DICT|INTERRES
   121   59  184 1    
   122   60   61 2    
   123   60   62 1    
   124   62   63 1    
   125   62   64 1    
   126   62  185 1    
   127   63  186 1    
   128   63  187 1    
   129   63  188 1    
   130   64   65 am   BACKBONE|DICT|INTERRES
   131   64  189 1    
   132   65   66 2    
   133   67   68 2    
   134   67   69 am   BACKBONE|DICT|INTERRES
   135   69   70 1    
   136   69  190 1    
   137   70   71 1    
   138   70   72 1    
   139   70  191 1    
   140   71  192 1    
   141   71  193 1    
   142   71  194 1    
   143   72   73 2    
   144   72   74 am   BACKBONE|DICT|INTERRES
   145   74   75 1    
   146   74  195 1    
   147   75   76 1    
   148   75   77 1    
   149   75  196 1    
   150   76  197 1    
   151   76  198 1    
   152   76  199 1    
   153   77   78 2    
   154   77   79 am   BACKBONE|DICT|INTERRES
   155   79   80 1    
   156   79  200 1    
   157   80   81 1    
   158   80   82 1    
   159   80  201 1    
   160   81  202 1    
   161   81  203 1    
   162   81  204 1    
   163   82   83 2    
   164   82   84 am   BACKBONE|DICT|INTERRES
   165   84   85 1    
   166   84  205 1    
   167   85   86 1    
   168   85   87 1    
   169   85  206 1    
   170   86  207 1    
   171   86  208 1    
   172   86  209 1    
   173   87   88 2    
   174   87   89 am   BACKBONE|DICT|INTERRES
   175   89   90 1    
   176   89  210 1    
   177   90   91 1    
   178   90   92 1    
   179   90  211 1    
   180   91  212 1    
   181   91  213 1    
   182   91  214 1    
   183   92   93 2    
   184   92   94 am   BACKBONE|DICT|INTERRES
   185   94   95 1    
   186   94  215 1    
   187   95   96 1    
   188   95   97 1    
   189   95  216 1    
   190   96  217 1    
   191   96  218 1    
   192   96  219 1    
   193   97   98 2    
   194   97   99 am   BACKBONE|DICT|INTERRES
   195   99  100 1    
   196   99  220 1    
   197  100  101 1    
   198  100  102 1    
   199  100  221 1    
   200  101  222 1    
   201  101  223 1    
   202  101  224 1    
   203  102  103 2    
   204  102  104 am   BACKBONE|DICT|INTERRES
   205  104  105 1    
   206  104  225 1    
   207  105  106 1    
   208  105  107 1    
   209  105  226 1    
   210  106  227 1    
   211  106  228 1    
   212  106  229 1    
   213  107  108 2    
   214  107  109 am   BACKBONE|DICT|INTERRES
   215  109  110 1    
   216  109  230 1    
   217  110  111 1    
   218  110  112 1    
   219  110  231 1    
   220  111  232 1    
   221  111  233 1    
   222  111  234 1    
   223  112  113 2    
   224  112  114 am   BACKBONE|DICT|INTERRES
   225  114  115 1    
   226  114  235 1    
   227  115  116 1    
   228  115  117 1    
   229  115  236 1    
   230  116  237 1    
   231  116  238 1    
   232  116  239 1    
   233  117  118 2    
   234  117  119 am   BACKBONE|DICT|INTERRES
   235  119  120 1    
   236  119  240 1    
   237  120  121 1    
   238  120  124 1    
   239  120  241 1    
   240  121  122 am   BACKBONE|DICT|INTERRES
   241  121  123 2    
   242  122  242 1    
   243  122  243 1    
   244  124  125 1    
   245  124  244 1    
   246  124  245 1    
   247  125  126 1    
   248  126  246 1    
   249  126  247 1    
@<TRIPOS>SUBSTRUCTURE
     1 UNK         1 GROUP             0       ****    0 ROOT    
