@<TRIPOS>MOLECULE
3R540
247   249    1
SMALL
USER_CHARGES


@<TRIPOS>ATOM
      1 CA         -1.3051  -10.5391  -50.8295 C.3       0 UNK        -0.1800 
      2 C          -1.5100  -11.9433  -50.2779 C.2       0 UNK         0.5000 
      3 O          -2.4862  -12.5958  -50.6408 O.2       0 UNK        -0.5000 
      4 N          -0.5962  -12.3832  -49.4000 N.am      1 UNK        -0.5000 
      5 CA         -0.5263  -13.6917  -48.7288 C.3       1 UNK         0.1400 
      6 C6          0.1807  -14.7998  -49.5581 C.3       23 UNK        -0.0398 
      7 S7         -0.6855  -15.4075  -51.0512 S.3       23 UNK        -0.2404 
      8 C8         -0.8965  -17.1774  -50.6694 C.3       23 UNK        -0.0205 
      9 C9          0.4327  -17.9151  -50.6011 C.ar      23 UNK        -0.0193 
     10 C10         1.1112  -18.2491  -51.7762 C.ar      23 UNK        -0.1150 
     11 C11         2.3322  -18.9286  -51.7216 C.ar      23 UNK        -0.0193 
     12 C12         2.8860  -19.2457  -50.4786 C.ar      23 UNK        -0.1150 
     13 C13         2.2196  -18.9168  -49.2956 C.ar      23 UNK        -0.0193 
     14 C14         0.9861  -18.2644  -49.3651 C.ar      23 UNK        -0.1150 
     15 C15         2.8552  -19.2131  -47.9437 C.3       23 UNK        -0.0205 
     16 S16         3.3249  -20.9619  -47.7345 S.3       23 UNK        -0.2404 
     17 C17         1.6814  -21.7195  -47.5393 C.3       23 UNK        -0.0398 
     18 CA          1.7388  -23.1564  -46.9685 C.3       11 UNK         0.1400 
     19 N           2.3814  -23.1968  -45.6534 N.am      11 UNK        -0.5000 
     20 C           2.8051  -24.3014  -45.0304 C.2       10 UNK         0.5000 
     21 O           2.8137  -25.4174  -45.5550 O.2       10 UNK        -0.5000 
     22 CA          3.2866  -24.1142  -43.5746 C.3       10 UNK         0.1400 
     23 CB          3.8855  -25.3980  -42.9618 C.3       10 UNK        -0.1800 
     24 N           4.2045  -22.9815  -43.4061 N.am      10 UNK        -0.5000 
     25 C           5.4041  -22.8069  -43.9779 C.2       9 UNK         0.5000 
     26 O           5.9144  -23.6140  -44.7570 O.2       9 UNK        -0.5000 
     27 CA          6.1566  -21.5082  -43.6082 C.3       9 UNK         0.1400 
     28 CB          7.4180  -21.2891  -44.4638 C.3       9 UNK        -0.1800 
     29 N           5.3024  -20.3268  -43.7331 N.am      9 UNK        -0.5000 
     30 C           4.4791  -19.8436  -42.7938 C.2       8 UNK         0.5000 
     31 O           4.3635  -20.3433  -41.6733 O.2       8 UNK        -0.5000 
     32 CA          3.6026  -18.6266  -43.1757 C.3       8 UNK         0.1400 
     33 CB          3.9038  -18.0615  -44.5787 C.3       8 UNK        -0.1800 
     34 N           2.1655  -18.8997  -43.0521 N.am      8 UNK        -0.5000 
     35 C           1.5004  -19.9692  -43.5172 C.2       7 UNK         0.5000 
     36 O           2.0198  -20.8846  -44.1520 O.2       7 UNK        -0.5000 
     37 CA         -0.0096  -20.0142  -43.2482 C.3       7 UNK         0.1400 
     38 CB         -0.3349  -19.9702  -41.7462 C.3       7 UNK        -0.1800 
     39 N          -0.6738  -18.9118  -43.9326 N.am      7 UNK        -0.5000 
     40 C          -1.0091  -18.9246  -45.2304 C.2       6 UNK         0.5000 
     41 O          -0.9092  -19.9136  -45.9513 O.2       6 UNK        -0.5000 
     42 CA         -1.5282  -17.6056  -45.8267 C.3       6 UNK         0.1400 
     43 CB         -3.0615  -17.5421  -45.7384 C.3       6 UNK        -0.1800 
     44 N          -0.9302  -16.4515  -45.1508 N.am      6 UNK        -0.5000 
     45 C           0.3279  -16.0366  -45.3709 C.2       5 UNK         0.5000 
     46 O           1.0413  -16.4896  -46.2650 O.2       5 UNK        -0.5000 
     47 CA          0.9134  -14.9601  -44.4349 C.3       5 UNK         0.1400 
     48 CB          1.1307  -13.6312  -45.1734 C.3       5 UNK        -0.1800 
     49 N           0.1007  -14.7264  -43.2419 N.am      5 UNK        -0.5000 
     50 C           0.0813  -15.5336  -42.1717 C.2       4 UNK         0.5000 
     51 O           0.7665  -16.5527  -42.0747 O.2       4 UNK        -0.5000 
     52 CA         -0.9061  -15.1744  -41.0436 C.3       4 UNK         0.1400 
     53 CB         -0.2161  -14.3039  -39.9834 C.3       4 UNK        -0.1800 
     54 N          -2.1160  -14.4928  -41.5150 N.am      4 UNK        -0.5000 
     55 C          -3.0026  -15.0169  -42.3724 C.2       3 UNK         0.5000 
     56 O          -2.8856  -16.1457  -42.8494 O.2       3 UNK        -0.5000 
     57 CA         -4.2014  -14.1444  -42.8018 C.3       3 UNK         0.1400 
     58 CB         -4.2574  -12.7604  -42.1155 C.3       3 UNK        -0.1800 
     59 N          -4.2734  -13.9937  -44.2606 N.am      3 UNK        -0.5000 
     60 C          -3.3273  -13.4844  -45.0629 C.2       2 UNK         0.5000 
     61 O          -2.2320  -13.0816  -44.6621 O.2       2 UNK        -0.5000 
     62 CA         -3.6925  -13.3760  -46.5550 C.3       2 UNK         0.1400 
     63 CB         -4.6446  -12.1924  -46.7900 C.3       2 UNK        -0.1800 
     64 N          -2.4965  -13.1681  -47.3686 N.am      2 UNK        -0.5000 
     65 C          -1.8274  -14.1308  -48.0147 C.2       1 UNK         0.5000 
     66 O          -2.1889  -15.3060  -48.0425 O.2       1 UNK        -0.5000 
     67 C           0.3145  -23.7453  -46.8866 C.2       11 UNK         0.5000 
     68 O          -0.3385  -23.6509  -45.8431 O.2       11 UNK        -0.5000 
     69 N          -0.1633  -24.3112  -48.0024 N.am      12 UNK        -0.5000 
     70 CA         -1.5132  -24.8682  -48.1243 C.3       12 UNK         0.1400 
     71 CB         -1.5624  -25.8253  -49.3248 C.3       12 UNK        -0.1800 
     72 C          -2.6071  -23.7884  -48.2320 C.2       12 UNK         0.5000 
     73 O          -3.7787  -24.0948  -48.0097 O.2       12 UNK        -0.5000 
     74 N          -2.2167  -22.5443  -48.5460 N.am      13 UNK        -0.5000 
     75 CA         -3.0771  -21.3640  -48.6783 C.3       13 UNK         0.1400 
     76 CB         -2.2278  -20.1634  -49.1233 C.3       13 UNK        -0.1800 
     77 C          -3.9214  -21.0222  -47.4324 C.2       13 UNK         0.5000 
     78 O          -4.9364  -20.3408  -47.5633 O.2       13 UNK        -0.5000 
     79 N          -3.5435  -21.5386  -46.2557 N.am      14 UNK        -0.5000 
     80 CA         -4.3477  -21.4833  -45.0336 C.3       14 UNK         0.1400 
     81 CB         -3.5152  -22.0186  -43.8604 C.3       14 UNK        -0.1800 
     82 C          -5.6850  -22.2489  -45.1441 C.2       14 UNK         0.5000 
     83 O          -6.6416  -21.8845  -44.4595 O.2       14 UNK        -0.5000 
     84 N          -5.7315  -23.2762  -46.0042 N.am      15 UNK        -0.5000 
     85 CA         -6.9245  -24.0635  -46.3142 C.3       15 UNK         0.1400 
     86 CB         -6.5993  -25.5548  -46.1345 C.3       15 UNK        -0.1800 
     87 C          -7.4166  -23.7927  -47.7469 C.2       15 UNK         0.5000 
     88 O          -8.6250  -23.7067  -47.9656 O.2       15 UNK        -0.5000 
     89 N          -6.4805  -23.6612  -48.6975 N.am      16 UNK        -0.5000 
     90 CA         -6.7502  -23.4851  -50.1284 C.3       16 UNK         0.1400 
     91 CB         -5.5207  -23.9656  -50.9187 C.3       16 UNK        -0.1800 
     92 C          -7.1289  -22.0447  -50.5350 C.2       16 UNK         0.5000 
     93 O          -7.4765  -21.8319  -51.6974 O.2       16 UNK        -0.5000 
     94 N          -7.0456  -21.0987  -49.5879 N.am      17 UNK        -0.5000 
     95 CA         -7.1691  -19.6427  -49.7291 C.3       17 UNK         0.1400 
     96 CB         -8.4730  -19.2320  -50.4456 C.3       17 UNK        -0.1800 
     97 C          -5.9210  -19.0121  -50.3789 C.2       17 UNK         0.5000 
     98 O          -5.0465  -19.7193  -50.8865 O.2       17 UNK        -0.5000 
     99 N          -5.8473  -17.6754  -50.3329 N.am      18 UNK        -0.5000 
    100 CA        -4.7243  -16.8533  -50.7974 C.3       18 UNK         0.1400 
    101 CB        -4.8262  -15.4709  -50.1303 C.3       18 UNK        -0.1800 
    102 C         -4.6221  -16.7668  -52.3386 C.2       18 UNK         0.5000 
    103 O         -4.5928  -15.6731  -52.9056 O.2       18 UNK        -0.5000 
    104 N         -4.6000  -17.9310  -52.9904 N.am      19 UNK        -0.5000 
    105 CA        -4.4872  -18.1092  -54.4314 C.3       19 UNK         0.1400 
    106 CB        -5.3370  -19.3282  -54.8274 C.3       19 UNK        -0.1800 
    107 C         -3.0232  -18.3334  -54.8406 C.2       19 UNK         0.5000 
    108 O         -2.2038  -18.7686  -54.0267 O.2       19 UNK        -0.5000 
    109 N         -2.7436  -18.1157  -56.1326 N.am      20 UNK        -0.5000 
    110 CA        -1.4467  -18.3536  -56.7796 C.3       20 UNK         0.1400 
    111 CB        -1.4837  -17.7499  -58.1925 C.3       20 UNK        -0.1800 
    112 C         -1.0251  -19.8393  -56.8331 C.2       20 UNK         0.5000 
    113 O          0.1277  -20.1304  -57.1517 O.2       20 UNK        -0.5000 
    114 N         -1.9556  -20.7490  -56.5106 N.am      21 UNK        -0.5000 
    115 CA        -1.7112  -22.1750  -56.2960 C.3       21 UNK         0.1400 
    116 CB        -3.0639  -22.9037  -56.2569 C.3       21 UNK        -0.1800 
    117 C         -0.9045  -22.4701  -55.0128 C.2       21 UNK         0.5000 
    118 O         -0.3303  -23.5546  -54.9101 O.2       21 UNK        -0.5000 
    119 N         -0.8757  -21.5163  -54.0680 N.am      22 UNK        -0.5000 
    120 CA        -0.1095  -21.5555  -52.8066 C.3       22 UNK         0.1400 
    121 C         -0.6422  -22.5687  -51.7494 C.2       22 UNK         0.5000 
    122 N         -1.8428  -23.1124  -51.9106 N.am      22 UNK        -0.7600 
    123 O          0.0155  -22.8370  -50.7465 O.2       22 UNK        -0.5000 
    124 C124        1.4286  -21.6675  -53.0255 C.3       23 UNK        -0.0398 
    125 S125        2.0688  -20.3485  -54.1217 S.3       23 UNK        -0.2404 
    126 C126        3.0678  -19.3194  -52.9964 C.3       23 UNK        -0.0205 
    127 H127       -0.4082  -10.0689  -50.4255 H         1 UNK         0.0600 
    128 H128       -2.1599   -9.9101  -50.5809 H         1 UNK         0.0600 
    129 H129       -1.2105  -10.5736  -51.9149 H         1 UNK         0.0600 
    130 H130        0.1599  -11.7563  -49.1626 H         1 UNK         0.3000 
    131 H131        0.1538  -13.5019  -47.8992 H         1 UNK         0.0600 
    132 H132        1.1562  -14.4352  -49.8812 H         1 UNK         0.0800 
    133 H133        0.4009  -15.6383  -48.8986 H         1 UNK         0.0800 
    134 H134       -1.5197  -17.6345  -51.4398 H         1 UNK         0.0800 
    135 H135       -1.4410  -17.2787  -49.7300 H         1 UNK         0.0800 
    136 H136        0.6820  -17.9898  -52.7343 H         1 UNK         0.1150 
    137 H137        3.8405  -19.7505  -50.4269 H         1 UNK         0.1150 
    138 H138        0.4687  -18.0044  -48.4530 H         1 UNK         0.1150 
    139 H139        3.7483  -18.5957  -47.8423 H         1 UNK         0.0800 
    140 H140        2.1860  -18.9225  -47.1319 H         1 UNK         0.0800 
    141 H141        1.1899  -21.7037  -48.5136 H         1 UNK         0.0800 
    142 H142        1.0906  -21.0823  -46.8829 H         1 UNK         0.0800 
    143 H143        2.3260  -23.7755  -47.6502 H         1 UNK         0.0600 
    144 H144        2.3653  -22.3217  -45.1307 H         1 UNK         0.3000 
    145 H145        2.3950  -23.8651  -42.9974 H         1 UNK         0.0600 
    146 H146        4.1783  -25.2398  -41.9238 H         1 UNK         0.0600 
    147 H147        3.1586  -26.2110  -42.9723 H         1 UNK         0.0600 
    148 H148        4.7640  -25.7389  -43.5102 H         1 UNK         0.0600 
    149 H149        3.8657  -22.2304  -42.8176 H         1 UNK         0.3000 
    150 H150        6.4773  -21.6112  -42.5694 H         1 UNK         0.0600 
    151 H151        8.1165  -22.1196  -44.3542 H         1 UNK         0.0600 
    152 H152        7.9457  -20.3837  -44.1633 H         1 UNK         0.0600 
    153 H153        7.1746  -21.1997  -45.5234 H         1 UNK         0.0600 
    154 H154        5.2846  -19.8923  -44.6443 H         1 UNK         0.3000 
    155 H155        3.8296  -17.8462  -42.4482 H         1 UNK         0.0600 
    156 H156        4.9428  -17.7409  -44.6645 H         1 UNK         0.0600 
    157 H157        3.2841  -17.1925  -44.7943 H         1 UNK         0.0600 
    158 H158        3.7142  -18.8016  -45.3536 H         1 UNK         0.0600 
    159 H159        1.6366  -18.1851  -42.5590 H         1 UNK         0.3000 
    160 H160       -0.3803  -20.9632  -43.6408 H         1 UNK         0.0600 
    161 H161       -0.0375  -19.0279  -41.2859 H         1 UNK         0.0600 
    162 H162        0.1780  -20.7723  -41.2140 H         1 UNK         0.0600 
    163 H163       -1.4038  -20.0991  -41.5754 H         1 UNK         0.0600 
    164 H164       -0.7693  -18.0479  -43.4188 H         1 UNK         0.3000 
    165 H165       -1.2528  -17.5755  -46.8824 H         1 UNK         0.0600 
    166 H166       -3.4381  -16.5527  -45.9932 H         1 UNK         0.0600 
    167 H167       -3.5122  -18.2463  -46.4366 H         1 UNK         0.0600 
    168 H168       -3.4272  -17.7965  -44.7438 H         1 UNK         0.0600 
    169 H169       -1.4670  -16.0447  -44.3941 H         1 UNK         0.3000 
    170 H170        1.8936  -15.3182  -44.1141 H         1 UNK         0.0600 
    171 H171        1.7823  -13.7674  -46.0373 H         1 UNK         0.0600 
    172 H172        0.1935  -13.2065  -45.5295 H         1 UNK         0.0600 
    173 H173        1.6053  -12.8947  -44.5249 H         1 UNK         0.0600 
    174 H174       -0.5383  -13.9419  -43.2787 H         1 UNK         0.3000 
    175 H175       -1.2141  -16.1094  -40.5710 H         1 UNK         0.0600 
    176 H176        0.6773  -14.7954  -39.5956 H         1 UNK         0.0600 
    177 H177        0.0903  -13.3398  -40.3914 H         1 UNK         0.0600 
    178 H178       -0.8757  -14.1165  -39.1359 H         1 UNK         0.0600 
    179 H179       -2.2674  -13.5529  -41.1787 H         1 UNK         0.3000 
    180 H180       -5.0944  -14.6955  -42.5036 H         1 UNK         0.0600 
    181 H181       -4.3071  -12.8581  -41.0303 H         1 UNK         0.0600 
    182 H182       -3.3920  -12.1426  -42.3582 H         1 UNK         0.0600 
    183 H183       -5.1471  -12.2115  -42.4246 H         1 UNK         0.0600 
    184 H184       -5.1313  -14.3210  -44.6816 H         1 UNK         0.3000 
    185 H185       -4.1991  -14.2947  -46.8573 H         1 UNK         0.0600 
    186 H186       -5.5748  -12.3165  -46.2344 H         1 UNK         0.0600 
    187 H187       -4.1984  -11.2475  -46.4768 H         1 UNK         0.0600 
    188 H188       -4.9076  -12.1050  -47.8446 H         1 UNK         0.0600 
    189 H189       -2.1090  -12.2364  -47.3566 H         1 UNK         0.3000 
    190 H190        0.3931  -24.3002  -48.8478 H         1 UNK         0.3000 
    191 H191       -1.7310  -25.4502  -47.2262 H         1 UNK         0.0600 
    192 H192       -1.2641  -25.3345  -50.2503 H         1 UNK         0.0600 
    193 H193       -2.5673  -26.2245  -49.4703 H         1 UNK         0.0600 
    194 H194       -0.8971  -26.6753  -49.1727 H         1 UNK         0.0600 
    195 H195       -1.2390  -22.4065  -48.7608 H         1 UNK         0.3000 
    196 H196       -3.7891  -21.5775  -49.4756 H         1 UNK         0.0600 
    197 H197       -2.8132  -19.2434  -49.1150 H         1 UNK         0.0600 
    198 H198       -1.8602  -20.2988  -50.1400 H         1 UNK         0.0600 
    199 H199       -1.3655  -20.0113  -48.4762 H         1 UNK         0.0600 
    200 H200       -2.6692  -22.0436  -46.2098 H         1 UNK         0.3000 
    201 H201       -4.5844  -20.4360  -44.8347 H         1 UNK         0.0600 
    202 H202       -2.6382  -21.3966  -43.6921 H         1 UNK         0.0600 
    203 H203       -3.1763  -23.0400  -44.0389 H         1 UNK         0.0600 
    204 H204       -4.0927  -22.0179  -42.9351 H         1 UNK         0.0600 
    205 H205       -4.8990  -23.4979  -46.5409 H         1 UNK         0.3000 
    206 H206       -7.7396  -23.8120  -45.6326 H         1 UNK         0.0600 
    207 H207       -6.3060  -25.7709  -45.1071 H         1 UNK         0.0600 
    208 H208       -7.4672  -26.1748  -46.3624 H         1 UNK         0.0600 
    209 H209       -5.7858  -25.8731  -46.7880 H         1 UNK         0.0600 
    210 H210       -5.5037  -23.7858  -48.4417 H         1 UNK         0.3000 
    211 H211       -7.5922  -24.1251  -50.4002 H         1 UNK         0.0600 
    212 H212       -5.7092  -23.9383  -51.9926 H         1 UNK         0.0600 
    213 H213       -5.2609  -24.9927  -50.6616 H         1 UNK         0.0600 
    214 H214       -4.6493  -23.3412  -50.7257 H         1 UNK         0.0600 
    215 H215       -6.6895  -21.3919  -48.6884 H         1 UNK         0.3000 
    216 H216       -7.2182  -19.2589  -48.7091 H         1 UNK         0.0600 
    217 H217       -8.6652  -18.1653  -50.3272 H         1 UNK         0.0600 
    218 H218       -9.3335  -19.7609  -50.0355 H         1 UNK         0.0600 
    219 H219       -8.4326  -19.4324  -51.5165 H         1 UNK         0.0600 
    220 H220       -6.6179  -17.1668  -49.9252 H         1 UNK         0.3000 
    221 H221       -3.8023  -17.3174  -50.4450 H         1 UNK         0.0600 
    222 H222       -5.7258  -14.9368  -50.4379 H         1 UNK         0.0600 
    223 H223       -4.8382  -15.5567  -49.0438 H         1 UNK         0.0600 
    224 H224       -3.9677  -14.8510  -50.3909 H         1 UNK         0.0600 
    225 H225       -4.6105  -18.7782  -52.4273 H         1 UNK         0.3000 
    226 H226       -4.8701  -17.2269  -54.9485 H         1 UNK         0.0600 
    227 H227       -6.3797  -19.1889  -54.5410 H         1 UNK         0.0600 
    228 H228       -5.3181  -19.4928  -55.9054 H         1 UNK         0.0600 
    229 H229       -4.9812  -20.2411  -54.3470 H         1 UNK         0.0600 
    230 H230       -3.4795  -17.7778  -56.7365 H         1 UNK         0.3000 
    231 H231       -0.6842  -17.8273  -56.2014 H         1 UNK         0.0600 
    232 H232       -1.7008  -16.6820  -58.1606 H         1 UNK         0.0600 
    233 H233       -2.2403  -18.2296  -58.8146 H         1 UNK         0.0600 
    234 H234       -0.5227  -17.8681  -58.6951 H         1 UNK         0.0600 
    235 H235       -2.8807  -20.4139  -56.2904 H         1 UNK         0.3000 
    236 H236       -1.1368  -22.5567  -57.1425 H         1 UNK         0.0600 
    237 H237       -3.6158  -22.7614  -57.1863 H         1 UNK         0.0600 
    238 H238       -2.9260  -23.9776  -56.1242 H         1 UNK         0.0600 
    239 H239       -3.6895  -22.5491  -55.4366 H         1 UNK         0.0600 
    240 H240       -1.3780  -20.6505  -54.2314 H         1 UNK         0.3000 
    241 H241       -0.2947  -20.5862  -52.3451 H         1 UNK         0.0600 
    242 H242       -2.1902  -23.7637  -51.2303 H         1 UNK         0.3800 
    243 H243       -2.3913  -22.8903  -52.7246 H         1 UNK         0.3800 
    244 H244        1.9574  -21.6304  -52.0721 H         1 UNK         0.0800 
    245 H245        1.6844  -22.6325  -53.4637 H         1 UNK         0.0800 
    246 H246        3.9869  -19.8589  -52.7625 H         1 UNK         0.0800 
    247 H247        3.3697  -18.4128  -53.5222 H         1 UNK         0.0800 
@<TRIPOS>BOND
     1    1    2 1    
     2    1  127 1    
     3    1  128 1    
     4    1  129 1    
     5    2    3 2    
     6    2    4 am   BACKBONE|DICT|INTERRES
     7    4    5 1    
     8    4  130 1    
     9    5    6 1    
    10    5   65 1    
    11    5  131 1    
    12    6    7 1    
    13    6  132 1    
    14    6  133 1    
    15    7    8 1    
    16    8    9 1    
    17    8  134 1    
    18    8  135 1    
    19    9   10 ar   
    20    9   14 ar   
    21   10   11 ar   
    22   10  136 1    
    23   11   12 ar   
    24   11  126 1    
    25   12   13 ar   
    26   12  137 1    
    27   13   14 ar   
    28   13   15 1    
    29   14  138 1    
    30   15   16 1    
    31   15  139 1    
    32   15  140 1    
    33   16   17 1    
    34   17   18 1    
    35   17  141 1    
    36   17  142 1    
    37   18   19 1    
    38   18   67 1    
    39   18  143 1    
    40   19   20 am   BACKBONE|DICT|INTERRES
    41   19  144 1    
    42   20   21 2    
    43   20   22 1    
    44   22   23 1    
    45   22   24 1    
    46   22  145 1    
    47   23  146 1    
    48   23  147 1    
    49   23  148 1    
    50   24   25 am   BACKBONE|DICT|INTERRES
    51   24  149 1    
    52   25   26 2    
    53   25   27 1    
    54   27   28 1    
    55   27   29 1    
    56   27  150 1    
    57   28  151 1    
    58   28  152 1    
    59   28  153 1    
    60   29   30 am   BACKBONE|DICT|INTERRES
    61   29  154 1    
    62   30   31 2    
    63   30   32 1    
    64   32   33 1    
    65   32   34 1    
    66   32  155 1    
    67   33  156 1    
    68   33  157 1    
    69   33  158 1    
    70   34   35 am   BACKBONE|DICT|INTERRES
    71   34  159 1    
    72   35   36 2    
    73   35   37 1    
    74   37   38 1    
    75   37   39 1    
    76   37  160 1    
    77   38  161 1    
    78   38  162 1    
    79   38  163 1    
    80   39   40 am   BACKBONE|DICT|INTERRES
    81   39  164 1    
    82   40   41 2    
    83   40   42 1    
    84   42   43 1    
    85   42   44 1    
    86   42  165 1    
    87   43  166 1    
    88   43  167 1    
    89   43  168 1    
    90   44   45 am   BACKBONE|DICT|INTERRES
    91   44  169 1    
    92   45   46 2    
    93   45   47 1    
    94   47   48 1    
    95   47   49 1    
    96   47  170 1    
    97   48  171 1    
    98   48  172 1    
    99   48  173 1    
   100   49   50 am   BACKBONE|DICT|INTERRES
   101   49  174 1    
   102   50   51 2    
   103   50   52 1    
   104   52   53 1    
   105   52   54 1    
   106   52  175 1    
   107   53  176 1    
   108   53  177 1    
   109   53  178 1    
   110   54   55 am   BACKBONE|DICT|INTERRES
   111   54  179 1    
   112   55   56 2    
   113   55   57 1    
   114   57   58 1    
   115   57   59 1    
   116   57  180 1    
   117   58  181 1    
   118   58  182 1    
   119   58  183 1    
   120   59   60 am   BACKBONE|DICT|INTERRES
   121   59  184 1    
   122   60   61 2    
   123   60   62 1    
   124   62   63 1    
   125   62   64 1    
   126   62  185 1    
   127   63  186 1    
   128   63  187 1    
   129   63  188 1    
   130   64   65 am   BACKBONE|DICT|INTERRES
   131   64  189 1    
   132   65   66 2    
   133   67   68 2    
   134   67   69 am   BACKBONE|DICT|INTERRES
   135   69   70 1    
   136   69  190 1    
   137   70   71 1    
   138   70   72 1    
   139   70  191 1    
   140   71  192 1    
   141   71  193 1    
   142   71  194 1    
   143   72   73 2    
   144   72   74 am   BACKBONE|DICT|INTERRES
   145   74   75 1    
   146   74  195 1    
   147   75   76 1    
   148   75   77 1    
   149   75  196 1    
   150   76  197 1    
   151   76  198 1    
   152   76  199 1    
   153   77   78 2    
   154   77   79 am   BACKBONE|DICT|INTERRES
   155   79   80 1    
   156   79  200 1    
   157   80   81 1    
   158   80   82 1    
   159   80  201 1    
   160   81  202 1    
   161   81  203 1    
   162   81  204 1    
   163   82   83 2    
   164   82   84 am   BACKBONE|DICT|INTERRES
   165   84   85 1    
   166   84  205 1    
   167   85   86 1    
   168   85   87 1    
   169   85  206 1    
   170   86  207 1    
   171   86  208 1    
   172   86  209 1    
   173   87   88 2    
   174   87   89 am   BACKBONE|DICT|INTERRES
   175   89   90 1    
   176   89  210 1    
   177   90   91 1    
   178   90   92 1    
   179   90  211 1    
   180   91  212 1    
   181   91  213 1    
   182   91  214 1    
   183   92   93 2    
   184   92   94 am   BACKBONE|DICT|INTERRES
   185   94   95 1    
   186   94  215 1    
   187   95   96 1    
   188   95   97 1    
   189   95  216 1    
   190   96  217 1    
   191   96  218 1    
   192   96  219 1    
   193   97   98 2    
   194   97   99 am   BACKBONE|DICT|INTERRES
   195   99  100 1    
   196   99  220 1    
   197  100  101 1    
   198  100  102 1    
   199  100  221 1    
   200  101  222 1    
   201  101  223 1    
   202  101  224 1    
   203  102  103 2    
   204  102  104 am   BACKBONE|DICT|INTERRES
   205  104  105 1    
   206  104  225 1    
   207  105  106 1    
   208  105  107 1    
   209  105  226 1    
   210  106  227 1    
   211  106  228 1    
   212  106  229 1    
   213  107  108 2    
   214  107  109 am   BACKBONE|DICT|INTERRES
   215  109  110 1    
   216  109  230 1    
   217  110  111 1    
   218  110  112 1    
   219  110  231 1    
   220  111  232 1    
   221  111  233 1    
   222  111  234 1    
   223  112  113 2    
   224  112  114 am   BACKBONE|DICT|INTERRES
   225  114  115 1    
   226  114  235 1    
   227  115  116 1    
   228  115  117 1    
   229  115  236 1    
   230  116  237 1    
   231  116  238 1    
   232  116  239 1    
   233  117  118 2    
   234  117  119 am   BACKBONE|DICT|INTERRES
   235  119  120 1    
   236  119  240 1    
   237  120  121 1    
   238  120  124 1    
   239  120  241 1    
   240  121  122 am   BACKBONE|DICT|INTERRES
   241  121  123 2    
   242  122  242 1    
   243  122  243 1    
   244  124  125 1    
   245  124  244 1    
   246  124  245 1    
   247  125  126 1    
   248  126  246 1    
   249  126  247 1    
@<TRIPOS>SUBSTRUCTURE
     1 UNK         1 GROUP             0       ****    0 ROOT    
