@<TRIPOS>MOLECULE
3R540
247   249    1
SMALL
USER_CHARGES


@<TRIPOS>ATOM
      1 CA         -1.5272  -11.1529  -49.8809 C.3       0 UNK        -0.1800 
      2 C          -0.9814  -11.9806  -48.7261 C.2       0 UNK         0.5000 
      3 O          -1.7586  -12.5710  -47.9770 O.2       0 UNK        -0.5000 
      4 N           0.3511  -12.0178  -48.5778 N.am      1 UNK        -0.5000 
      5 CA          1.0963  -12.7931  -47.5723 C.3       1 UNK         0.1400 
      6 C6          0.7812  -14.3150  -47.6388 C.3       23 UNK        -0.0398 
      7 S7          2.2143  -15.3791  -47.2517 S.3       23 UNK        -0.2404 
      8 C8          2.9604  -15.6728  -48.8867 C.3       23 UNK        -0.0205 
      9 C9          2.0211  -16.4056  -49.8332 C.ar      23 UNK        -0.0193 
     10 C10         1.3824  -15.7045  -50.8623 C.ar      23 UNK        -0.1150 
     11 C11         0.4960  -16.3593  -51.7190 C.ar      23 UNK        -0.0193 
     12 C12         0.2694  -17.7253  -51.5540 C.ar      23 UNK        -0.1150 
     13 C13         0.9110  -18.4441  -50.5440 C.ar      23 UNK        -0.0193 
     14 C14         1.7865  -17.7777  -49.6803 C.ar      23 UNK        -0.1150 
     15 C15         0.6532  -19.9382  -50.4134 C.3       23 UNK        -0.0205 
     16 S16        -1.0392  -20.2823  -49.8347 S.3       23 UNK        -0.2404 
     17 C17        -0.8512  -20.1259  -48.0274 C.3       23 UNK        -0.0398 
     18 CA         -1.0904  -21.4790  -47.3109 C.3       11 UNK         0.1400 
     19 N          -0.3414  -21.5839  -46.0558 N.am      11 UNK        -0.5000 
     20 C          -0.2214  -22.7022  -45.3263 C.2       10 UNK         0.5000 
     21 O          -0.6967  -23.7868  -45.6591 O.2       10 UNK        -0.5000 
     22 CA          0.5027  -22.5798  -43.9724 C.3       10 UNK         0.1400 
     23 CB          2.0267  -22.6232  -44.1545 C.3       10 UNK        -0.1800 
     24 N           0.1191  -21.3710  -43.2409 N.am      10 UNK        -0.5000 
     25 C          -1.1198  -21.1323  -42.7859 C.2       9 UNK         0.5000 
     26 O          -2.0474  -21.9352  -42.8828 O.2       9 UNK        -0.5000 
     27 CA         -1.3851  -19.7497  -42.1652 C.3       9 UNK         0.1400 
     28 CB         -0.9213  -19.7103  -40.7019 C.3       9 UNK        -0.1800 
     29 N          -0.7522  -18.6641  -42.9136 N.am      9 UNK        -0.5000 
     30 C          -1.0382  -18.3387  -44.1831 C.2       8 UNK         0.5000 
     31 O          -1.9074  -18.8938  -44.8549 O.2       8 UNK        -0.5000 
     32 CA         -0.1614  -17.2502  -44.8271 C.3       8 UNK         0.1400 
     33 CB         -0.5832  -15.8545  -44.3439 C.3       8 UNK        -0.1800 
     34 N           1.2595  -17.4629  -44.5509 N.am      8 UNK        -0.5000 
     35 C           1.9600  -18.5348  -44.9478 C.2       7 UNK         0.5000 
     36 O           1.4932  -19.4384  -45.6388 O.2       7 UNK        -0.5000 
     37 CA          3.4045  -18.6523  -44.4367 C.3       7 UNK         0.1400 
     38 CB          4.3828  -17.9100  -45.3591 C.3       7 UNK        -0.1800 
     39 N           3.5289  -18.1569  -43.0662 N.am      7 UNK        -0.5000 
     40 C           3.0709  -18.8082  -41.9878 C.2       6 UNK         0.5000 
     41 O           2.5465  -19.9213  -42.0366 O.2       6 UNK        -0.5000 
     42 CA          3.1841  -18.0788  -40.6349 C.3       6 UNK         0.1400 
     43 CB          4.5817  -18.2759  -40.0292 C.3       6 UNK        -0.1800 
     44 N           2.8975  -16.6461  -40.7365 N.am      6 UNK        -0.5000 
     45 C           1.6906  -16.1378  -41.0222 C.2       5 UNK         0.5000 
     46 O           0.6833  -16.8279  -41.1730 O.2       5 UNK        -0.5000 
     47 CA          1.5954  -14.6099  -41.2173 C.3       5 UNK         0.1400 
     48 CB          1.2673  -13.9180  -39.8864 C.3       5 UNK        -0.1800 
     49 N           2.7846  -13.9825  -41.8059 N.am      5 UNK        -0.5000 
     50 C           3.3609  -14.3418  -42.9609 C.2       4 UNK         0.5000 
     51 O           2.9991  -15.3107  -43.6276 O.2       4 UNK        -0.5000 
     52 CA          4.5183  -13.4571  -43.4423 C.3       4 UNK         0.1400 
     53 CB          5.2480  -14.0363  -44.6685 C.3       4 UNK        -0.1800 
     54 N           3.9886  -12.1403  -43.7798 N.am      4 UNK        -0.5000 
     55 C           4.5395  -10.9705  -43.4304 C.2       3 UNK         0.5000 
     56 O           5.5491  -10.8811  -42.7302 O.2       3 UNK        -0.5000 
     57 CA          3.8828   -9.6760  -43.9567 C.3       3 UNK         0.1400 
     58 CB          4.7867   -9.0045  -45.0033 C.3       3 UNK        -0.1800 
     59 N           2.5636   -9.8865  -44.5534 N.am      3 UNK        -0.5000 
     60 C           1.4262  -10.0554  -43.8671 C.2       2 UNK         0.5000 
     61 O           1.3544  -10.0009  -42.6391 O.2       2 UNK        -0.5000 
     62 CA          0.1586  -10.3592  -44.6928 C.3       2 UNK         0.1400 
     63 CB         -0.6434   -9.0725  -44.9401 C.3       2 UNK        -0.1800 
     64 N           0.4136  -11.0156  -45.9816 N.am      2 UNK        -0.5000 
     65 C           0.9881  -12.2183  -46.1370 C.2       1 UNK         0.5000 
     66 O           1.4577  -12.8482  -45.1915 O.2       1 UNK        -0.5000 
     67 C          -2.5958  -21.7567  -47.1099 C.2       11 UNK         0.5000 
     68 O          -3.1923  -22.4850  -47.9044 O.2       11 UNK        -0.5000 
     69 N          -3.1721  -21.2093  -46.0299 N.am      12 UNK        -0.5000 
     70 CA         -4.5562  -21.4415  -45.6180 C.3       12 UNK         0.1400 
     71 CB         -4.9265  -20.4854  -44.4746 C.3       12 UNK        -0.1800 
     72 C          -4.8165  -22.9064  -45.2229 C.2       12 UNK         0.5000 
     73 O          -5.8180  -23.4768  -45.6549 O.2       12 UNK        -0.5000 
     74 N          -3.8916  -23.5079  -44.4601 N.am      13 UNK        -0.5000 
     75 CA         -3.9179  -24.9227  -44.0747 C.3       13 UNK         0.1400 
     76 CB         -2.8080  -25.1971  -43.0491 C.3       13 UNK        -0.1800 
     77 C          -3.7977  -25.8778  -45.2789 C.2       13 UNK         0.5000 
     78 O          -4.4444  -26.9253  -45.2932 O.2       13 UNK        -0.5000 
     79 N          -3.0117  -25.4751  -46.2860 N.am      14 UNK        -0.5000 
     80 CA         -2.8724  -26.1497  -47.5779 C.3       14 UNK         0.1400 
     81 CB         -1.5446  -25.7142  -48.2206 C.3       14 UNK        -0.1800 
     82 C          -4.0488  -25.8889  -48.5433 C.2       14 UNK         0.5000 
     83 O          -4.0293  -26.4178  -49.6552 O.2       14 UNK        -0.5000 
     84 N          -5.0251  -25.0620  -48.1356 N.am      15 UNK        -0.5000 
     85 CA         -6.2098  -24.6373  -48.8888 C.3       15 UNK         0.1400 
     86 CB         -7.1744  -25.8243  -49.0934 C.3       15 UNK        -0.1800 
     87 C          -5.8493  -23.9243  -50.2074 C.2       15 UNK         0.5000 
     88 O          -6.4631  -24.1918  -51.2411 O.2       15 UNK        -0.5000 
     89 N          -4.8160  -23.0693  -50.1592 N.am      16 UNK        -0.5000 
     90 CA         -4.2110  -22.3579  -51.2916 C.3       16 UNK         0.1400 
     91 CB         -5.2027  -21.3368  -51.8885 C.3       16 UNK        -0.1800 
     92 C          -3.6253  -23.3147  -52.3528 C.2       16 UNK         0.5000 
     93 O          -3.6621  -23.0101  -53.5446 O.2       16 UNK        -0.5000 
     94 N          -3.1352  -24.4777  -51.8991 N.am      17 UNK        -0.5000 
     95 CA         -2.6708  -25.6213  -52.6938 C.3       17 UNK         0.1400 
     96 CB         -1.4914  -25.2309  -53.6107 C.3       17 UNK        -0.1800 
     97 C          -3.8072  -26.3463  -53.4517 C.2       17 UNK         0.5000 
     98 O          -3.5262  -27.0967  -54.3868 O.2       17 UNK        -0.5000 
     99 N          -5.0586  -26.1231  -53.0203 N.am      18 UNK        -0.5000 
    100 CA        -6.3165  -26.6835  -53.5203 C.3       18 UNK         0.1400 
    101 CB        -6.4381  -28.1537  -53.0699 C.3       18 UNK        -0.1800 
    102 C         -6.5160  -26.5048  -55.0452 C.2       18 UNK         0.5000 
    103 O         -6.5417  -27.4986  -55.7717 O.2       18 UNK        -0.5000 
    104 N         -6.6488  -25.2789  -55.5697 N.am      19 UNK        -0.5000 
    105 CA        -6.6620  -23.9746  -54.9039 C.3       19 UNK         0.1400 
    106 CB        -8.0933  -23.6247  -54.4539 C.3       19 UNK        -0.1800 
    107 C         -6.0588  -22.9461  -55.8782 C.2       19 UNK         0.5000 
    108 O         -6.6984  -21.9485  -56.2139 O.2       19 UNK        -0.5000 
    109 N         -4.8602  -23.2650  -56.3833 N.am      20 UNK        -0.5000 
    110 CA        -4.1613  -22.5208  -57.4309 C.3       20 UNK         0.1400 
    111 CB        -3.1159  -23.4483  -58.0707 C.3       20 UNK        -0.1800 
    112 C         -3.4933  -21.2181  -56.9503 C.2       20 UNK         0.5000 
    113 O         -3.2710  -20.3263  -57.7716 O.2       20 UNK        -0.5000 
    114 N         -3.1542  -21.1319  -55.6574 N.am      21 UNK        -0.5000 
    115 CA        -2.4973  -19.9726  -55.0502 C.3       21 UNK         0.1400 
    116 CB        -1.7150  -20.4441  -53.8121 C.3       21 UNK        -0.1800 
    117 C         -3.5027  -18.8484  -54.7146 C.2       21 UNK         0.5000 
    118 O         -4.7081  -19.0099  -54.9196 O.2       21 UNK        -0.5000 
    119 N         -2.9900  -17.7161  -54.2109 N.am      22 UNK        -0.5000 
    120 CA        -3.7862  -16.5138  -53.8929 C.3       22 UNK         0.1400 
    121 C         -4.7975  -16.6556  -52.7129 C.2       22 UNK         0.5000 
    122 N         -4.6854  -17.6656  -51.8586 N.am      22 UNK        -0.7600 
    123 O         -5.7041  -15.8377  -52.5799 O.2       22 UNK        -0.5000 
    124 C124       -2.9020  -15.2413  -53.7627 C.3       23 UNK        -0.0398 
    125 S125       -1.9083  -15.1530  -52.2292 S.3       23 UNK        -0.2404 
    126 C126       -0.2452  -15.6028  -52.8076 C.3       23 UNK        -0.0205 
    127 H127       -2.0807  -11.7923  -50.5691 H         1 UNK         0.0600 
    128 H128       -0.7311  -10.6611  -50.4404 H         1 UNK         0.0600 
    129 H129       -2.2046  -10.3854  -49.5065 H         1 UNK         0.0600 
    130 H130        0.9258  -11.4940  -49.2239 H         1 UNK         0.3000 
    131 H131        2.1419  -12.6585  -47.8532 H         1 UNK         0.0600 
    132 H132       -0.0376  -14.5726  -46.9665 H         1 UNK         0.0800 
    133 H133        0.4113  -14.5820  -48.6267 H         1 UNK         0.0800 
    134 H134        3.8696  -16.2610  -48.7555 H         1 UNK         0.0800 
    135 H135        3.2739  -14.7189  -49.3135 H         1 UNK         0.0800 
    136 H136        1.5548  -14.6438  -50.9804 H         1 UNK         0.1150 
    137 H137       -0.4309  -18.2258  -52.2010 H         1 UNK         0.1150 
    138 H138        2.2798  -18.3200  -48.8856 H         1 UNK         0.1150 
    139 H139        0.7865  -20.4040  -51.3908 H         1 UNK         0.0800 
    140 H140        1.3818  -20.4100  -49.7521 H         1 UNK         0.0800 
    141 H141       -1.5199  -19.3460  -47.6585 H         1 UNK         0.0800 
    142 H142        0.1552  -19.7623  -47.8224 H         1 UNK         0.0800 
    143 H143       -0.7016  -22.2747  -47.9502 H         1 UNK         0.0600 
    144 H144        0.1337  -20.7426  -45.7385 H         1 UNK         0.3000 
    145 H145        0.2140  -23.4394  -43.3641 H         1 UNK         0.0600 
    146 H146        2.5404  -22.5784  -43.1939 H         1 UNK         0.0600 
    147 H147        2.3327  -23.5481  -44.6447 H         1 UNK         0.0600 
    148 H148        2.3865  -21.7960  -44.7652 H         1 UNK         0.0600 
    149 H149        0.8431  -20.6795  -43.0836 H         1 UNK         0.3000 
    150 H150       -2.4633  -19.5796  -42.1838 H         1 UNK         0.0600 
    151 H151       -1.3897  -20.5062  -40.1216 H         1 UNK         0.0600 
    152 H152       -1.1875  -18.7642  -40.2304 H         1 UNK         0.0600 
    153 H153        0.1588  -19.8328  -40.6174 H         1 UNK         0.0600 
    154 H154       -0.0572  -18.1160  -42.4144 H         1 UNK         0.3000 
    155 H155       -0.2946  -17.2947  -45.9101 H         1 UNK         0.0600 
    156 H156       -1.5623  -15.5874  -44.7427 H         1 UNK         0.0600 
    157 H157        0.1236  -15.0916  -44.6667 H         1 UNK         0.0600 
    158 H158       -0.6501  -15.8018  -43.2580 H         1 UNK         0.0600 
    159 H159        1.7516  -16.7270  -44.0521 H         1 UNK         0.3000 
    160 H160        3.6771  -19.7095  -44.4456 H         1 UNK         0.0600 
    161 H161        4.1657  -16.8436  -45.4080 H         1 UNK         0.0600 
    162 H162        4.3262  -18.2982  -46.3768 H         1 UNK         0.0600 
    163 H163        5.4122  -18.0278  -45.0208 H         1 UNK         0.0600 
    164 H164        3.8435  -17.2012  -42.9638 H         1 UNK         0.3000 
    165 H165        2.4534  -18.5242  -39.9562 H         1 UNK         0.0600 
    166 H166        4.6473  -17.8308  -39.0361 H         1 UNK         0.0600 
    167 H167        4.8152  -19.3363  -39.9250 H         1 UNK         0.0600 
    168 H168        5.3583  -17.8281  -40.6505 H         1 UNK         0.0600 
    169 H169        3.6748  -16.0117  -40.6289 H         1 UNK         0.3000 
    170 H170        0.7689  -14.4241  -41.9052 H         1 UNK         0.0600 
    171 H171        1.0815  -12.8533  -40.0304 H         1 UNK         0.0600 
    172 H172        0.3705  -14.3442  -39.4346 H         1 UNK         0.0600 
    173 H173        2.0802  -14.0240  -39.1669 H         1 UNK         0.0600 
    174 H174        3.1376  -13.1638  -41.3320 H         1 UNK         0.3000 
    175 H175        5.2319  -13.3907  -42.6187 H         1 UNK         0.0600 
    176 H176        4.5789  -14.1347  -45.5245 H         1 UNK         0.0600 
    177 H177        6.0812  -13.4004  -44.9673 H         1 UNK         0.0600 
    178 H178        5.6546  -15.0245  -44.4509 H         1 UNK         0.0600 
    179 H179        3.1191  -12.1510  -44.3055 H         1 UNK         0.3000 
    180 H180        3.7801   -8.9949  -43.1092 H         1 UNK         0.0600 
    181 H181        4.9307   -9.6404  -45.8777 H         1 UNK         0.0600 
    182 H182        5.7724   -8.7877  -44.5895 H         1 UNK         0.0600 
    183 H183        4.3639   -8.0581  -45.3412 H         1 UNK         0.0600 
    184 H184        2.5261   -9.9504  -45.5599 H         1 UNK         0.3000 
    185 H185       -0.4577  -11.0361  -44.0976 H         1 UNK         0.0600 
    186 H186       -1.5899   -9.2865  -45.4370 H         1 UNK         0.0600 
    187 H187       -0.8779   -8.5707  -44.0004 H         1 UNK         0.0600 
    188 H188       -0.0894   -8.3665  -45.5601 H         1 UNK         0.0600 
    189 H189        0.0603  -10.5509  -46.8050 H         1 UNK         0.3000 
    190 H190       -2.6267  -20.5720  -45.4556 H         1 UNK         0.3000 
    191 H191       -5.1976  -21.2101  -46.4711 H         1 UNK         0.0600 
    192 H192       -4.7990  -19.4451  -44.7745 H         1 UNK         0.0600 
    193 H193       -5.9688  -20.6147  -44.1806 H         1 UNK         0.0600 
    194 H194       -4.3130  -20.6547  -43.5900 H         1 UNK         0.0600 
    195 H195       -3.1197  -22.9534  -44.0986 H         1 UNK         0.3000 
    196 H196       -4.8789  -25.1173  -43.5944 H         1 UNK         0.0600 
    197 H197       -2.8261  -26.2375  -42.7224 H         1 UNK         0.0600 
    198 H198       -2.9286  -24.5752  -42.1620 H         1 UNK         0.0600 
    199 H199       -1.8192  -25.0000  -43.4634 H         1 UNK         0.0600 
    200 H200       -2.4559  -24.6353  -46.1572 H         1 UNK         0.3000 
    201 H201       -2.8290  -27.2268  -47.4058 H         1 UNK         0.0600 
    202 H202       -0.7005  -25.9304  -47.5654 H         1 UNK         0.0600 
    203 H203       -1.5341  -24.6456  -48.4364 H         1 UNK         0.0600 
    204 H204       -1.3674  -26.2408  -49.1591 H         1 UNK         0.0600 
    205 H205       -4.9398  -24.6508  -47.2141 H         1 UNK         0.3000 
    206 H206       -6.7204  -23.8970  -48.2717 H         1 UNK         0.0600 
    207 H207       -7.4198  -26.2998  -48.1439 H         1 UNK         0.0600 
    208 H208       -8.1118  -25.4933  -49.5419 H         1 UNK         0.0600 
    209 H209       -6.7495  -26.5846  -49.7497 H         1 UNK         0.0600 
    210 H210       -4.3424  -22.9339  -49.2665 H         1 UNK         0.3000 
    211 H211       -3.3664  -21.8019  -50.8856 H         1 UNK         0.0600 
    212 H212       -6.0539  -21.8239  -52.3644 H         1 UNK         0.0600 
    213 H213       -4.7245  -20.7189  -52.6472 H         1 UNK         0.0600 
    214 H214       -5.5866  -20.6657  -51.1206 H         1 UNK         0.0600 
    215 H215       -3.2080  -24.6585  -50.9066 H         1 UNK         0.3000 
    216 H216       -2.2923  -26.3447  -51.9703 H         1 UNK         0.0600 
    217 H217       -1.0237  -26.1169  -54.0412 H         1 UNK         0.0600 
    218 H218       -1.8091  -24.5992  -54.4405 H         1 UNK         0.0600 
    219 H219       -0.7204  -24.6956  -53.0566 H         1 UNK         0.0600 
    220 H220       -5.1778  -25.4671  -52.2570 H         1 UNK         0.3000 
    221 H221       -7.1205  -26.1351  -53.0300 H         1 UNK         0.0600 
    222 H222       -5.6538  -28.7767  -53.5013 H         1 UNK         0.0600 
    223 H223       -6.3717  -28.2376  -51.9849 H         1 UNK         0.0600 
    224 H224       -7.3974  -28.5770  -53.3697 H         1 UNK         0.0600 
    225 H225       -6.7404  -25.2172  -56.5740 H         1 UNK         0.3000 
    226 H226       -6.0251  -23.9770  -54.0236 H         1 UNK         0.0600 
    227 H227       -8.4774  -24.3485  -53.7361 H         1 UNK         0.0600 
    228 H228       -8.1189  -22.6487  -53.9675 H         1 UNK         0.0600 
    229 H229       -8.7832  -23.5921  -55.2979 H         1 UNK         0.0600 
    230 H230       -4.3972  -24.0912  -56.0330 H         1 UNK         0.3000 
    231 H231       -4.8873  -22.2490  -58.2002 H         1 UNK         0.0600 
    232 H232       -2.3695  -23.7731  -57.3444 H         1 UNK         0.0600 
    233 H233       -2.5879  -22.9437  -58.8811 H         1 UNK         0.0600 
    234 H234       -3.5830  -24.3378  -58.4938 H         1 UNK         0.0600 
    235 H235       -3.4101  -21.8868  -55.0251 H         1 UNK         0.3000 
    236 H236       -1.7775  -19.5738  -55.7681 H         1 UNK         0.0600 
    237 H237       -1.2736  -21.4294  -53.9652 H         1 UNK         0.0600 
    238 H238       -0.8893  -19.7684  -53.6050 H         1 UNK         0.0600 
    239 H239       -2.3394  -20.4950  -52.9206 H         1 UNK         0.0600 
    240 H240       -1.9978  -17.6494  -54.0473 H         1 UNK         0.3000 
    241 H241       -4.4151  -16.3447  -54.7694 H         1 UNK         0.0600 
    242 H242       -3.9355  -18.3295  -51.9510 H         1 UNK         0.3800 
    243 H243       -5.3454  -17.7484  -51.1026 H         1 UNK         0.3800 
    244 H244       -3.5386  -14.3553  -53.7856 H         1 UNK         0.0800 
    245 H245       -2.2503  -15.1447  -54.6319 H         1 UNK         0.0800 
    246 H246        0.2970  -14.6995  -53.0912 H         1 UNK         0.0800 
    247 H247       -0.3042  -16.2223  -53.7032 H         1 UNK         0.0800 
@<TRIPOS>BOND
     1    1    2 1    
     2    1  127 1    
     3    1  128 1    
     4    1  129 1    
     5    2    3 2    
     6    2    4 am   BACKBONE|DICT|INTERRES
     7    4    5 1    
     8    4  130 1    
     9    5    6 1    
    10    5   65 1    
    11    5  131 1    
    12    6    7 1    
    13    6  132 1    
    14    6  133 1    
    15    7    8 1    
    16    8    9 1    
    17    8  134 1    
    18    8  135 1    
    19    9   10 ar   
    20    9   14 ar   
    21   10   11 ar   
    22   10  136 1    
    23   11   12 ar   
    24   11  126 1    
    25   12   13 ar   
    26   12  137 1    
    27   13   14 ar   
    28   13   15 1    
    29   14  138 1    
    30   15   16 1    
    31   15  139 1    
    32   15  140 1    
    33   16   17 1    
    34   17   18 1    
    35   17  141 1    
    36   17  142 1    
    37   18   19 1    
    38   18   67 1    
    39   18  143 1    
    40   19   20 am   BACKBONE|DICT|INTERRES
    41   19  144 1    
    42   20   21 2    
    43   20   22 1    
    44   22   23 1    
    45   22   24 1    
    46   22  145 1    
    47   23  146 1    
    48   23  147 1    
    49   23  148 1    
    50   24   25 am   BACKBONE|DICT|INTERRES
    51   24  149 1    
    52   25   26 2    
    53   25   27 1    
    54   27   28 1    
    55   27   29 1    
    56   27  150 1    
    57   28  151 1    
    58   28  152 1    
    59   28  153 1    
    60   29   30 am   BACKBONE|DICT|INTERRES
    61   29  154 1    
    62   30   31 2    
    63   30   32 1    
    64   32   33 1    
    65   32   34 1    
    66   32  155 1    
    67   33  156 1    
    68   33  157 1    
    69   33  158 1    
    70   34   35 am   BACKBONE|DICT|INTERRES
    71   34  159 1    
    72   35   36 2    
    73   35   37 1    
    74   37   38 1    
    75   37   39 1    
    76   37  160 1    
    77   38  161 1    
    78   38  162 1    
    79   38  163 1    
    80   39   40 am   BACKBONE|DICT|INTERRES
    81   39  164 1    
    82   40   41 2    
    83   40   42 1    
    84   42   43 1    
    85   42   44 1    
    86   42  165 1    
    87   43  166 1    
    88   43  167 1    
    89   43  168 1    
    90   44   45 am   BACKBONE|DICT|INTERRES
    91   44  169 1    
    92   45   46 2    
    93   45   47 1    
    94   47   48 1    
    95   47   49 1    
    96   47  170 1    
    97   48  171 1    
    98   48  172 1    
    99   48  173 1    
   100   49   50 am   BACKBONE|DICT|INTERRES
   101   49  174 1    
   102   50   51 2    
   103   50   52 1    
   104   52   53 1    
   105   52   54 1    
   106   52  175 1    
   107   53  176 1    
   108   53  177 1    
   109   53  178 1    
   110   54   55 am   BACKBONE|DICT|INTERRES
   111   54  179 1    
   112   55   56 2    
   113   55   57 1    
   114   57   58 1    
   115   57   59 1    
   116   57  180 1    
   117   58  181 1    
   118   58  182 1    
   119   58  183 1    
   120   59   60 am   BACKBONE|DICT|INTERRES
   121   59  184 1    
   122   60   61 2    
   123   60   62 1    
   124   62   63 1    
   125   62   64 1    
   126   62  185 1    
   127   63  186 1    
   128   63  187 1    
   129   63  188 1    
   130   64   65 am   BACKBONE|DICT|INTERRES
   131   64  189 1    
   132   65   66 2    
   133   67   68 2    
   134   67   69 am   BACKBONE|DICT|INTERRES
   135   69   70 1    
   136   69  190 1    
   137   70   71 1    
   138   70   72 1    
   139   70  191 1    
   140   71  192 1    
   141   71  193 1    
   142   71  194 1    
   143   72   73 2    
   144   72   74 am   BACKBONE|DICT|INTERRES
   145   74   75 1    
   146   74  195 1    
   147   75   76 1    
   148   75   77 1    
   149   75  196 1    
   150   76  197 1    
   151   76  198 1    
   152   76  199 1    
   153   77   78 2    
   154   77   79 am   BACKBONE|DICT|INTERRES
   155   79   80 1    
   156   79  200 1    
   157   80   81 1    
   158   80   82 1    
   159   80  201 1    
   160   81  202 1    
   161   81  203 1    
   162   81  204 1    
   163   82   83 2    
   164   82   84 am   BACKBONE|DICT|INTERRES
   165   84   85 1    
   166   84  205 1    
   167   85   86 1    
   168   85   87 1    
   169   85  206 1    
   170   86  207 1    
   171   86  208 1    
   172   86  209 1    
   173   87   88 2    
   174   87   89 am   BACKBONE|DICT|INTERRES
   175   89   90 1    
   176   89  210 1    
   177   90   91 1    
   178   90   92 1    
   179   90  211 1    
   180   91  212 1    
   181   91  213 1    
   182   91  214 1    
   183   92   93 2    
   184   92   94 am   BACKBONE|DICT|INTERRES
   185   94   95 1    
   186   94  215 1    
   187   95   96 1    
   188   95   97 1    
   189   95  216 1    
   190   96  217 1    
   191   96  218 1    
   192   96  219 1    
   193   97   98 2    
   194   97   99 am   BACKBONE|DICT|INTERRES
   195   99  100 1    
   196   99  220 1    
   197  100  101 1    
   198  100  102 1    
   199  100  221 1    
   200  101  222 1    
   201  101  223 1    
   202  101  224 1    
   203  102  103 2    
   204  102  104 am   BACKBONE|DICT|INTERRES
   205  104  105 1    
   206  104  225 1    
   207  105  106 1    
   208  105  107 1    
   209  105  226 1    
   210  106  227 1    
   211  106  228 1    
   212  106  229 1    
   213  107  108 2    
   214  107  109 am   BACKBONE|DICT|INTERRES
   215  109  110 1    
   216  109  230 1    
   217  110  111 1    
   218  110  112 1    
   219  110  231 1    
   220  111  232 1    
   221  111  233 1    
   222  111  234 1    
   223  112  113 2    
   224  112  114 am   BACKBONE|DICT|INTERRES
   225  114  115 1    
   226  114  235 1    
   227  115  116 1    
   228  115  117 1    
   229  115  236 1    
   230  116  237 1    
   231  116  238 1    
   232  116  239 1    
   233  117  118 2    
   234  117  119 am   BACKBONE|DICT|INTERRES
   235  119  120 1    
   236  119  240 1    
   237  120  121 1    
   238  120  124 1    
   239  120  241 1    
   240  121  122 am   BACKBONE|DICT|INTERRES
   241  121  123 2    
   242  122  242 1    
   243  122  243 1    
   244  124  125 1    
   245  124  244 1    
   246  124  245 1    
   247  125  126 1    
   248  126  246 1    
   249  126  247 1    
@<TRIPOS>SUBSTRUCTURE
     1 UNK         1 GROUP             0       ****    0 ROOT    
