@<TRIPOS>MOLECULE
3R540
247   249    1
SMALL
USER_CHARGES


@<TRIPOS>ATOM
      1 CA          4.5471  -16.3057  -47.5028 C.3       0 UNK        -0.1800 
      2 C           3.4397  -15.3779  -47.0249 C.2       0 UNK         0.5000 
      3 O           3.3990  -15.0343  -45.8440 O.2       0 UNK        -0.5000 
      4 N           2.5477  -14.9711  -47.9384 N.am      1 UNK        -0.5000 
      5 CA          1.4547  -14.0156  -47.7215 C.3       1 UNK         0.1400 
      6 C6          0.6314  -13.8033  -49.0130 C.3       23 UNK        -0.0398 
      7 S7         -0.3273  -15.2892  -49.4779 S.3       23 UNK        -0.2404 
      8 C8         -2.0171  -14.6188  -49.3821 C.3       23 UNK        -0.0205 
      9 C9         -3.0529  -15.5387  -50.0100 C.ar      23 UNK        -0.0193 
     10 C10        -3.0168  -15.7834  -51.3864 C.ar      23 UNK        -0.1150 
     11 C11        -4.0250  -16.5281  -52.0022 C.ar      23 UNK        -0.0193 
     12 C12        -5.0740  -17.0316  -51.2308 C.ar      23 UNK        -0.1150 
     13 C13        -5.1204  -16.8021  -49.8528 C.ar      23 UNK        -0.0193 
     14 C14        -4.0983  -16.0663  -49.2430 C.ar      23 UNK        -0.1150 
     15 C15        -6.3276  -17.2726  -49.0551 C.3       23 UNK        -0.0205 
     16 S16        -6.4906  -19.0861  -49.0424 S.3       23 UNK        -0.2404 
     17 C17        -5.8454  -19.5380  -47.3996 C.3       23 UNK        -0.0398 
     18 CA         -4.6656  -20.5307  -47.4949 C.3       11 UNK         0.1400 
     19 N          -3.4585  -19.9032  -48.0417 N.am      11 UNK        -0.5000 
     20 C          -2.3749  -20.5661  -48.4651 C.2       10 UNK         0.5000 
     21 O          -2.2675  -21.7948  -48.4408 O.2       10 UNK        -0.5000 
     22 CA         -1.1941  -19.7066  -48.9562 C.3       10 UNK         0.1400 
     23 CB         -1.4260  -19.2441  -50.4035 C.3       10 UNK        -0.1800 
     24 N          -0.8947  -18.5358  -48.1220 N.am      10 UNK        -0.5000 
     25 C          -0.6979  -18.5517  -46.7966 C.2       9 UNK         0.5000 
     26 O          -0.9201  -19.5285  -46.0814 O.2       9 UNK        -0.5000 
     27 CA         -0.1924  -17.2506  -46.1534 C.3       9 UNK         0.1400 
     28 CB         -1.3768  -16.3483  -45.7772 C.3       9 UNK        -0.1800 
     29 N           0.6209  -17.5131  -44.9628 N.am      9 UNK        -0.5000 
     30 C           1.8126  -18.1333  -44.9860 C.2       8 UNK         0.5000 
     31 O           2.3614  -18.4990  -46.0262 O.2       8 UNK        -0.5000 
     32 CA          2.5313  -18.3888  -43.6455 C.3       8 UNK         0.1400 
     33 CB          3.8232  -17.5644  -43.5568 C.3       8 UNK        -0.1800 
     34 N           1.7012  -18.0877  -42.4797 N.am      8 UNK        -0.5000 
     35 C           0.8481  -18.9570  -41.9194 C.2       7 UNK         0.5000 
     36 O           0.7078  -20.1179  -42.3041 O.2       7 UNK        -0.5000 
     37 CA         -0.0013  -18.4498  -40.7370 C.3       7 UNK         0.1400 
     38 CB          0.6123  -18.9007  -39.4042 C.3       7 UNK        -0.1800 
     39 N          -0.1838  -16.9944  -40.7387 N.am      7 UNK        -0.5000 
     40 C          -0.9278  -16.3452  -41.6470 C.2       6 UNK         0.5000 
     41 O          -1.5368  -16.9285  -42.5424 O.2       6 UNK        -0.5000 
     42 CA         -0.9612  -14.8049  -41.6188 C.3       6 UNK         0.1400 
     43 CB         -2.3782  -14.2400  -41.8485 C.3       6 UNK        -0.1800 
     44 N          -0.3139  -14.1936  -40.4565 N.am      6 UNK        -0.5000 
     45 C          -0.7272  -14.1811  -39.1816 C.2       5 UNK         0.5000 
     46 O          -1.7837  -14.6792  -38.7904 O.2       5 UNK        -0.5000 
     47 CA          0.2463  -13.5156  -38.1824 C.3       5 UNK         0.1400 
     48 CB         -0.1064  -13.8029  -36.7076 C.3       5 UNK        -0.1800 
     49 N           1.6496  -13.8552  -38.4620 N.am      5 UNK        -0.5000 
     50 C           2.1803  -15.0879  -38.4914 C.2       4 UNK         0.5000 
     51 O           1.5459  -16.1082  -38.2260 O.2       4 UNK        -0.5000 
     52 CA          3.6498  -15.1857  -38.9510 C.3       4 UNK         0.1400 
     53 CB          4.1092  -16.6391  -39.1985 C.3       4 UNK        -0.1800 
     54 N           3.9283  -14.3544  -40.1292 N.am      4 UNK        -0.5000 
     55 C           3.3446  -14.4450  -41.3333 C.2       3 UNK         0.5000 
     56 O           2.4504  -15.2519  -41.6097 O.2       3 UNK        -0.5000 
     57 CA          3.8693  -13.4633  -42.4001 C.3       3 UNK         0.1400 
     58 CB          5.2675  -13.8762  -42.8891 C.3       3 UNK        -0.1800 
     59 N           2.9811  -13.3761  -43.5560 N.am      3 UNK        -0.5000 
     60 C           1.7795  -12.7907  -43.5640 C.2       2 UNK         0.5000 
     61 O           1.3092  -12.1658  -42.6118 O.2       2 UNK        -0.5000 
     62 CA          0.9994  -12.9340  -44.8777 C.3       2 UNK         0.1400 
     63 CB         -0.4317  -12.3701  -44.8230 C.3       2 UNK        -0.1800 
     64 N           1.7442  -12.2563  -45.9402 N.am      2 UNK        -0.5000 
     65 C           2.0022  -12.6648  -47.1912 C.2       1 UNK         0.5000 
     66 O           2.6947  -11.9822  -47.9466 O.2       1 UNK        -0.5000 
     67 C          -4.4343  -21.2056  -46.1266 C.2       11 UNK         0.5000 
     68 O          -5.1050  -22.1935  -45.8286 O.2       11 UNK        -0.5000 
     69 N          -3.5079  -20.6771  -45.3193 N.am      12 UNK        -0.5000 
     70 CA         -3.1660  -21.2266  -44.0085 C.3       12 UNK         0.1400 
     71 CB         -2.6957  -20.0889  -43.0905 C.3       12 UNK        -0.1800 
     72 C          -2.0890  -22.3171  -44.1235 C.2       12 UNK         0.5000 
     73 O          -2.1802  -23.3399  -43.4439 O.2       12 UNK        -0.5000 
     74 N          -1.0917  -22.0739  -44.9816 N.am      13 UNK        -0.5000 
     75 CA          0.0823  -22.9188  -45.1610 C.3       13 UNK         0.1400 
     76 CB          1.1727  -22.1126  -45.8835 C.3       13 UNK        -0.1800 
     77 C          -0.2089  -24.2254  -45.9160 C.2       13 UNK         0.5000 
     78 O           0.3463  -25.2610  -45.5450 O.2       13 UNK        -0.5000 
     79 N          -1.0373  -24.1616  -46.9688 N.am      14 UNK        -0.5000 
     80 CA         -1.2270  -25.2761  -47.9018 C.3       14 UNK         0.1400 
     81 CB         -0.1261  -25.2192  -48.9796 C.3       14 UNK        -0.1800 
     82 C          -2.6302  -25.3188  -48.5293 C.2       14 UNK         0.5000 
     83 O          -2.7958  -25.9589  -49.5680 O.2       14 UNK        -0.5000 
     84 N          -3.6135  -24.6216  -47.9370 N.am      15 UNK        -0.5000 
     85 CA         -4.9994  -24.4987  -48.4248 C.3       15 UNK         0.1400 
     86 CB         -5.7452  -25.8404  -48.2679 C.3       15 UNK        -0.1800 
     87 C          -5.0973  -23.9290  -49.8606 C.2       15 UNK         0.5000 
     88 O          -6.0140  -24.2774  -50.6053 O.2       15 UNK        -0.5000 
     89 N          -4.1120  -23.0942  -50.2243 N.am      16 UNK        -0.5000 
     90 CA         -3.8404  -22.5086  -51.5392 C.3       16 UNK         0.1400 
     91 CB         -4.9995  -21.6055  -52.0047 C.3       16 UNK        -0.1800 
     92 C          -3.4172  -23.5185  -52.6269 C.2       16 UNK         0.5000 
     93 O          -3.1871  -23.0980  -53.7609 O.2       16 UNK        -0.5000 
     94 N          -3.2723  -24.8110  -52.2956 N.am      17 UNK        -0.5000 
     95 CA         -2.9301  -25.8750  -53.2456 C.3       17 UNK         0.1400 
     96 CB         -3.1212  -27.2466  -52.5828 C.3       17 UNK        -0.1800 
     97 C          -1.5057  -25.7370  -53.8101 C.2       17 UNK         0.5000 
     98 O          -1.2936  -25.9914  -54.9957 O.2       17 UNK        -0.5000 
     99 N          -0.5710  -25.2655  -52.9721 N.am      18 UNK        -0.5000 
    100 CA         0.8099  -24.9458  -53.3518 C.3       18 UNK         0.1400 
    101 CB         1.6326  -24.6857  -52.0812 C.3       18 UNK        -0.1800 
    102 C          0.9173  -23.7450  -54.3150 C.2       18 UNK         0.5000 
    103 O          1.9138  -23.6254  -55.0279 O.2       18 UNK        -0.5000 
    104 N         -0.1176  -22.8956  -54.3301 N.am      19 UNK        -0.5000 
    105 CA        -0.2757  -21.7498  -55.2234 C.3       19 UNK         0.1400 
    106 CB        -0.7887  -20.5645  -54.3912 C.3       19 UNK        -0.1800 
    107 C         -1.2155  -22.0691  -56.4072 C.2       19 UNK         0.5000 
    108 O         -1.6372  -21.1474  -57.1064 O.2       19 UNK        -0.5000 
    109 N         -1.5262  -23.3599  -56.6119 N.am      20 UNK        -0.5000 
    110 CA        -2.3804  -23.9204  -57.6635 C.3       20 UNK         0.1400 
    111 CB        -1.7620  -23.6892  -59.0589 C.3       20 UNK        -0.1800 
    112 C         -3.8526  -23.4676  -57.5649 C.2       20 UNK         0.5000 
    113 O         -4.4982  -23.2519  -58.5922 O.2       20 UNK        -0.5000 
    114 N         -4.3545  -23.3548  -56.3253 N.am      21 UNK        -0.5000 
    115 CA        -5.7083  -22.9445  -55.9416 C.3       21 UNK         0.1400 
    116 CB        -6.7615  -23.9579  -56.4366 C.3       21 UNK        -0.1800 
    117 C         -6.0000  -21.4930  -56.3649 C.2       21 UNK         0.5000 
    118 O         -6.9364  -21.2368  -57.1243 O.2       21 UNK        -0.5000 
    119 N         -5.1611  -20.5722  -55.8741 N.am      22 UNK        -0.5000 
    120 CA        -5.2138  -19.1315  -56.1734 C.3       22 UNK         0.1400 
    121 C         -6.4797  -18.3707  -55.6720 C.2       22 UNK         0.5000 
    122 N         -7.2781  -18.9237  -54.7669 N.am      22 UNK        -0.7600 
    123 O         -6.7428  -17.2581  -56.1203 O.2       22 UNK        -0.5000 
    124 C124       -3.9049  -18.4159  -55.7479 C.3       23 UNK        -0.0398 
    125 S125       -3.5894  -18.4475  -53.9464 S.3       23 UNK        -0.2404 
    126 C126       -4.0216  -16.7382  -53.5066 C.3       23 UNK        -0.0205 
    127 H127        4.3813  -16.6407  -48.5268 H         1 UNK         0.0600 
    128 H128        4.6031  -17.1864  -46.8636 H         1 UNK         0.0600 
    129 H129        5.5078  -15.7930  -47.4603 H         1 UNK         0.0600 
    130 H130        2.6486  -15.2924  -48.8902 H         1 UNK         0.3000 
    131 H131        0.7693  -14.4593  -47.0080 H         1 UNK         0.0600 
    132 H132       -0.0531  -12.9620  -48.8893 H         1 UNK         0.0800 
    133 H133        1.2821  -13.5347  -49.8472 H         1 UNK         0.0800 
    134 H134       -2.0561  -13.6642  -49.9091 H         1 UNK         0.0800 
    135 H135       -2.2627  -14.4029  -48.3416 H         1 UNK         0.0800 
    136 H136       -2.2167  -15.3656  -51.9815 H         1 UNK         0.1150 
    137 H137       -5.8685  -17.5876  -51.7093 H         1 UNK         0.1150 
    138 H138       -4.1457  -15.8582  -48.1834 H         1 UNK         0.1150 
    139 H139       -6.3104  -16.8768  -48.0391 H         1 UNK         0.0800 
    140 H140       -7.2236  -16.8557  -49.5172 H         1 UNK         0.0800 
    141 H141       -6.6813  -19.9792  -46.8526 H         1 UNK         0.0800 
    142 H142       -5.5534  -18.6503  -46.8369 H         1 UNK         0.0800 
    143 H143       -4.9576  -21.3260  -48.1821 H         1 UNK         0.0600 
    144 H144       -3.4628  -18.8964  -48.1100 H         1 UNK         0.3000 
    145 H145       -0.3056  -20.3408  -48.9409 H         1 UNK         0.0600 
    146 H146       -1.5342  -20.0934  -51.0772 H         1 UNK         0.0600 
    147 H147       -0.5876  -18.6519  -50.7708 H         1 UNK         0.0600 
    148 H148       -2.3269  -18.6356  -50.4942 H         1 UNK         0.0600 
    149 H149       -0.7231  -17.6746  -48.6233 H         1 UNK         0.3000 
    150 H150        0.4372  -16.7346  -46.8782 H         1 UNK         0.0600 
    151 H151       -1.9419  -16.0589  -46.6625 H         1 UNK         0.0600 
    152 H152       -1.0465  -15.4337  -45.2863 H         1 UNK         0.0600 
    153 H153       -2.0702  -16.8572  -45.1070 H         1 UNK         0.0600 
    154 H154        0.1904  -17.3227  -44.0686 H         1 UNK         0.3000 
    155 H155        2.8106  -19.4443  -43.6250 H         1 UNK         0.0600 
    156 H156        3.6142  -16.5000  -43.6456 H         1 UNK         0.0600 
    157 H157        4.5145  -17.8286  -44.3577 H         1 UNK         0.0600 
    158 H158        4.3389  -17.7294  -42.6107 H         1 UNK         0.0600 
    159 H159        1.7795  -17.1497  -42.0983 H         1 UNK         0.3000 
    160 H160       -0.9880  -18.9092  -40.8200 H         1 UNK         0.0600 
    161 H161        1.6333  -18.5375  -39.2879 H         1 UNK         0.0600 
    162 H162        0.6458  -19.9889  -39.3411 H         1 UNK         0.0600 
    163 H163        0.0276  -18.5430  -38.5565 H         1 UNK         0.0600 
    164 H164        0.3169  -16.4684  -40.0324 H         1 UNK         0.3000 
    165 H165       -0.3541  -14.5041  -42.4709 H         1 UNK         0.0600 
    166 H166       -2.3758  -13.1500  -41.8384 H         1 UNK         0.0600 
    167 H167       -3.0813  -14.5830  -41.0894 H         1 UNK         0.0600 
    168 H168       -2.7706  -14.5531  -42.8168 H         1 UNK         0.0600 
    169 H169        0.5884  -13.7820  -40.6543 H         1 UNK         0.3000 
    170 H170        0.1516  -12.4401  -38.3384 H         1 UNK         0.0600 
    171 H171       -1.1036  -13.4335  -36.4660 H         1 UNK         0.0600 
    172 H172       -0.0920  -14.8704  -36.4858 H         1 UNK         0.0600 
    173 H173        0.5932  -13.3107  -36.0322 H         1 UNK         0.0600 
    174 H174        2.2469  -13.0794  -38.7121 H         1 UNK         0.3000 
    175 H175        4.2514  -14.7847  -38.1341 H         1 UNK         0.0600 
    176 H176        3.5343  -17.1192  -39.9908 H         1 UNK         0.0600 
    177 H177        5.1609  -16.6758  -39.4821 H         1 UNK         0.0600 
    178 H178        3.9953  -17.2451  -38.2989 H         1 UNK         0.0600 
    179 H179        4.6473  -13.6558  -40.0006 H         1 UNK         0.3000 
    180 H180        3.9375  -12.4728  -41.9455 H         1 UNK         0.0600 
    181 H181        5.2574  -14.8549  -43.3687 H         1 UNK         0.0600 
    182 H182        5.9801  -13.9225  -42.0650 H         1 UNK         0.0600 
    183 H183        5.6572  -13.1585  -43.6113 H         1 UNK         0.0600 
    184 H184        3.2537  -13.9164  -44.3754 H         1 UNK         0.3000 
    185 H185        0.9428  -14.0104  -45.0258 H         1 UNK         0.0600 
    186 H186       -1.0096  -12.8285  -44.0219 H         1 UNK         0.0600 
    187 H187       -0.4317  -11.2930  -44.6518 H         1 UNK         0.0600 
    188 H188       -0.9650  -12.5603  -45.7545 H         1 UNK         0.0600 
    189 H189        2.1649  -11.3863  -45.6459 H         1 UNK         0.3000 
    190 H190       -2.9198  -19.9263  -45.6601 H         1 UNK         0.3000 
    191 H191       -4.0521  -21.6745  -43.5533 H         1 UNK         0.0600 
    192 H192       -2.4307  -20.4697  -42.1037 H         1 UNK         0.0600 
    193 H193       -3.4770  -19.3413  -42.9531 H         1 UNK         0.0600 
    194 H194       -1.8186  -19.5813  -43.4930 H         1 UNK         0.0600 
    195 H195       -1.0765  -21.1750  -45.4613 H         1 UNK         0.3000 
    196 H196        0.4617  -23.1834  -44.1716 H         1 UNK         0.0600 
    197 H197        0.8400  -21.7741  -46.8657 H         1 UNK         0.0600 
    198 H198        1.4544  -21.2320  -45.3060 H         1 UNK         0.0600 
    199 H199        2.0740  -22.7098  -46.0270 H         1 UNK         0.0600 
    200 H200       -1.4354  -23.2683  -47.2413 H         1 UNK         0.3000 
    201 H201       -1.1298  -26.2216  -47.3645 H         1 UNK         0.0600 
    202 H202       -0.1986  -24.3035  -49.5670 H         1 UNK         0.0600 
    203 H203       -0.1956  -26.0633  -49.6668 H         1 UNK         0.0600 
    204 H204        0.8688  -25.2533  -48.5355 H         1 UNK         0.0600 
    205 H205       -3.4003  -24.1228  -47.0849 H         1 UNK         0.3000 
    206 H206       -5.5006  -23.7764  -47.7834 H         1 UNK         0.0600 
    207 H207       -5.6697  -26.2155  -47.2473 H         1 UNK         0.0600 
    208 H208       -6.8066  -25.7276  -48.4919 H         1 UNK         0.0600 
    209 H209       -5.3500  -26.6055  -48.9369 H         1 UNK         0.0600 
    210 H210       -3.4164  -22.8700  -49.5175 H         1 UNK         0.3000 
    211 H211       -2.9723  -21.8672  -51.3953 H         1 UNK         0.0600 
    212 H212       -4.7367  -21.0703  -52.9167 H         1 UNK         0.0600 
    213 H213       -5.2377  -20.8545  -51.2517 H         1 UNK         0.0600 
    214 H214       -5.9051  -22.1752  -52.2125 H         1 UNK         0.0600 
    215 H215       -3.4171  -25.0965  -51.3329 H         1 UNK         0.3000 
    216 H216       -3.6265  -25.8064  -54.0842 H         1 UNK         0.0600 
    217 H217       -2.4153  -27.4032  -51.7667 H         1 UNK         0.0600 
    218 H218       -2.9697  -28.0509  -53.3037 H         1 UNK         0.0600 
    219 H219       -4.1286  -27.3545  -52.1804 H         1 UNK         0.0600 
    220 H220       -0.8371  -25.0839  -52.0155 H         1 UNK         0.3000 
    221 H221        1.2311  -25.8146  -53.8620 H         1 UNK         0.0600 
    222 H222        1.6267  -25.5536  -51.4219 H         1 UNK         0.0600 
    223 H223        1.2509  -23.8308  -51.5220 H         1 UNK         0.0600 
    224 H224        2.6745  -24.4761  -52.3270 H         1 UNK         0.0600 
    225 H225       -0.9167  -23.1010  -53.7460 H         1 UNK         0.3000 
    226 H226        0.6893  -21.4692  -55.6498 H         1 UNK         0.0600 
    227 H227       -1.7664  -20.7757  -53.9582 H         1 UNK         0.0600 
    228 H228       -0.1063  -20.3304  -53.5741 H         1 UNK         0.0600 
    229 H229       -0.8819  -19.6645  -54.9998 H         1 UNK         0.0600 
    230 H230       -1.1479  -24.0430  -55.9674 H         1 UNK         0.3000 
    231 H231       -2.3925  -24.9977  -57.4919 H         1 UNK         0.0600 
    232 H232       -1.7745  -22.6359  -59.3399 H         1 UNK         0.0600 
    233 H233       -2.3113  -24.2372  -59.8252 H         1 UNK         0.0600 
    234 H234       -0.7286  -24.0342  -59.0942 H         1 UNK         0.0600 
    235 H235       -3.7175  -23.4722  -55.5420 H         1 UNK         0.3000 
    236 H236       -5.7381  -22.9591  -54.8513 H         1 UNK         0.0600 
    237 H237       -6.5316  -24.9649  -56.0885 H         1 UNK         0.0600 
    238 H238       -7.7521  -23.7021  -56.0589 H         1 UNK         0.0600 
    239 H239       -6.8265  -23.9857  -57.5245 H         1 UNK         0.0600 
    240 H240       -4.4078  -20.8691  -55.2707 H         1 UNK         0.3000 
    241 H241       -5.2599  -19.0602  -57.2618 H         1 UNK         0.0600 
    242 H242       -7.0714  -19.8336  -54.3901 H         1 UNK         0.3800 
    243 H243       -8.0966  -18.4248  -54.4569 H         1 UNK         0.3800 
    244 H244       -3.0568  -18.8927  -56.2409 H         1 UNK         0.0800 
    245 H245       -3.9006  -17.3851  -56.1061 H         1 UNK         0.0800 
    246 H246       -3.3204  -16.0559  -53.9893 H         1 UNK         0.0800 
    247 H247       -5.0095  -16.4948  -53.8995 H         1 UNK         0.0800 
@<TRIPOS>BOND
     1    1    2 1    
     2    1  127 1    
     3    1  128 1    
     4    1  129 1    
     5    2    3 2    
     6    2    4 am   BACKBONE|DICT|INTERRES
     7    4    5 1    
     8    4  130 1    
     9    5    6 1    
    10    5   65 1    
    11    5  131 1    
    12    6    7 1    
    13    6  132 1    
    14    6  133 1    
    15    7    8 1    
    16    8    9 1    
    17    8  134 1    
    18    8  135 1    
    19    9   10 ar   
    20    9   14 ar   
    21   10   11 ar   
    22   10  136 1    
    23   11   12 ar   
    24   11  126 1    
    25   12   13 ar   
    26   12  137 1    
    27   13   14 ar   
    28   13   15 1    
    29   14  138 1    
    30   15   16 1    
    31   15  139 1    
    32   15  140 1    
    33   16   17 1    
    34   17   18 1    
    35   17  141 1    
    36   17  142 1    
    37   18   19 1    
    38   18   67 1    
    39   18  143 1    
    40   19   20 am   BACKBONE|DICT|INTERRES
    41   19  144 1    
    42   20   21 2    
    43   20   22 1    
    44   22   23 1    
    45   22   24 1    
    46   22  145 1    
    47   23  146 1    
    48   23  147 1    
    49   23  148 1    
    50   24   25 am   BACKBONE|DICT|INTERRES
    51   24  149 1    
    52   25   26 2    
    53   25   27 1    
    54   27   28 1    
    55   27   29 1    
    56   27  150 1    
    57   28  151 1    
    58   28  152 1    
    59   28  153 1    
    60   29   30 am   BACKBONE|DICT|INTERRES
    61   29  154 1    
    62   30   31 2    
    63   30   32 1    
    64   32   33 1    
    65   32   34 1    
    66   32  155 1    
    67   33  156 1    
    68   33  157 1    
    69   33  158 1    
    70   34   35 am   BACKBONE|DICT|INTERRES
    71   34  159 1    
    72   35   36 2    
    73   35   37 1    
    74   37   38 1    
    75   37   39 1    
    76   37  160 1    
    77   38  161 1    
    78   38  162 1    
    79   38  163 1    
    80   39   40 am   BACKBONE|DICT|INTERRES
    81   39  164 1    
    82   40   41 2    
    83   40   42 1    
    84   42   43 1    
    85   42   44 1    
    86   42  165 1    
    87   43  166 1    
    88   43  167 1    
    89   43  168 1    
    90   44   45 am   BACKBONE|DICT|INTERRES
    91   44  169 1    
    92   45   46 2    
    93   45   47 1    
    94   47   48 1    
    95   47   49 1    
    96   47  170 1    
    97   48  171 1    
    98   48  172 1    
    99   48  173 1    
   100   49   50 am   BACKBONE|DICT|INTERRES
   101   49  174 1    
   102   50   51 2    
   103   50   52 1    
   104   52   53 1    
   105   52   54 1    
   106   52  175 1    
   107   53  176 1    
   108   53  177 1    
   109   53  178 1    
   110   54   55 am   BACKBONE|DICT|INTERRES
   111   54  179 1    
   112   55   56 2    
   113   55   57 1    
   114   57   58 1    
   115   57   59 1    
   116   57  180 1    
   117   58  181 1    
   118   58  182 1    
   119   58  183 1    
   120   59   60 am   BACKBONE|DICT|INTERRES
   121   59  184 1    
   122   60   61 2    
   123   60   62 1    
   124   62   63 1    
   125   62   64 1    
   126   62  185 1    
   127   63  186 1    
   128   63  187 1    
   129   63  188 1    
   130   64   65 am   BACKBONE|DICT|INTERRES
   131   64  189 1    
   132   65   66 2    
   133   67   68 2    
   134   67   69 am   BACKBONE|DICT|INTERRES
   135   69   70 1    
   136   69  190 1    
   137   70   71 1    
   138   70   72 1    
   139   70  191 1    
   140   71  192 1    
   141   71  193 1    
   142   71  194 1    
   143   72   73 2    
   144   72   74 am   BACKBONE|DICT|INTERRES
   145   74   75 1    
   146   74  195 1    
   147   75   76 1    
   148   75   77 1    
   149   75  196 1    
   150   76  197 1    
   151   76  198 1    
   152   76  199 1    
   153   77   78 2    
   154   77   79 am   BACKBONE|DICT|INTERRES
   155   79   80 1    
   156   79  200 1    
   157   80   81 1    
   158   80   82 1    
   159   80  201 1    
   160   81  202 1    
   161   81  203 1    
   162   81  204 1    
   163   82   83 2    
   164   82   84 am   BACKBONE|DICT|INTERRES
   165   84   85 1    
   166   84  205 1    
   167   85   86 1    
   168   85   87 1    
   169   85  206 1    
   170   86  207 1    
   171   86  208 1    
   172   86  209 1    
   173   87   88 2    
   174   87   89 am   BACKBONE|DICT|INTERRES
   175   89   90 1    
   176   89  210 1    
   177   90   91 1    
   178   90   92 1    
   179   90  211 1    
   180   91  212 1    
   181   91  213 1    
   182   91  214 1    
   183   92   93 2    
   184   92   94 am   BACKBONE|DICT|INTERRES
   185   94   95 1    
   186   94  215 1    
   187   95   96 1    
   188   95   97 1    
   189   95  216 1    
   190   96  217 1    
   191   96  218 1    
   192   96  219 1    
   193   97   98 2    
   194   97   99 am   BACKBONE|DICT|INTERRES
   195   99  100 1    
   196   99  220 1    
   197  100  101 1    
   198  100  102 1    
   199  100  221 1    
   200  101  222 1    
   201  101  223 1    
   202  101  224 1    
   203  102  103 2    
   204  102  104 am   BACKBONE|DICT|INTERRES
   205  104  105 1    
   206  104  225 1    
   207  105  106 1    
   208  105  107 1    
   209  105  226 1    
   210  106  227 1    
   211  106  228 1    
   212  106  229 1    
   213  107  108 2    
   214  107  109 am   BACKBONE|DICT|INTERRES
   215  109  110 1    
   216  109  230 1    
   217  110  111 1    
   218  110  112 1    
   219  110  231 1    
   220  111  232 1    
   221  111  233 1    
   222  111  234 1    
   223  112  113 2    
   224  112  114 am   BACKBONE|DICT|INTERRES
   225  114  115 1    
   226  114  235 1    
   227  115  116 1    
   228  115  117 1    
   229  115  236 1    
   230  116  237 1    
   231  116  238 1    
   232  116  239 1    
   233  117  118 2    
   234  117  119 am   BACKBONE|DICT|INTERRES
   235  119  120 1    
   236  119  240 1    
   237  120  121 1    
   238  120  124 1    
   239  120  241 1    
   240  121  122 am   BACKBONE|DICT|INTERRES
   241  121  123 2    
   242  122  242 1    
   243  122  243 1    
   244  124  125 1    
   245  124  244 1    
   246  124  245 1    
   247  125  126 1    
   248  126  246 1    
   249  126  247 1    
@<TRIPOS>SUBSTRUCTURE
     1 UNK         1 GROUP             0       ****    0 ROOT    
