@<TRIPOS>MOLECULE
3R540
247   249    1
SMALL
USER_CHARGES


@<TRIPOS>ATOM
      1 CA         -2.4857   -8.9809  -48.9744 C.3       0 UNK        -0.1800 
      2 C          -1.4750   -9.4259  -50.0222 C.2       0 UNK         0.5000 
      3 O          -0.4326   -8.7898  -50.1752 O.2       0 UNK        -0.5000 
      4 N          -1.7866  -10.5103  -50.7428 N.am      1 UNK        -0.5000 
      5 CA         -0.9385  -11.1501  -51.7554 C.3       1 UNK         0.1400 
      6 C6         -1.7215  -12.2072  -52.5834 C.3       23 UNK        -0.0398 
      7 S7         -2.7169  -13.3594  -51.5645 S.3       23 UNK        -0.2404 
      8 C8         -1.8710  -14.9455  -51.8481 C.3       23 UNK        -0.0205 
      9 C9         -2.2713  -15.9906  -50.8162 C.ar      23 UNK        -0.0193 
     10 C10        -3.6166  -16.3178  -50.6201 C.ar      23 UNK        -0.1150 
     11 C11        -3.9950  -17.2346  -49.6320 C.ar      23 UNK        -0.0193 
     12 C12        -3.0053  -17.8203  -48.8357 C.ar      23 UNK        -0.1150 
     13 C13        -1.6538  -17.5192  -49.0327 C.ar      23 UNK        -0.0193 
     14 C14        -1.2958  -16.6123  -50.0326 C.ar      23 UNK        -0.1150 
     15 C15        -0.5804  -18.1152  -48.1306 C.3       23 UNK        -0.0205 
     16 S16        -0.2215  -19.8598  -48.5084 S.3       23 UNK        -0.2404 
     17 C17        -1.5875  -20.7174  -47.6583 C.3       23 UNK        -0.0398 
     18 CA         -1.1525  -22.0817  -47.0768 C.3       11 UNK         0.1400 
     19 N          -0.2197  -21.9666  -45.9511 N.am      11 UNK        -0.5000 
     20 C           0.4164  -23.0053  -45.3888 C.2       10 UNK         0.5000 
     21 O           0.3305  -24.1611  -45.8020 O.2       10 UNK        -0.5000 
     22 CA          1.2324  -22.7238  -44.1144 C.3       10 UNK         0.1400 
     23 CB          2.6035  -22.1202  -44.4531 C.3       10 UNK        -0.1800 
     24 N           0.5186  -21.8566  -43.1763 N.am      10 UNK        -0.5000 
     25 C          -0.6310  -22.1827  -42.5683 C.2       9 UNK         0.5000 
     26 O          -1.1808  -23.2764  -42.6911 O.2       9 UNK        -0.5000 
     27 CA         -1.3087  -21.0927  -41.7193 C.3       9 UNK         0.1400 
     28 CB         -0.7129  -21.0408  -40.3045 C.3       9 UNK        -0.1800 
     29 N          -1.2271  -19.7722  -42.3435 N.am      9 UNK        -0.5000 
     30 C          -1.8700  -19.4272  -43.4685 C.2       8 UNK         0.5000 
     31 O          -2.6263  -20.1782  -44.0845 O.2       8 UNK        -0.5000 
     32 CA         -1.5739  -18.0228  -44.0264 C.3       8 UNK         0.1400 
     33 CB         -2.4152  -16.9603  -43.3052 C.3       8 UNK        -0.1800 
     34 N          -0.1562  -17.6642  -43.9411 N.am      8 UNK        -0.5000 
     35 C           0.8408  -18.3435  -44.5265 C.2       7 UNK         0.5000 
     36 O           0.6623  -19.3209  -45.2503 O.2       7 UNK        -0.5000 
     37 CA          2.2769  -17.9037  -44.1923 C.3       7 UNK         0.1400 
     38 CB          2.6897  -16.6876  -45.0323 C.3       7 UNK        -0.1800 
     39 N           2.4557  -17.6100  -42.7688 N.am      7 UNK        -0.5000 
     40 C           2.3332  -18.5043  -41.7791 C.2       6 UNK         0.5000 
     41 O           2.0832  -19.6925  -41.9783 O.2       6 UNK        -0.5000 
     42 CA          2.4570  -18.0035  -40.3239 C.3       6 UNK         0.1400 
     43 CB          3.9113  -18.0890  -39.8230 C.3       6 UNK        -0.1800 
     44 N           1.8662  -16.6772  -40.0879 N.am      6 UNK        -0.5000 
     45 C           2.2868  -15.4863  -40.5329 C.2       5 UNK         0.5000 
     46 O           3.3315  -15.3121  -41.1646 O.2       5 UNK        -0.5000 
     47 CA          1.3392  -14.2947  -40.2914 C.3       5 UNK         0.1400 
     48 CB          1.8577  -13.4107  -39.1475 C.3       5 UNK        -0.1800 
     49 N           1.1845  -13.4812  -41.5004 N.am      5 UNK        -0.5000 
     50 C           0.7527  -13.9448  -42.6815 C.2       4 UNK         0.5000 
     51 O           0.3311  -15.0934  -42.8456 O.2       4 UNK        -0.5000 
     52 CA          0.8569  -12.9732  -43.8737 C.3       4 UNK         0.1400 
     53 CB          2.3242  -12.6076  -44.1589 C.3       4 UNK        -0.1800 
     54 N           0.2918  -13.5459  -45.0931 N.am      4 UNK        -0.5000 
     55 C          -1.0090  -13.6428  -45.3840 C.2       3 UNK         0.5000 
     56 O          -1.9029  -13.1781  -44.6743 O.2       3 UNK        -0.5000 
     57 CA         -1.3471  -14.3504  -46.7140 C.3       3 UNK         0.1400 
     58 CB         -2.8522  -14.3349  -47.0350 C.3       3 UNK        -0.1800 
     59 N          -0.6208  -13.7549  -47.8393 N.am      3 UNK        -0.5000 
     60 C           0.6434  -14.0404  -48.1875 C.2       2 UNK         0.5000 
     61 O           1.3430  -14.8328  -47.5565 O.2       2 UNK        -0.5000 
     62 CA          1.2278  -13.3225  -49.4209 C.3       2 UNK         0.1400 
     63 CB          2.0675  -14.2693  -50.3052 C.3       2 UNK        -0.1800 
     64 N           0.1768  -12.6751  -50.2070 N.am      2 UNK        -0.5000 
     65 C           0.3516  -11.7233  -51.1302 C.2       1 UNK         0.5000 
     66 O           1.4503  -11.2783  -51.4654 O.2       1 UNK        -0.5000 
     67 C          -2.3846  -22.9327  -46.7149 C.2       11 UNK         0.5000 
     68 O          -2.7737  -23.7817  -47.5155 O.2       11 UNK        -0.5000 
     69 N          -2.9550  -22.7291  -45.5183 N.am      12 UNK        -0.5000 
     70 CA         -4.0776  -23.5157  -45.0017 C.3       12 UNK         0.1400 
     71 CB         -4.5951  -22.8986  -43.6940 C.3       12 UNK        -0.1800 
     72 C          -3.7245  -25.0030  -44.8124 C.2       12 UNK         0.5000 
     73 O          -4.4941  -25.8649  -45.2378 O.2       12 UNK        -0.5000 
     74 N          -2.5459  -25.2790  -44.2354 N.am      13 UNK        -0.5000 
     75 CA         -1.9917  -26.6252  -44.0626 C.3       13 UNK         0.1400 
     76 CB         -0.7205  -26.5482  -43.2039 C.3       13 UNK        -0.1800 
     77 C          -1.7036  -27.3373  -45.3990 C.2       13 UNK         0.5000 
     78 O          -1.9042  -28.5479  -45.4999 O.2       13 UNK        -0.5000 
     79 N          -1.2813  -26.5666  -46.4096 N.am      14 UNK        -0.5000 
     80 CA         -1.0702  -27.0137  -47.7870 C.3       14 UNK         0.1400 
     81 CB         -0.1011  -26.0389  -48.4784 C.3       14 UNK        -0.1800 
     82 C          -2.3735  -27.1464  -48.6038 C.2       14 UNK         0.5000 
     83 O          -2.2980  -27.4989  -49.7802 O.2       14 UNK        -0.5000 
     84 N          -3.5341  -26.8294  -48.0076 N.am      15 UNK        -0.5000 
     85 CA         -4.8666  -26.8094  -48.6255 C.3       15 UNK         0.1400 
     86 CB         -5.3285  -28.2389  -48.9766 C.3       15 UNK        -0.1800 
     87 C          -4.9511  -25.8323  -49.8191 C.2       15 UNK         0.5000 
     88 O          -5.5760  -26.1378  -50.8357 O.2       15 UNK        -0.5000 
     89 N          -4.2836  -24.6806  -49.6648 N.am      16 UNK        -0.5000 
     90 CA         -4.1156  -23.5807  -50.6155 C.3       16 UNK         0.1400 
     91 CB         -5.4711  -22.9759  -51.0305 C.3       16 UNK        -0.1800 
     92 C          -3.2147  -23.9046  -51.8249 C.2       16 UNK         0.5000 
     93 O          -3.0875  -23.0595  -52.7084 O.2       16 UNK        -0.5000 
     94 N          -2.5456  -25.0685  -51.8436 N.am      17 UNK        -0.5000 
     95 CA         -1.6160  -25.4527  -52.9146 C.3       17 UNK         0.1400 
     96 CB         -1.2471  -26.9362  -52.7707 C.3       17 UNK        -0.1800 
     97 C          -0.3412  -24.5847  -52.9586 C.2       17 UNK         0.5000 
     98 O           0.2615  -24.4427  -54.0228 O.2       17 UNK        -0.5000 
     99 N           0.0358  -24.0159  -51.8060 N.am      18 UNK        -0.5000 
    100 CA         1.1766  -23.1139  -51.6474 C.3       18 UNK         0.1400 
    101 CB         1.7554  -23.3104  -50.2358 C.3       18 UNK        -0.1800 
    102 C          0.8169  -21.6313  -51.8797 C.2       18 UNK         0.5000 
    103 O          1.7246  -20.7985  -51.9035 O.2       18 UNK        -0.5000 
    104 N         -0.4784  -21.3102  -52.0148 N.am      19 UNK        -0.5000 
    105 CA        -0.9700  -19.9406  -52.1583 C.3       19 UNK         0.1400 
    106 CB        -2.4629  -19.8982  -51.8087 C.3       19 UNK        -0.1800 
    107 C         -0.7327  -19.3763  -53.5692 C.2       19 UNK         0.5000 
    108 O         -0.6944  -20.1284  -54.5454 O.2       19 UNK        -0.5000 
    109 N         -0.6118  -18.0461  -53.6433 N.am      20 UNK        -0.5000 
    110 CA        -0.3673  -17.2923  -54.8761 C.3       20 UNK         0.1400 
    111 CB         0.6676  -16.1937  -54.5744 C.3       20 UNK        -0.1800 
    112 C         -1.6529  -16.6873  -55.4795 C.2       20 UNK         0.5000 
    113 O         -1.5610  -15.9576  -56.4676 O.2       20 UNK        -0.5000 
    114 N         -2.8186  -16.9695  -54.8818 N.am      21 UNK        -0.5000 
    115 CA        -4.1179  -16.4489  -55.3118 C.3       21 UNK         0.1400 
    116 CB        -4.3674  -15.0492  -54.7204 C.3       21 UNK        -0.1800 
    117 C         -5.2515  -17.4145  -54.9436 C.2       21 UNK         0.5000 
    118 O         -6.1021  -17.6929  -55.7901 O.2       21 UNK        -0.5000 
    119 N         -5.2453  -17.9109  -53.6982 N.am      22 UNK        -0.5000 
    120 CA        -6.2081  -18.9078  -53.1991 C.3       22 UNK         0.1400 
    121 C         -6.0817  -20.2945  -53.8957 C.2       22 UNK         0.5000 
    122 N         -7.1255  -21.1117  -53.8488 N.am      22 UNK        -0.7600 
    123 O         -5.0480  -20.6479  -54.4569 O.2       22 UNK        -0.5000 
    124 C124       -6.1438  -19.0515  -51.6560 C.3       23 UNK        -0.0398 
    125 S125       -6.5665  -17.4972  -50.8002 S.3       23 UNK        -0.2404 
    126 C126       -5.4626  -17.5498  -49.3459 C.3       23 UNK        -0.0205 
    127 H127       -2.0291   -8.9919  -47.9846 H         1 UNK         0.0600 
    128 H128       -3.3604   -9.6314  -48.9519 H         1 UNK         0.0600 
    129 H129       -2.8224   -7.9658  -49.1847 H         1 UNK         0.0600 
    130 H130       -2.6659  -10.9784  -50.5722 H         1 UNK         0.3000 
    131 H131       -0.6254  -10.3679  -52.4505 H         1 UNK         0.0600 
    132 H132       -1.0540  -12.7622  -53.2452 H         1 UNK         0.0800 
    133 H133       -2.4162  -11.6904  -53.2467 H         1 UNK         0.0800 
    134 H134       -0.7930  -14.7861  -51.8276 H         1 UNK         0.0800 
    135 H135       -2.1137  -15.3037  -52.8456 H         1 UNK         0.0800 
    136 H136       -4.3705  -15.8219  -51.2140 H         1 UNK         0.1150 
    137 H137       -3.2926  -18.4973  -48.0452 H         1 UNK         0.1150 
    138 H138       -0.2541  -16.3677  -50.1725 H         1 UNK         0.1150 
    139 H139        0.3479  -17.5497  -48.2269 H         1 UNK         0.0800 
    140 H140       -0.8768  -18.0100  -47.0899 H         1 UNK         0.0800 
    141 H141       -2.3890  -20.8428  -48.3885 H         1 UNK         0.0800 
    142 H142       -1.9867  -20.0866  -46.8630 H         1 UNK         0.0800 
    143 H143       -0.6306  -22.6240  -47.8667 H         1 UNK         0.0600 
    144 H144       -0.0422  -21.0297  -45.5956 H         1 UNK         0.3000 
    145 H145        1.4026  -23.6790  -43.6135 H         1 UNK         0.0600 
    146 H146        3.1933  -21.9505  -43.5521 H         1 UNK         0.0600 
    147 H147        3.1744  -22.7916  -45.0955 H         1 UNK         0.0600 
    148 H148        2.5117  -21.1691  -44.9763 H         1 UNK         0.0600 
    149 H149        0.9372  -20.9529  -42.9800 H         1 UNK         0.3000 
    150 H150       -2.3649  -21.3538  -41.6270 H         1 UNK         0.0600 
    151 H151       -0.8202  -22.0042  -39.8046 H         1 UNK         0.0600 
    152 H152       -1.2205  -20.2979  -39.6891 H         1 UNK         0.0600 
    153 H153        0.3493  -20.7984  -40.3172 H         1 UNK         0.0600 
    154 H154       -0.5898  -19.1088  -41.9305 H         1 UNK         0.3000 
    155 H155       -1.8639  -18.0207  -45.0771 H         1 UNK         0.0600 
    156 H156       -2.1390  -16.8728  -42.2538 H         1 UNK         0.0600 
    157 H157       -3.4773  -17.2044  -43.3496 H         1 UNK         0.0600 
    158 H158       -2.2885  -15.9801  -43.7646 H         1 UNK         0.0600 
    159 H159        0.0726  -16.8314  -43.4010 H         1 UNK         0.3000 
    160 H160        2.9438  -18.7300  -44.4458 H         1 UNK         0.0600 
    161 H161        2.0569  -15.8248  -44.8308 H         1 UNK         0.0600 
    162 H162        2.6105  -16.9071  -46.0979 H         1 UNK         0.0600 
    163 H163        3.7223  -16.4005  -44.8343 H         1 UNK         0.0600 
    164 H164        2.6735  -16.6529  -42.5144 H         1 UNK         0.3000 
    165 H165        1.8688  -18.6915  -39.7145 H         1 UNK         0.0600 
    166 H166        4.5889  -17.4775  -40.4189 H         1 UNK         0.0600 
    167 H167        3.9911  -17.7666  -38.7849 H         1 UNK         0.0600 
    168 H168        4.2763  -19.1156  -39.8737 H         1 UNK         0.0600 
    169 H169        0.9821  -16.6993  -39.5987 H         1 UNK         0.3000 
    170 H170        0.3518  -14.6732  -40.0188 H         1 UNK         0.0600 
    171 H171        2.8341  -12.9834  -39.3803 H         1 UNK         0.0600 
    172 H172        1.1717  -12.5891  -38.9403 H         1 UNK         0.0600 
    173 H173        1.9624  -13.9859  -38.2266 H         1 UNK         0.0600 
    174 H174        1.5406  -12.5383  -41.4491 H         1 UNK         0.3000 
    175 H175        0.3078  -12.0637  -43.6220 H         1 UNK         0.0600 
    176 H176        2.7811  -12.0964  -43.3110 H         1 UNK         0.0600 
    177 H177        2.4037  -11.9382  -45.0157 H         1 UNK         0.0600 
    178 H178        2.9260  -13.4927  -44.3700 H         1 UNK         0.0600 
    179 H179        0.9427  -13.9839  -45.7350 H         1 UNK         0.3000 
    180 H180       -1.0459  -15.3947  -46.6066 H         1 UNK         0.0600 
    181 H181       -3.0610  -14.8582  -47.9679 H         1 UNK         0.0600 
    182 H182       -3.2349  -13.3182  -47.1303 H         1 UNK         0.0600 
    183 H183       -3.4244  -14.8326  -46.2511 H         1 UNK         0.0600 
    184 H184       -1.1059  -13.0178  -48.3256 H         1 UNK         0.3000 
    185 H185        1.8869  -12.5449  -49.0303 H         1 UNK         0.0600 
    186 H186        2.5911  -13.7219  -51.0885 H         1 UNK         0.0600 
    187 H187        2.8295  -14.7874  -49.7218 H         1 UNK         0.0600 
    188 H188        1.4526  -15.0263  -50.7886 H         1 UNK         0.0600 
    189 H189       -0.7645  -13.0066  -50.0488 H         1 UNK         0.3000 
    190 H190       -2.6138  -21.9783  -44.9258 H         1 UNK         0.3000 
    191 H191       -4.8823  -23.4607  -45.7379 H         1 UNK         0.0600 
    192 H192       -5.4579  -23.4496  -43.3181 H         1 UNK         0.0600 
    193 H193       -4.9088  -21.8653  -43.8431 H         1 UNK         0.0600 
    194 H194       -3.8355  -22.9078  -42.9130 H         1 UNK         0.0600 
    195 H195       -1.9887  -24.5099  -43.8704 H         1 UNK         0.3000 
    196 H196       -2.7307  -27.2215  -43.5237 H         1 UNK         0.0600 
    197 H197        0.0486  -25.9379  -43.6783 H         1 UNK         0.0600 
    198 H198       -0.9318  -26.1173  -42.2251 H         1 UNK         0.0600 
    199 H199       -0.2985  -27.5403  -43.0390 H         1 UNK         0.0600 
    200 H200       -1.0764  -25.5910  -46.2192 H         1 UNK         0.3000 
    201 H201       -0.6012  -27.9994  -47.7661 H         1 UNK         0.0600 
    202 H202        0.1404  -26.3693  -49.4893 H         1 UNK         0.0600 
    203 H203       -0.5251  -25.0375  -48.5517 H         1 UNK         0.0600 
    204 H204        0.8392  -25.9636  -47.9321 H         1 UNK         0.0600 
    205 H205       -3.5036  -26.5185  -47.0440 H         1 UNK         0.3000 
    206 H206       -5.5476  -26.4204  -47.8673 H         1 UNK         0.0600 
    207 H207       -5.2651  -28.8965  -48.1097 H         1 UNK         0.0600 
    208 H208       -6.3667  -28.2426  -49.3105 H         1 UNK         0.0600 
    209 H209       -4.7275  -28.6762  -49.7743 H         1 UNK         0.0600 
    210 H210       -3.7809  -24.5430  -48.7882 H         1 UNK         0.3000 
    211 H211       -3.5816  -22.8071  -50.0621 H         1 UNK         0.0600 
    212 H212       -5.3249  -22.0526  -51.5903 H         1 UNK         0.0600 
    213 H213       -6.0801  -22.7324  -50.1601 H         1 UNK         0.0600 
    214 H214       -6.0427  -23.6523  -51.6660 H         1 UNK         0.0600 
    215 H215       -2.6886  -25.7405  -51.0991 H         1 UNK         0.3000 
    216 H216       -2.1335  -25.3253  -53.8678 H         1 UNK         0.0600 
    217 H217       -0.6705  -27.1212  -51.8640 H         1 UNK         0.0600 
    218 H218       -0.6423  -27.2701  -53.6147 H         1 UNK         0.0600 
    219 H219       -2.1368  -27.5653  -52.7385 H         1 UNK         0.0600 
    220 H220       -0.5207  -24.1936  -50.9840 H         1 UNK         0.3000 
    221 H221        1.9522  -23.3781  -52.3693 H         1 UNK         0.0600 
    222 H222        2.0477  -24.3472  -50.0685 H         1 UNK         0.0600 
    223 H223        1.0378  -23.0342  -49.4637 H         1 UNK         0.0600 
    224 H224        2.6447  -22.6965  -50.0878 H         1 UNK         0.0600 
    225 H225       -1.1654  -22.0467  -52.1017 H         1 UNK         0.3000 
    226 H226       -0.4370  -19.3109  -51.4430 H         1 UNK         0.0600 
    227 H227       -2.6516  -20.3045  -50.8155 H         1 UNK         0.0600 
    228 H228       -2.8295  -18.8728  -51.8138 H         1 UNK         0.0600 
    229 H229       -3.0612  -20.4602  -52.5254 H         1 UNK         0.0600 
    230 H230       -0.6564  -17.5058  -52.7922 H         1 UNK         0.3000 
    231 H231        0.0603  -17.9505  -55.6352 H         1 UNK         0.0600 
    232 H232        0.2857  -15.4559  -53.8696 H         1 UNK         0.0600 
    233 H233        0.9498  -15.6602  -55.4830 H         1 UNK         0.0600 
    234 H234        1.5807  -16.6168  -54.1551 H         1 UNK         0.0600 
    235 H235       -2.8232  -17.6532  -54.1406 H         1 UNK         0.3000 
    236 H236       -4.1187  -16.3642  -56.4009 H         1 UNK         0.0600 
    237 H237       -3.5806  -14.3498  -55.0033 H         1 UNK         0.0600 
    238 H238       -5.3109  -14.6386  -55.0816 H         1 UNK         0.0600 
    239 H239       -4.4194  -15.0727  -53.6319 H         1 UNK         0.0600 
    240 H240       -4.5585  -17.5919  -53.0346 H         1 UNK         0.3000 
    241 H241       -7.2016  -18.5312  -53.4515 H         1 UNK         0.0600 
    242 H242       -7.0537  -22.0142  -54.2917 H         1 UNK         0.3800 
    243 H243       -7.9916  -20.8473  -53.4056 H         1 UNK         0.3800 
    244 H244       -5.1569  -19.3887  -51.3416 H         1 UNK         0.0800 
    245 H245       -6.8463  -19.8110  -51.3086 H         1 UNK         0.0800 
    246 H246       -5.5564  -18.5292  -48.8740 H         1 UNK         0.0800 
    247 H247       -5.8239  -16.8229  -48.6177 H         1 UNK         0.0800 
@<TRIPOS>BOND
     1    1    2 1    
     2    1  127 1    
     3    1  128 1    
     4    1  129 1    
     5    2    3 2    
     6    2    4 am   BACKBONE|DICT|INTERRES
     7    4    5 1    
     8    4  130 1    
     9    5    6 1    
    10    5   65 1    
    11    5  131 1    
    12    6    7 1    
    13    6  132 1    
    14    6  133 1    
    15    7    8 1    
    16    8    9 1    
    17    8  134 1    
    18    8  135 1    
    19    9   10 ar   
    20    9   14 ar   
    21   10   11 ar   
    22   10  136 1    
    23   11   12 ar   
    24   11  126 1    
    25   12   13 ar   
    26   12  137 1    
    27   13   14 ar   
    28   13   15 1    
    29   14  138 1    
    30   15   16 1    
    31   15  139 1    
    32   15  140 1    
    33   16   17 1    
    34   17   18 1    
    35   17  141 1    
    36   17  142 1    
    37   18   19 1    
    38   18   67 1    
    39   18  143 1    
    40   19   20 am   BACKBONE|DICT|INTERRES
    41   19  144 1    
    42   20   21 2    
    43   20   22 1    
    44   22   23 1    
    45   22   24 1    
    46   22  145 1    
    47   23  146 1    
    48   23  147 1    
    49   23  148 1    
    50   24   25 am   BACKBONE|DICT|INTERRES
    51   24  149 1    
    52   25   26 2    
    53   25   27 1    
    54   27   28 1    
    55   27   29 1    
    56   27  150 1    
    57   28  151 1    
    58   28  152 1    
    59   28  153 1    
    60   29   30 am   BACKBONE|DICT|INTERRES
    61   29  154 1    
    62   30   31 2    
    63   30   32 1    
    64   32   33 1    
    65   32   34 1    
    66   32  155 1    
    67   33  156 1    
    68   33  157 1    
    69   33  158 1    
    70   34   35 am   BACKBONE|DICT|INTERRES
    71   34  159 1    
    72   35   36 2    
    73   35   37 1    
    74   37   38 1    
    75   37   39 1    
    76   37  160 1    
    77   38  161 1    
    78   38  162 1    
    79   38  163 1    
    80   39   40 am   BACKBONE|DICT|INTERRES
    81   39  164 1    
    82   40   41 2    
    83   40   42 1    
    84   42   43 1    
    85   42   44 1    
    86   42  165 1    
    87   43  166 1    
    88   43  167 1    
    89   43  168 1    
    90   44   45 am   BACKBONE|DICT|INTERRES
    91   44  169 1    
    92   45   46 2    
    93   45   47 1    
    94   47   48 1    
    95   47   49 1    
    96   47  170 1    
    97   48  171 1    
    98   48  172 1    
    99   48  173 1    
   100   49   50 am   BACKBONE|DICT|INTERRES
   101   49  174 1    
   102   50   51 2    
   103   50   52 1    
   104   52   53 1    
   105   52   54 1    
   106   52  175 1    
   107   53  176 1    
   108   53  177 1    
   109   53  178 1    
   110   54   55 am   BACKBONE|DICT|INTERRES
   111   54  179 1    
   112   55   56 2    
   113   55   57 1    
   114   57   58 1    
   115   57   59 1    
   116   57  180 1    
   117   58  181 1    
   118   58  182 1    
   119   58  183 1    
   120   59   60 am   BACKBONE|DICT|INTERRES
   121   59  184 1    
   122   60   61 2    
   123   60   62 1    
   124   62   63 1    
   125   62   64 1    
   126   62  185 1    
   127   63  186 1    
   128   63  187 1    
   129   63  188 1    
   130   64   65 am   BACKBONE|DICT|INTERRES
   131   64  189 1    
   132   65   66 2    
   133   67   68 2    
   134   67   69 am   BACKBONE|DICT|INTERRES
   135   69   70 1    
   136   69  190 1    
   137   70   71 1    
   138   70   72 1    
   139   70  191 1    
   140   71  192 1    
   141   71  193 1    
   142   71  194 1    
   143   72   73 2    
   144   72   74 am   BACKBONE|DICT|INTERRES
   145   74   75 1    
   146   74  195 1    
   147   75   76 1    
   148   75   77 1    
   149   75  196 1    
   150   76  197 1    
   151   76  198 1    
   152   76  199 1    
   153   77   78 2    
   154   77   79 am   BACKBONE|DICT|INTERRES
   155   79   80 1    
   156   79  200 1    
   157   80   81 1    
   158   80   82 1    
   159   80  201 1    
   160   81  202 1    
   161   81  203 1    
   162   81  204 1    
   163   82   83 2    
   164   82   84 am   BACKBONE|DICT|INTERRES
   165   84   85 1    
   166   84  205 1    
   167   85   86 1    
   168   85   87 1    
   169   85  206 1    
   170   86  207 1    
   171   86  208 1    
   172   86  209 1    
   173   87   88 2    
   174   87   89 am   BACKBONE|DICT|INTERRES
   175   89   90 1    
   176   89  210 1    
   177   90   91 1    
   178   90   92 1    
   179   90  211 1    
   180   91  212 1    
   181   91  213 1    
   182   91  214 1    
   183   92   93 2    
   184   92   94 am   BACKBONE|DICT|INTERRES
   185   94   95 1    
   186   94  215 1    
   187   95   96 1    
   188   95   97 1    
   189   95  216 1    
   190   96  217 1    
   191   96  218 1    
   192   96  219 1    
   193   97   98 2    
   194   97   99 am   BACKBONE|DICT|INTERRES
   195   99  100 1    
   196   99  220 1    
   197  100  101 1    
   198  100  102 1    
   199  100  221 1    
   200  101  222 1    
   201  101  223 1    
   202  101  224 1    
   203  102  103 2    
   204  102  104 am   BACKBONE|DICT|INTERRES
   205  104  105 1    
   206  104  225 1    
   207  105  106 1    
   208  105  107 1    
   209  105  226 1    
   210  106  227 1    
   211  106  228 1    
   212  106  229 1    
   213  107  108 2    
   214  107  109 am   BACKBONE|DICT|INTERRES
   215  109  110 1    
   216  109  230 1    
   217  110  111 1    
   218  110  112 1    
   219  110  231 1    
   220  111  232 1    
   221  111  233 1    
   222  111  234 1    
   223  112  113 2    
   224  112  114 am   BACKBONE|DICT|INTERRES
   225  114  115 1    
   226  114  235 1    
   227  115  116 1    
   228  115  117 1    
   229  115  236 1    
   230  116  237 1    
   231  116  238 1    
   232  116  239 1    
   233  117  118 2    
   234  117  119 am   BACKBONE|DICT|INTERRES
   235  119  120 1    
   236  119  240 1    
   237  120  121 1    
   238  120  124 1    
   239  120  241 1    
   240  121  122 am   BACKBONE|DICT|INTERRES
   241  121  123 2    
   242  122  242 1    
   243  122  243 1    
   244  124  125 1    
   245  124  244 1    
   246  124  245 1    
   247  125  126 1    
   248  126  246 1    
   249  126  247 1    
@<TRIPOS>SUBSTRUCTURE
     1 UNK         1 GROUP             0       ****    0 ROOT    
