@<TRIPOS>MOLECULE
3R540
247   249    1
SMALL
USER_CHARGES


@<TRIPOS>ATOM
      1 CA          3.5020  -13.1621  -52.3571 C.3       0 UNK        -0.1800 
      2 C           2.9126  -13.0770  -50.9560 C.2       0 UNK         0.5000 
      3 O           2.4294  -12.0155  -50.5609 O.2       0 UNK        -0.5000 
      4 N           2.9457  -14.1919  -50.2134 N.am      1 UNK        -0.5000 
      5 CA          2.4747  -14.3268  -48.8288 C.3       1 UNK         0.1400 
      6 C6          0.9581  -14.0102  -48.6782 C.3       23 UNK        -0.0398 
      7 S7          0.1621  -15.0431  -47.4039 S.3       23 UNK        -0.2404 
      8 C8         -1.4144  -15.4885  -48.2086 C.3       23 UNK        -0.0205 
      9 C9         -1.2591  -16.3764  -49.4396 C.ar      23 UNK        -0.0193 
     10 C10        -1.9824  -16.0794  -50.6000 C.ar      23 UNK        -0.1150 
     11 C11        -1.8885  -16.9002  -51.7274 C.ar      23 UNK        -0.0193 
     12 C12        -1.0601  -18.0229  -51.6928 C.ar      23 UNK        -0.1150 
     13 C13        -0.3225  -18.3249  -50.5472 C.ar      23 UNK        -0.0193 
     14 C14        -0.4312  -17.5053  -49.4192 C.ar      23 UNK        -0.1150 
     15 C15         0.5885  -19.5395  -50.5432 C.3       23 UNK        -0.0205 
     16 S16        -0.3103  -21.0260  -50.0136 S.3       23 UNK        -0.2404 
     17 C17        -0.3420  -20.7891  -48.2107 C.3       23 UNK        -0.0398 
     18 CA         -0.3993  -22.1214  -47.4311 C.3       11 UNK         0.1400 
     19 N           0.2107  -21.9828  -46.1075 N.am      11 UNK        -0.5000 
     20 C           0.5548  -23.0021  -45.3117 C.2       10 UNK         0.5000 
     21 O           0.3865  -24.1839  -45.6091 O.2       10 UNK        -0.5000 
     22 CA          1.1504  -22.6372  -43.9394 C.3       10 UNK         0.1400 
     23 CB          2.6294  -22.2449  -44.0716 C.3       10 UNK        -0.1800 
     24 N           0.4150  -21.5607  -43.2738 N.am      10 UNK        -0.5000 
     25 C          -0.8610  -21.6555  -42.8729 C.2       9 UNK         0.5000 
     26 O          -1.5416  -22.6740  -42.9951 O.2       9 UNK        -0.5000 
     27 CA         -1.5010  -20.3849  -42.2853 C.3       9 UNK         0.1400 
     28 CB         -1.0512  -20.1621  -40.8337 C.3       9 UNK        -0.1800 
     29 N          -1.2101  -19.1896  -43.0760 N.am      9 UNK        -0.5000 
     30 C          -1.5686  -19.0132  -44.3556 C.2       8 UNK         0.5000 
     31 O          -2.2140  -19.8300  -45.0096 O.2       8 UNK        -0.5000 
     32 CA         -1.0692  -17.7309  -45.0378 C.3       8 UNK         0.1400 
     33 CB         -1.9205  -16.5217  -44.6152 C.3       8 UNK        -0.1800 
     34 N           0.3452  -17.4780  -44.7592 N.am      8 UNK        -0.5000 
     35 C           1.3487  -18.2810  -45.1437 C.2       7 UNK         0.5000 
     36 O           1.1894  -19.3191  -45.7801 O.2       7 UNK        -0.5000 
     37 CA          2.7663  -17.8845  -44.7028 C.3       7 UNK         0.1400 
     38 CB          3.3395  -16.8154  -45.6439 C.3       7 UNK        -0.1800 
     39 N           2.7941  -17.3958  -43.3257 N.am      7 UNK        -0.5000 
     40 C           2.5052  -18.1406  -42.2477 C.2       6 UNK         0.5000 
     41 O           2.2529  -19.3453  -42.2893 O.2       6 UNK        -0.5000 
     42 CA          2.4168  -17.3824  -40.9107 C.3       6 UNK         0.1400 
     43 CB          3.8112  -17.1901  -40.2963 C.3       6 UNK        -0.1800 
     44 N           1.7699  -16.0772  -41.0678 N.am      6 UNK        -0.5000 
     45 C           0.4883  -15.9024  -41.4199 C.2       5 UNK         0.5000 
     46 O          -0.2888  -16.8413  -41.5941 O.2       5 UNK        -0.5000 
     47 CA          0.0025  -14.4635  -41.6949 C.3       5 UNK         0.1400 
     48 CB         -1.3314  -14.1568  -40.9850 C.3       5 UNK        -0.1800 
     49 N           1.0011  -13.4155  -41.4442 N.am      5 UNK        -0.5000 
     50 C           1.4987  -13.0082  -40.2646 C.2       4 UNK         0.5000 
     51 O           1.1894  -13.5063  -39.1825 O.2       4 UNK        -0.5000 
     52 CA          2.5480  -11.8761  -40.2925 C.3       4 UNK         0.1400 
     53 CB          3.9459  -12.4394  -39.9888 C.3       4 UNK        -0.1800 
     54 N           2.6039  -11.1585  -41.5676 N.am      4 UNK        -0.5000 
     55 C           1.6660  -10.3179  -42.0262 C.2       3 UNK         0.5000 
     56 O           0.6705   -9.9882  -41.3809 O.2       3 UNK        -0.5000 
     57 CA          1.8603   -9.7728  -43.4559 C.3       3 UNK         0.1400 
     58 CB          2.4024   -8.3357  -43.4129 C.3       3 UNK        -0.1800 
     59 N           2.7464  -10.5905  -44.2940 N.am      3 UNK        -0.5000 
     60 C           2.4815  -11.8349  -44.7124 C.2       2 UNK         0.5000 
     61 O           1.4719  -12.4697  -44.3958 O.2       2 UNK        -0.5000 
     62 CA          3.5462  -12.5012  -45.5898 C.3       2 UNK         0.1400 
     63 CB          4.4517  -13.4138  -44.7436 C.3       2 UNK        -0.1800 
     64 N           2.8738  -13.2749  -46.6279 N.am      2 UNK        -0.5000 
     65 C           3.3826  -13.5572  -47.8331 C.2       1 UNK         0.5000 
     66 O           4.5336  -13.2542  -48.1609 O.2       1 UNK        -0.5000 
     67 C          -1.8315  -22.6962  -47.3636 C.2       11 UNK         0.5000 
     68 O          -2.2233  -23.4574  -48.2502 O.2       11 UNK        -0.5000 
     69 N          -2.5801  -22.3539  -46.3055 N.am      12 UNK        -0.5000 
     70 CA         -3.8913  -22.9217  -45.9954 C.3       12 UNK         0.1400 
     71 CB         -4.5978  -22.0623  -44.9375 C.3       12 UNK        -0.1800 
     72 C          -3.7964  -24.3877  -45.5430 C.2       12 UNK         0.5000 
     73 O          -4.5973  -25.2046  -45.9954 O.2       12 UNK        -0.5000 
     74 N          -2.7993  -24.7115  -44.7061 N.am      13 UNK        -0.5000 
     75 CA         -2.5000  -26.0769  -44.2616 C.3       13 UNK         0.1400 
     76 CB         -1.4423  -26.0397  -43.1483 C.3       13 UNK        -0.1800 
     77 C          -2.0530  -26.9959  -45.4158 C.2       13 UNK         0.5000 
     78 O          -2.4395  -28.1644  -45.4501 O.2       13 UNK        -0.5000 
     79 N          -1.2889  -26.4365  -46.3638 N.am      14 UNK        -0.5000 
     80 CA         -0.8918  -27.0792  -47.6191 C.3       14 UNK         0.1400 
     81 CB          0.2867  -26.2951  -48.2184 C.3       14 UNK        -0.1800 
     82 C          -2.0377  -27.1842  -48.6491 C.2       14 UNK         0.5000 
     83 O          -1.8830  -27.8897  -49.6459 O.2       14 UNK        -0.5000 
     84 N          -3.1431  -26.4630  -48.4073 N.am      15 UNK        -0.5000 
     85 CA         -4.3477  -26.3209  -49.2334 C.3       15 UNK         0.1400 
     86 CB         -5.0416  -27.6791  -49.4581 C.3       15 UNK        -0.1800 
     87 C          -4.1298  -25.5496  -50.5515 C.2       15 UNK         0.5000 
     88 O          -5.0478  -25.4788  -51.3675 O.2       15 UNK        -0.5000 
     89 N          -2.9544  -24.9361  -50.7299 N.am      16 UNK        -0.5000 
     90 CA         -2.6112  -24.1203  -51.8932 C.3       16 UNK         0.1400 
     91 CB         -1.0871  -23.9578  -51.9661 C.3       16 UNK        -0.1800 
     92 C          -3.3395  -22.7639  -51.8916 C.2       16 UNK         0.5000 
     93 O          -3.7286  -22.2834  -52.9570 O.2       16 UNK        -0.5000 
     94 N          -3.5739  -22.1958  -50.6995 N.am      17 UNK        -0.5000 
     95 CA         -4.3958  -20.9942  -50.5333 C.3       17 UNK         0.1400 
     96 CB         -4.1555  -20.3695  -49.1527 C.3       17 UNK        -0.1800 
     97 C          -5.8921  -21.2857  -50.7503 C.2       17 UNK         0.5000 
     98 O          -6.5985  -20.4404  -51.2979 O.2       17 UNK        -0.5000 
     99 N          -6.3379  -22.4901  -50.3608 N.am      18 UNK        -0.5000 
    100 CA        -7.7009  -22.9837  -50.5769 C.3       18 UNK         0.1400 
    101 CB        -7.9444  -24.2253  -49.7049 C.3       18 UNK        -0.1800 
    102 C         -7.9813  -23.2833  -52.0621 C.2       18 UNK         0.5000 
    103 O         -9.0703  -22.9814  -52.5505 O.2       18 UNK        -0.5000 
    104 N         -6.9742  -23.8240  -52.7625 N.am      19 UNK        -0.5000 
    105 CA        -6.9658  -24.0370  -54.2123 C.3       19 UNK         0.1400 
    106 CB        -5.8305  -25.0122  -54.5609 C.3       19 UNK        -0.1800 
    107 C         -6.8202  -22.7337  -55.0275 C.2       19 UNK         0.5000 
    108 O         -7.0254  -22.7636  -56.2414 O.2       19 UNK        -0.5000 
    109 N         -6.4716  -21.6289  -54.3512 N.am      20 UNK        -0.5000 
    110 CA        -6.2517  -20.2807  -54.8747 C.3       20 UNK         0.1400 
    111 CB        -7.5557  -19.6882  -55.4485 C.3       20 UNK        -0.1800 
    112 C         -5.0690  -20.2271  -55.8596 C.2       20 UNK         0.5000 
    113 O         -5.2228  -19.7749  -56.9963 O.2       20 UNK        -0.5000 
    114 N         -3.8950  -20.6756  -55.3898 N.am      21 UNK        -0.5000 
    115 CA        -2.6264  -20.7265  -56.1300 C.3       21 UNK         0.1400 
    116 CB        -1.5408  -21.3133  -55.2136 C.3       21 UNK        -0.1800 
    117 C         -2.1513  -19.3853  -56.7339 C.2       21 UNK         0.5000 
    118 O         -1.3775  -19.3995  -57.6923 O.2       21 UNK        -0.5000 
    119 N         -2.6332  -18.2610  -56.1884 N.am      22 UNK        -0.5000 
    120 CA        -2.4523  -16.9094  -56.7451 C.3       22 UNK         0.1400 
    121 C         -3.2674  -16.6343  -58.0456 C.2       22 UNK         0.5000 
    122 N         -4.2351  -17.4607  -58.4264 N.am      22 UNK        -0.7600 
    123 O         -3.0099  -15.6477  -58.7300 O.2       22 UNK        -0.5000 
    124 C124       -2.7335  -15.8072  -55.6909 C.3       23 UNK        -0.0398 
    125 S125       -1.5948  -15.8842  -54.2689 S.3       23 UNK        -0.2404 
    126 C126       -2.6769  -16.5863  -52.9871 C.3       23 UNK        -0.0205 
    127 H127        3.8861  -14.1587  -52.5765 H         1 UNK         0.0600 
    128 H128        4.3214  -12.4512  -52.4631 H         1 UNK         0.0600 
    129 H129        2.7411  -12.9206  -53.0994 H         1 UNK         0.0600 
    130 H130        3.3849  -15.0170  -50.5964 H         1 UNK         0.3000 
    131 H131        2.6241  -15.3830  -48.5993 H         1 UNK         0.0600 
    132 H132        0.7813  -12.9551  -48.4616 H         1 UNK         0.0800 
    133 H133        0.4501  -14.1971  -49.6250 H         1 UNK         0.0800 
    134 H134       -1.9419  -14.5673  -48.4612 H         1 UNK         0.0800 
    135 H135       -2.0452  -16.0105  -47.4899 H         1 UNK         0.0800 
    136 H136       -2.6268  -15.2119  -50.6249 H         1 UNK         0.1150 
    137 H137       -0.9839  -18.6582  -52.5643 H         1 UNK         0.1150 
    138 H138        0.1280  -17.7461  -48.5259 H         1 UNK         0.1150 
    139 H139        1.4587  -19.3685  -49.9079 H         1 UNK         0.0800 
    140 H140        0.9794  -19.7090  -51.5476 H         1 UNK         0.0800 
    141 H141       -1.1432  -20.1083  -47.9204 H         1 UNK         0.0800 
    142 H142        0.5856  -20.2754  -47.9667 H         1 UNK         0.0800 
    143 H143        0.2092  -22.8516  -47.9689 H         1 UNK         0.0600 
    144 H144        0.4215  -21.0341  -45.8071 H         1 UNK         0.3000 
    145 H145        1.0904  -23.5244  -43.3058 H         1 UNK         0.0600 
    146 H146        3.2036  -23.0401  -44.5485 H         1 UNK         0.0600 
    147 H147        3.0763  -22.0612  -43.0943 H         1 UNK         0.0600 
    148 H148        2.7561  -21.3425  -44.6703 H         1 UNK         0.0600 
    149 H149        0.9184  -20.6946  -43.1115 H         1 UNK         0.3000 
    150 H150       -2.5835  -20.5276  -42.2879 H         1 UNK         0.0600 
    151 H151        0.0220  -19.9817  -40.7665 H         1 UNK         0.0600 
    152 H152       -1.2786  -21.0319  -40.2162 H         1 UNK         0.0600 
    153 H153       -1.5605  -19.3057  -40.3914 H         1 UNK         0.0600 
    154 H154       -0.7120  -18.4404  -42.6035 H         1 UNK         0.3000 
    155 H155       -1.1726  -17.8632  -46.1167 H         1 UNK         0.0600 
    156 H156       -1.5402  -15.5923  -45.0370 H         1 UNK         0.0600 
    157 H157       -1.9572  -16.4020  -43.5332 H         1 UNK         0.0600 
    158 H158       -2.9485  -16.6381  -44.9601 H         1 UNK         0.0600 
    159 H159        0.5619  -16.6590  -44.2148 H         1 UNK         0.3000 
    160 H160        3.3995  -18.7722  -44.7622 H         1 UNK         0.0600 
    161 H161        2.7441  -15.9031  -45.6208 H         1 UNK         0.0600 
    162 H162        3.3529  -17.1705  -46.6752 H         1 UNK         0.0600 
    163 H163        4.3642  -16.5581  -45.3756 H         1 UNK         0.0600 
    164 H164        2.9895  -16.4156  -43.1926 H         1 UNK         0.3000 
    165 H165        1.8161  -17.9821  -40.2236 H         1 UNK         0.0600 
    166 H166        4.3097  -18.1498  -40.1541 H         1 UNK         0.0600 
    167 H167        4.4529  -16.5769  -40.9302 H         1 UNK         0.0600 
    168 H168        3.7477  -16.7099  -39.3195 H         1 UNK         0.0600 
    169 H169        2.3403  -15.2588  -40.9199 H         1 UNK         0.3000 
    170 H170       -0.1901  -14.4225  -42.7680 H         1 UNK         0.0600 
    171 H171       -1.6736  -13.1464  -41.2088 H         1 UNK         0.0600 
    172 H172       -1.2493  -14.2530  -39.9023 H         1 UNK         0.0600 
    173 H173       -2.1139  -14.8428  -41.3116 H         1 UNK         0.0600 
    174 H174        1.3245  -12.9395  -42.2788 H         1 UNK         0.3000 
    175 H175        2.2839  -11.1650  -39.5071 H         1 UNK         0.0600 
    176 H176        4.2695  -13.1495  -40.7509 H         1 UNK         0.0600 
    177 H177        3.9603  -12.9583  -39.0293 H         1 UNK         0.0600 
    178 H178        4.6885  -11.6430  -39.9348 H         1 UNK         0.0600 
    179 H179        3.3965  -11.3521  -42.1612 H         1 UNK         0.3000 
    180 H180        0.8767   -9.7529  -43.9299 H         1 UNK         0.0600 
    181 H181        3.3972   -8.2940  -42.9675 H         1 UNK         0.0600 
    182 H182        1.7514   -7.6890  -42.8230 H         1 UNK         0.0600 
    183 H183        2.4629   -7.9061  -44.4131 H         1 UNK         0.0600 
    184 H184        3.6072  -10.1505  -44.5875 H         1 UNK         0.3000 
    185 H185        4.1527  -11.7222  -46.0571 H         1 UNK         0.0600 
    186 H186        3.8769  -14.1770  -44.2184 H         1 UNK         0.0600 
    187 H187        5.1947  -13.9191  -45.3608 H         1 UNK         0.0600 
    188 H188        4.9931  -12.8376  -43.9924 H         1 UNK         0.0600 
    189 H189        1.9189  -13.5355  -46.4096 H         1 UNK         0.3000 
    190 H190       -2.2299  -21.6493  -45.6625 H         1 UNK         0.3000 
    191 H191       -4.4972  -22.9011  -46.9030 H         1 UNK         0.0600 
    192 H192       -4.7455  -21.0433  -45.2955 H         1 UNK         0.0600 
    193 H193       -5.5809  -22.4682  -44.6962 H         1 UNK         0.0600 
    194 H194       -4.0257  -22.0109  -44.0109 H         1 UNK         0.0600 
    195 H195       -2.2116  -23.9724  -44.3315 H         1 UNK         0.3000 
    196 H196       -3.4162  -26.4975  -43.8420 H         1 UNK         0.0600 
    197 H197       -1.2260  -27.0438  -42.7816 H         1 UNK         0.0600 
    198 H198       -1.7861  -25.4499  -42.2984 H         1 UNK         0.0600 
    199 H199       -0.5039  -25.6082  -43.4961 H         1 UNK         0.0600 
    200 H200       -0.9370  -25.4965  -46.2054 H         1 UNK         0.3000 
    201 H201       -0.5538  -28.0934  -47.3975 H         1 UNK         0.0600 
    202 H202        0.6506  -26.7684  -49.1313 H         1 UNK         0.0600 
    203 H203        1.1241  -26.2472  -47.5220 H         1 UNK         0.0600 
    204 H204        0.0018  -25.2732  -48.4699 H         1 UNK         0.0600 
    205 H205       -3.1568  -25.9181  -47.5549 H         1 UNK         0.3000 
    206 H206       -5.0307  -25.7045  -48.6480 H         1 UNK         0.0600 
    207 H207       -5.2016  -28.2004  -48.5142 H         1 UNK         0.0600 
    208 H208       -6.0190  -27.5459  -49.9233 H         1 UNK         0.0600 
    209 H209       -4.4596  -28.3313  -50.1095 H         1 UNK         0.0600 
    210 H210       -2.2897  -24.9537  -49.9682 H         1 UNK         0.3000 
    211 H211       -2.9288  -24.6511  -52.7928 H         1 UNK         0.0600 
    212 H212       -0.6109  -24.8968  -52.2480 H         1 UNK         0.0600 
    213 H213       -0.7989  -23.2106  -52.7066 H         1 UNK         0.0600 
    214 H214       -0.6691  -23.6568  -51.0066 H         1 UNK         0.0600 
    215 H215       -3.1936  -22.6315  -49.8661 H         1 UNK         0.3000 
    216 H216       -4.0899  -20.2617  -51.2840 H         1 UNK         0.0600 
    217 H217       -4.3778  -21.0659  -48.3461 H         1 UNK         0.0600 
    218 H218       -4.7830  -19.4892  -49.0080 H         1 UNK         0.0600 
    219 H219       -3.1228  -20.0430  -49.0493 H         1 UNK         0.0600 
    220 H220       -5.6817  -23.1324  -49.9454 H         1 UNK         0.3000 
    221 H221       -8.3973  -22.2055  -50.2572 H         1 UNK         0.0600 
    222 H222       -7.2966  -25.0553  -49.9858 H         1 UNK         0.0600 
    223 H223       -7.7740  -24.0078  -48.6503 H         1 UNK         0.0600 
    224 H224       -8.9745  -24.5704  -49.8025 H         1 UNK         0.0600 
    225 H225       -6.1482  -24.1375  -52.2620 H         1 UNK         0.3000 
    226 H226       -7.9137  -24.4980  -54.4971 H         1 UNK         0.0600 
    227 H227       -5.9411  -25.9557  -54.0262 H         1 UNK         0.0600 
    228 H228       -5.8237  -25.2423  -55.6270 H         1 UNK         0.0600 
    229 H229       -4.8550  -24.5954  -54.3092 H         1 UNK         0.0600 
    230 H230       -6.3043  -21.7361  -53.3607 H         1 UNK         0.3000 
    231 H231       -5.9658  -19.6659  -54.0200 H         1 UNK         0.0600 
    232 H232       -7.8948  -20.2253  -56.3346 H         1 UNK         0.0600 
    233 H233       -7.4154  -18.6452  -55.7344 H         1 UNK         0.0600 
    234 H234       -8.3579  -19.7176  -54.7111 H         1 UNK         0.0600 
    235 H235       -3.8781  -21.0981  -54.4644 H         1 UNK         0.3000 
    236 H236       -2.7720  -21.4133  -56.9660 H         1 UNK         0.0600 
    237 H237       -1.4175  -20.7205  -54.3062 H         1 UNK         0.0600 
    238 H238       -1.7871  -22.3331  -54.9180 H         1 UNK         0.0600 
    239 H239       -0.5742  -21.3501  -55.7178 H         1 UNK         0.0600 
    240 H240       -3.2653  -18.3454  -55.4088 H         1 UNK         0.3000 
    241 H241       -1.4035  -16.8191  -57.0350 H         1 UNK         0.0600 
    242 H242       -4.4805  -18.2829  -57.8803 H         1 UNK         0.3800 
    243 H243       -4.7440  -17.2635  -59.2732 H         1 UNK         0.3800 
    244 H244       -2.6145  -14.8169  -56.1346 H         1 UNK         0.0800 
    245 H245       -3.7677  -15.8582  -55.3462 H         1 UNK         0.0800 
    246 H246       -3.4860  -15.8867  -52.7714 H         1 UNK         0.0800 
    247 H247       -3.1441  -17.5005  -53.3553 H         1 UNK         0.0800 
@<TRIPOS>BOND
     1    1    2 1    
     2    1  127 1    
     3    1  128 1    
     4    1  129 1    
     5    2    3 2    
     6    2    4 am   BACKBONE|DICT|INTERRES
     7    4    5 1    
     8    4  130 1    
     9    5    6 1    
    10    5   65 1    
    11    5  131 1    
    12    6    7 1    
    13    6  132 1    
    14    6  133 1    
    15    7    8 1    
    16    8    9 1    
    17    8  134 1    
    18    8  135 1    
    19    9   10 ar   
    20    9   14 ar   
    21   10   11 ar   
    22   10  136 1    
    23   11   12 ar   
    24   11  126 1    
    25   12   13 ar   
    26   12  137 1    
    27   13   14 ar   
    28   13   15 1    
    29   14  138 1    
    30   15   16 1    
    31   15  139 1    
    32   15  140 1    
    33   16   17 1    
    34   17   18 1    
    35   17  141 1    
    36   17  142 1    
    37   18   19 1    
    38   18   67 1    
    39   18  143 1    
    40   19   20 am   BACKBONE|DICT|INTERRES
    41   19  144 1    
    42   20   21 2    
    43   20   22 1    
    44   22   23 1    
    45   22   24 1    
    46   22  145 1    
    47   23  146 1    
    48   23  147 1    
    49   23  148 1    
    50   24   25 am   BACKBONE|DICT|INTERRES
    51   24  149 1    
    52   25   26 2    
    53   25   27 1    
    54   27   28 1    
    55   27   29 1    
    56   27  150 1    
    57   28  151 1    
    58   28  152 1    
    59   28  153 1    
    60   29   30 am   BACKBONE|DICT|INTERRES
    61   29  154 1    
    62   30   31 2    
    63   30   32 1    
    64   32   33 1    
    65   32   34 1    
    66   32  155 1    
    67   33  156 1    
    68   33  157 1    
    69   33  158 1    
    70   34   35 am   BACKBONE|DICT|INTERRES
    71   34  159 1    
    72   35   36 2    
    73   35   37 1    
    74   37   38 1    
    75   37   39 1    
    76   37  160 1    
    77   38  161 1    
    78   38  162 1    
    79   38  163 1    
    80   39   40 am   BACKBONE|DICT|INTERRES
    81   39  164 1    
    82   40   41 2    
    83   40   42 1    
    84   42   43 1    
    85   42   44 1    
    86   42  165 1    
    87   43  166 1    
    88   43  167 1    
    89   43  168 1    
    90   44   45 am   BACKBONE|DICT|INTERRES
    91   44  169 1    
    92   45   46 2    
    93   45   47 1    
    94   47   48 1    
    95   47   49 1    
    96   47  170 1    
    97   48  171 1    
    98   48  172 1    
    99   48  173 1    
   100   49   50 am   BACKBONE|DICT|INTERRES
   101   49  174 1    
   102   50   51 2    
   103   50   52 1    
   104   52   53 1    
   105   52   54 1    
   106   52  175 1    
   107   53  176 1    
   108   53  177 1    
   109   53  178 1    
   110   54   55 am   BACKBONE|DICT|INTERRES
   111   54  179 1    
   112   55   56 2    
   113   55   57 1    
   114   57   58 1    
   115   57   59 1    
   116   57  180 1    
   117   58  181 1    
   118   58  182 1    
   119   58  183 1    
   120   59   60 am   BACKBONE|DICT|INTERRES
   121   59  184 1    
   122   60   61 2    
   123   60   62 1    
   124   62   63 1    
   125   62   64 1    
   126   62  185 1    
   127   63  186 1    
   128   63  187 1    
   129   63  188 1    
   130   64   65 am   BACKBONE|DICT|INTERRES
   131   64  189 1    
   132   65   66 2    
   133   67   68 2    
   134   67   69 am   BACKBONE|DICT|INTERRES
   135   69   70 1    
   136   69  190 1    
   137   70   71 1    
   138   70   72 1    
   139   70  191 1    
   140   71  192 1    
   141   71  193 1    
   142   71  194 1    
   143   72   73 2    
   144   72   74 am   BACKBONE|DICT|INTERRES
   145   74   75 1    
   146   74  195 1    
   147   75   76 1    
   148   75   77 1    
   149   75  196 1    
   150   76  197 1    
   151   76  198 1    
   152   76  199 1    
   153   77   78 2    
   154   77   79 am   BACKBONE|DICT|INTERRES
   155   79   80 1    
   156   79  200 1    
   157   80   81 1    
   158   80   82 1    
   159   80  201 1    
   160   81  202 1    
   161   81  203 1    
   162   81  204 1    
   163   82   83 2    
   164   82   84 am   BACKBONE|DICT|INTERRES
   165   84   85 1    
   166   84  205 1    
   167   85   86 1    
   168   85   87 1    
   169   85  206 1    
   170   86  207 1    
   171   86  208 1    
   172   86  209 1    
   173   87   88 2    
   174   87   89 am   BACKBONE|DICT|INTERRES
   175   89   90 1    
   176   89  210 1    
   177   90   91 1    
   178   90   92 1    
   179   90  211 1    
   180   91  212 1    
   181   91  213 1    
   182   91  214 1    
   183   92   93 2    
   184   92   94 am   BACKBONE|DICT|INTERRES
   185   94   95 1    
   186   94  215 1    
   187   95   96 1    
   188   95   97 1    
   189   95  216 1    
   190   96  217 1    
   191   96  218 1    
   192   96  219 1    
   193   97   98 2    
   194   97   99 am   BACKBONE|DICT|INTERRES
   195   99  100 1    
   196   99  220 1    
   197  100  101 1    
   198  100  102 1    
   199  100  221 1    
   200  101  222 1    
   201  101  223 1    
   202  101  224 1    
   203  102  103 2    
   204  102  104 am   BACKBONE|DICT|INTERRES
   205  104  105 1    
   206  104  225 1    
   207  105  106 1    
   208  105  107 1    
   209  105  226 1    
   210  106  227 1    
   211  106  228 1    
   212  106  229 1    
   213  107  108 2    
   214  107  109 am   BACKBONE|DICT|INTERRES
   215  109  110 1    
   216  109  230 1    
   217  110  111 1    
   218  110  112 1    
   219  110  231 1    
   220  111  232 1    
   221  111  233 1    
   222  111  234 1    
   223  112  113 2    
   224  112  114 am   BACKBONE|DICT|INTERRES
   225  114  115 1    
   226  114  235 1    
   227  115  116 1    
   228  115  117 1    
   229  115  236 1    
   230  116  237 1    
   231  116  238 1    
   232  116  239 1    
   233  117  118 2    
   234  117  119 am   BACKBONE|DICT|INTERRES
   235  119  120 1    
   236  119  240 1    
   237  120  121 1    
   238  120  124 1    
   239  120  241 1    
   240  121  122 am   BACKBONE|DICT|INTERRES
   241  121  123 2    
   242  122  242 1    
   243  122  243 1    
   244  124  125 1    
   245  124  244 1    
   246  124  245 1    
   247  125  126 1    
   248  126  246 1    
   249  126  247 1    
@<TRIPOS>SUBSTRUCTURE
     1 UNK         1 GROUP             0       ****    0 ROOT    
