@<TRIPOS>MOLECULE
3R540
247   249    1
SMALL
USER_CHARGES


@<TRIPOS>ATOM
      1 CA          5.8222  -13.2066  -50.0623 C.3       0 UNK        -0.1800 
      2 C           4.7519  -13.5126  -49.0243 C.2       0 UNK         0.5000 
      3 O           4.5641  -12.7353  -48.0890 O.2       0 UNK        -0.5000 
      4 N           4.0524  -14.6428  -49.1860 N.am      1 UNK        -0.5000 
      5 CA          2.9840  -15.1020  -48.2865 C.3       1 UNK         0.1400 
      6 C6          2.6904  -16.6175  -48.4251 C.3       23 UNK        -0.0398 
      7 S7          4.1643  -17.7001  -48.5249 S.3       23 UNK        -0.2404 
      8 C8          4.3360  -18.0045  -50.3216 C.3       23 UNK        -0.0205 
      9 C9          3.0974  -18.6606  -50.9135 C.ar      23 UNK        -0.0193 
     10 C10         2.1240  -17.8799  -51.5397 C.ar      23 UNK        -0.1150 
     11 C11         0.9152  -18.4433  -51.9505 C.ar      23 UNK        -0.0193 
     12 C12         0.7190  -19.8213  -51.8129 C.ar      23 UNK        -0.1150 
     13 C13         1.7110  -20.6281  -51.2422 C.ar      23 UNK        -0.0193 
     14 C14         2.8988  -20.0372  -50.7945 C.ar      23 UNK        -0.1150 
     15 C15         1.4964  -22.1347  -51.1250 C.3       23 UNK        -0.0205 
     16 S16         1.9926  -22.8236  -49.5107 S.3       23 UNK        -0.2404 
     17 C17         0.8557  -21.9921  -48.3489 C.3       23 UNK        -0.0398 
     18 CA          0.2917  -22.9908  -47.3067 C.3       11 UNK         0.1400 
     19 N           0.1373  -22.3877  -45.9796 N.am      11 UNK        -0.5000 
     20 C           0.0247  -23.0906  -44.8432 C.2       10 UNK         0.5000 
     21 O           0.0949  -24.3180  -44.7924 O.2       10 UNK        -0.5000 
     22 CA         -0.2670  -22.2976  -43.5549 C.3       10 UNK         0.1400 
     23 CB          1.0279  -21.7503  -42.9369 C.3       10 UNK        -0.1800 
     24 N          -1.2128  -21.2036  -43.7784 N.am      10 UNK        -0.5000 
     25 C          -2.4894  -21.3806  -44.1467 C.2       9 UNK         0.5000 
     26 O          -3.0198  -22.4874  -44.2423 O.2       9 UNK        -0.5000 
     27 CA         -3.2906  -20.1206  -44.5248 C.3       9 UNK         0.1400 
     28 CB         -3.9151  -19.4770  -43.2786 C.3       9 UNK        -0.1800 
     29 N          -2.4900  -19.1275  -45.2446 N.am      9 UNK        -0.5000 
     30 C          -1.9231  -19.3221  -46.4445 C.2       8 UNK         0.5000 
     31 O          -2.0418  -20.3582  -47.0920 O.2       8 UNK        -0.5000 
     32 CA         -1.0221  -18.2001  -46.9860 C.3       8 UNK         0.1400 
     33 CB         -1.8591  -17.0822  -47.6158 C.3       8 UNK        -0.1800 
     34 N          -0.1651  -17.6448  -45.9407 N.am      8 UNK        -0.5000 
     35 C           0.8449  -18.3129  -45.3666 C.2       7 UNK         0.5000 
     36 O           1.1883  -19.4474  -45.6988 O.2       7 UNK        -0.5000 
     37 CA          1.5613  -17.6040  -44.2025 C.3       7 UNK         0.1400 
     38 CB          2.6343  -16.6365  -44.7218 C.3       7 UNK        -0.1800 
     39 N           0.6324  -16.8719  -43.3401 N.am      7 UNK        -0.5000 
     40 C          -0.2808  -17.4556  -42.5529 C.2       6 UNK         0.5000 
     41 O          -0.4271  -18.6743  -42.4632 O.2       6 UNK        -0.5000 
     42 CA         -1.2112  -16.5158  -41.7667 C.3       6 UNK         0.1400 
     43 CB         -0.5210  -16.0097  -40.4916 C.3       6 UNK        -0.1800 
     44 N          -1.6797  -15.3710  -42.5512 N.am      6 UNK        -0.5000 
     45 C          -2.4372  -15.4475  -43.6516 C.2       5 UNK         0.5000 
     46 O          -2.7548  -16.5075  -44.1880 O.2       5 UNK        -0.5000 
     47 CA         -2.9062  -14.1251  -44.2794 C.3       5 UNK         0.1400 
     48 CB         -3.8983  -13.3759  -43.3699 C.3       5 UNK        -0.1800 
     49 N          -1.8093  -13.2598  -44.7234 N.am      5 UNK        -0.5000 
     50 C          -0.9005  -12.6011  -43.9887 C.2       4 UNK         0.5000 
     51 O          -0.8343  -12.6571  -42.7600 O.2       4 UNK        -0.5000 
     52 CA          0.1169  -11.7399  -44.7617 C.3       4 UNK         0.1400 
     53 CB          1.4871  -12.4349  -44.7955 C.3       4 UNK        -0.1800 
     54 N          -0.3116  -11.4502  -46.1345 N.am      4 UNK        -0.5000 
     55 C          -1.2042  -10.5071  -46.4733 C.2       3 UNK         0.5000 
     56 O          -1.7489   -9.7766  -45.6449 O.2       3 UNK        -0.5000 
     57 CA         -1.5971  -10.3587  -47.9625 C.3       3 UNK         0.1400 
     58 CB         -1.2257   -8.9647  -48.5078 C.3       3 UNK        -0.1800 
     59 N          -1.1124  -11.4263  -48.8504 N.am      3 UNK        -0.5000 
     60 C           0.1515  -11.6894  -49.2052 C.2       2 UNK         0.5000 
     61 O           1.1266  -11.0263  -48.8473 O.2       2 UNK        -0.5000 
     62 CA          0.3583  -12.9256  -50.0944 C.3       2 UNK         0.1400 
     63 CB          0.5254  -12.5175  -51.5655 C.3       2 UNK        -0.1800 
     64 N           1.5212  -13.7041  -49.6805 N.am      2 UNK        -0.5000 
     65 C           1.6700  -14.3155  -48.4961 C.2       1 UNK         0.5000 
     66 O           0.8141  -14.3073  -47.6091 O.2       1 UNK        -0.5000 
     67 C          -1.0056  -23.6797  -47.7876 C.2       11 UNK         0.5000 
     68 O          -0.9317  -24.7272  -48.4257 O.2       11 UNK        -0.5000 
     69 N          -2.1729  -23.1269  -47.4263 N.am      12 UNK        -0.5000 
     70 CA         -3.4933  -23.7076  -47.6837 C.3       12 UNK         0.1400 
     71 CB         -4.5966  -22.6977  -47.3345 C.3       12 UNK        -0.1800 
     72 C          -3.7200  -25.0477  -46.9610 C.2       12 UNK         0.5000 
     73 O          -4.4084  -25.9152  -47.4979 O.2       12 UNK        -0.5000 
     74 N          -3.1171  -25.1995  -45.7753 N.am      13 UNK        -0.5000 
     75 CA         -3.1022  -26.4398  -45.0004 C.3       13 UNK         0.1400 
     76 CB         -2.8141  -26.0964  -43.5304 C.3       13 UNK        -0.1800 
     77 C          -2.0862  -27.4766  -45.5269 C.2       13 UNK         0.5000 
     78 O          -2.1923  -28.6511  -45.1697 O.2       13 UNK        -0.5000 
     79 N          -1.1192  -27.0385  -46.3433 N.am      14 UNK        -0.5000 
     80 CA         -0.0912  -27.8751  -46.9602 C.3       14 UNK         0.1400 
     81 CB          1.1967  -27.0436  -47.1046 C.3       14 UNK        -0.1800 
     82 C          -0.5563  -28.4284  -48.3222 C.2       14 UNK         0.5000 
     83 O          -1.6516  -28.1095  -48.7938 O.2       14 UNK        -0.5000 
     84 N           0.2975  -29.2598  -48.9357 N.am      15 UNK        -0.5000 
     85 CA          0.0995  -29.8454  -50.2637 C.3       15 UNK         0.1400 
     86 CB          1.2615  -30.8034  -50.5673 C.3       15 UNK        -0.1800 
     87 C          -0.0207  -28.7746  -51.3664 C.2       15 UNK         0.5000 
     88 O           0.6712  -27.7566  -51.3074 O.2       15 UNK        -0.5000 
     89 N          -0.9136  -29.0284  -52.3331 N.am      16 UNK        -0.5000 
     90 CA         -1.3256  -28.1672  -53.4547 C.3       16 UNK         0.1400 
     91 CB         -0.1238  -27.7288  -54.3163 C.3       16 UNK        -0.1800 
     92 C          -2.2138  -26.9655  -53.0583 C.2       16 UNK         0.5000 
     93 O          -2.8441  -26.3800  -53.9405 O.2       16 UNK        -0.5000 
     94 N          -2.2948  -26.6562  -51.7566 N.am      17 UNK        -0.5000 
     95 CA         -3.1045  -25.6151  -51.1215 C.3       17 UNK         0.1400 
     96 CB         -4.6070  -25.9515  -51.2508 C.3       17 UNK        -0.1800 
     97 C          -2.7606  -24.1767  -51.5782 C.2       17 UNK         0.5000 
     98 O          -1.6984  -23.9357  -52.1561 O.2       17 UNK        -0.5000 
     99 N          -3.6611  -23.2371  -51.2703 N.am      18 UNK        -0.5000 
    100 CA        -3.5698  -21.8038  -51.5201 C.3       18 UNK         0.1400 
    101 CB        -2.5288  -21.1577  -50.5858 C.3       18 UNK        -0.1800 
    102 C         -4.9530  -21.1936  -51.2551 C.2       18 UNK         0.5000 
    103 O         -5.7744  -21.8117  -50.5705 O.2       18 UNK        -0.5000 
    104 N         -5.1726  -19.9816  -51.7728 N.am      19 UNK        -0.5000 
    105 CA        -6.3173  -19.1393  -51.4292 C.3       19 UNK         0.1400 
    106 CB        -6.6045  -18.1925  -52.6051 C.3       19 UNK        -0.1800 
    107 C         -6.0233  -18.3379  -50.1478 C.2       19 UNK         0.5000 
    108 O         -4.8549  -18.1163  -49.8162 O.2       19 UNK        -0.5000 
    109 N         -7.0850  -17.8808  -49.4701 N.am      20 UNK        -0.5000 
    110 CA        -7.0178  -17.0262  -48.2816 C.3       20 UNK         0.1400 
    111 CB        -8.4395  -16.7664  -47.7603 C.3       20 UNK        -0.1800 
    112 C         -6.2898  -15.7038  -48.5871 C.2       20 UNK         0.5000 
    113 O         -6.7337  -14.9541  -49.4604 O.2       20 UNK        -0.5000 
    114 N         -5.1433  -15.4924  -47.9230 N.am      21 UNK        -0.5000 
    115 CA        -4.1897  -14.3927  -48.1387 C.3       21 UNK         0.1400 
    116 CB        -4.8057  -13.0531  -47.6882 C.3       21 UNK        -0.1800 
    117 C         -3.6124  -14.3288  -49.5728 C.2       21 UNK         0.5000 
    118 O         -3.1140  -13.2758  -49.9761 O.2       21 UNK        -0.5000 
    119 N         -3.6971  -15.4499  -50.3049 N.am      22 UNK        -0.5000 
    120 CA        -3.4307  -15.5962  -51.7453 C.3       22 UNK         0.1400 
    121 C         -4.4377  -14.8282  -52.6577 C.2       22 UNK         0.5000 
    122 N         -5.6140  -14.4430  -52.1736 N.am      22 UNK        -0.7600 
    123 O         -4.1695  -14.6047  -53.8349 O.2       22 UNK        -0.5000 
    124 C124       -1.9486  -15.3547  -52.1385 C.3       23 UNK        -0.0398 
    125 S125       -0.7935  -16.4157  -51.2037 S.3       23 UNK        -0.2404 
    126 C126       -0.1793  -17.5410  -52.5003 C.3       23 UNK        -0.0205 
    127 H127        5.6042  -12.2606  -50.5579 H         1 UNK         0.0600 
    128 H128        5.8832  -13.9840  -50.8243 H         1 UNK         0.0600 
    129 H129        6.7974  -13.1245  -49.5823 H         1 UNK         0.0600 
    130 H130        4.2746  -15.2579  -49.9541 H         1 UNK         0.3000 
    131 H131        3.3132  -14.9181  -47.2618 H         1 UNK         0.0600 
    132 H132        2.1151  -16.9474  -47.5623 H         1 UNK         0.0800 
    133 H133        2.0286  -16.8064  -49.2646 H         1 UNK         0.0800 
    134 H134        4.5537  -17.0679  -50.8355 H         1 UNK         0.0800 
    135 H135        5.2020  -18.6470  -50.4874 H         1 UNK         0.0800 
    136 H136        2.2712  -16.8135  -51.6393 H         1 UNK         0.1150 
    137 H137       -0.2073  -20.2644  -52.1486 H         1 UNK         0.1150 
    138 H138        3.6618  -20.6442  -50.3280 H         1 UNK         0.1150 
    139 H139        0.4588  -22.4040  -51.3196 H         1 UNK         0.0800 
    140 H140        2.0843  -22.6238  -51.9023 H         1 UNK         0.0800 
    141 H141        0.0609  -21.4687  -48.8829 H         1 UNK         0.0800 
    142 H142        1.4377  -21.2127  -47.8546 H         1 UNK         0.0800 
    143 H143        1.0287  -23.7869  -47.1777 H         1 UNK         0.0600 
    144 H144        0.0949  -21.3767  -45.9365 H         1 UNK         0.3000 
    145 H145       -0.7175  -22.9868  -42.8374 H         1 UNK         0.0600 
    146 H146        0.8292  -21.2401  -41.9942 H         1 UNK         0.0600 
    147 H147        1.7312  -22.5574  -42.7286 H         1 UNK         0.0600 
    148 H148        1.5270  -21.0440  -43.5997 H         1 UNK         0.0600 
    149 H149       -0.8665  -20.2594  -43.6433 H         1 UNK         0.3000 
    150 H150       -4.1017  -20.4295  -45.1864 H         1 UNK         0.0600 
    151 H151       -4.5411  -20.1911  -42.7423 H         1 UNK         0.0600 
    152 H152       -4.5453  -18.6289  -43.5469 H         1 UNK         0.0600 
    153 H153       -3.1535  -19.1213  -42.5847 H         1 UNK         0.0600 
    154 H154       -2.3887  -18.2205  -44.7956 H         1 UNK         0.3000 
    155 H155       -0.3835  -18.6244  -47.7644 H         1 UNK         0.0600 
    156 H156       -1.2265  -16.2917  -48.0205 H         1 UNK         0.0600 
    157 H157       -2.5344  -16.6393  -46.8857 H         1 UNK         0.0600 
    158 H158       -2.4640  -17.4681  -48.4375 H         1 UNK         0.0600 
    159 H159       -0.4057  -16.7303  -45.5898 H         1 UNK         0.3000 
    160 H160        2.0551  -18.3705  -43.6013 H         1 UNK         0.0600 
    161 H161        2.1944  -15.8213  -45.2965 H         1 UNK         0.0600 
    162 H162        3.3481  -17.1520  -45.3657 H         1 UNK         0.0600 
    163 H163        3.1998  -16.1978  -43.8996 H         1 UNK         0.0600 
    164 H164        0.6843  -15.8643  -43.3536 H         1 UNK         0.3000 
    165 H165       -2.0884  -17.0948  -41.4708 H         1 UNK         0.0600 
    166 H166       -1.2067  -15.4240  -39.8792 H         1 UNK         0.0600 
    167 H167       -0.1700  -16.8420  -39.8799 H         1 UNK         0.0600 
    168 H168        0.3415  -15.3827  -40.7213 H         1 UNK         0.0600 
    169 H169       -1.4128  -14.4442  -42.2320 H         1 UNK         0.3000 
    170 H170       -3.4550  -14.3947  -45.1811 H         1 UNK         0.0600 
    171 H171       -4.7529  -14.0080  -43.1253 H         1 UNK         0.0600 
    172 H172       -3.4452  -13.0654  -42.4282 H         1 UNK         0.0600 
    173 H173       -4.2853  -12.4844  -43.8638 H         1 UNK         0.0600 
    174 H174       -1.7220  -13.1560  -45.7235 H         1 UNK         0.3000 
    175 H175        0.2293  -10.7966  -44.2231 H         1 UNK         0.0600 
    176 H176        1.4266  -13.4274  -45.2404 H         1 UNK         0.0600 
    177 H177        2.2133  -11.8550  -45.3657 H         1 UNK         0.0600 
    178 H178        1.8865  -12.5556  -43.7877 H         1 UNK         0.0600 
    179 H179        0.1180  -11.9985  -46.8680 H         1 UNK         0.3000 
    180 H180       -2.6845  -10.4277  -47.9917 H         1 UNK         0.0600 
    181 H181       -1.5288   -8.8541  -49.5490 H         1 UNK         0.0600 
    182 H182       -0.1546   -8.7721  -48.4462 H         1 UNK         0.0600 
    183 H183       -1.7266   -8.1795  -47.9403 H         1 UNK         0.0600 
    184 H184       -1.8386  -12.0343  -49.2236 H         1 UNK         0.3000 
    185 H185       -0.5114  -13.5766  -50.0041 H         1 UNK         0.0600 
    186 H186        0.6532  -13.3902  -52.2064 H         1 UNK         0.0600 
    187 H187       -0.3535  -11.9782  -51.9213 H         1 UNK         0.0600 
    188 H188        1.3900  -11.8675  -51.7068 H         1 UNK         0.0600 
    189 H189        2.2934  -13.7361  -50.3282 H         1 UNK         0.3000 
    190 H190       -2.1558  -22.2083  -46.9902 H         1 UNK         0.3000 
    191 H191       -3.5577  -23.9036  -48.7494 H         1 UNK         0.0600 
    192 H192       -5.5702  -23.0641  -47.6619 H         1 UNK         0.0600 
    193 H193       -4.4332  -21.7379  -47.8243 H         1 UNK         0.0600 
    194 H194       -4.6620  -22.5226  -46.2621 H         1 UNK         0.0600 
    195 H195       -2.6185  -24.4100  -45.3832 H         1 UNK         0.3000 
    196 H196       -4.0929  -26.8961  -45.0528 H         1 UNK         0.0600 
    197 H197       -1.8287  -25.6462  -43.4076 H         1 UNK         0.0600 
    198 H198       -3.5520  -25.3969  -43.1367 H         1 UNK         0.0600 
    199 H199       -2.8468  -26.9900  -42.9060 H         1 UNK         0.0600 
    200 H200       -1.1490  -26.0773  -46.6559 H         1 UNK         0.3000 
    201 H201        0.1228  -28.7231  -46.3064 H         1 UNK         0.0600 
    202 H202        1.0986  -26.2714  -47.8675 H         1 UNK         0.0600 
    203 H203        2.0419  -27.6712  -47.3881 H         1 UNK         0.0600 
    204 H204        1.4606  -26.5550  -46.1663 H         1 UNK         0.0600 
    205 H205        1.1851  -29.4529  -48.4960 H         1 UNK         0.3000 
    206 H206       -0.8267  -30.4230  -50.2324 H         1 UNK         0.0600 
    207 H207        1.3234  -31.5988  -49.8243 H         1 UNK         0.0600 
    208 H208        1.1322  -31.2789  -51.5405 H         1 UNK         0.0600 
    209 H209        2.2191  -30.2812  -50.5825 H         1 UNK         0.0600 
    210 H210       -1.4319  -29.8939  -52.2677 H         1 UNK         0.3000 
    211 H211       -1.9531  -28.8011  -54.0831 H         1 UNK         0.0600 
    212 H212       -0.4622  -27.2498  -55.2357 H         1 UNK         0.0600 
    213 H213        0.4914  -28.5819  -54.6023 H         1 UNK         0.0600 
    214 H214        0.5119  -27.0113  -53.7973 H         1 UNK         0.0600 
    215 H215       -1.7024  -27.1721  -51.1198 H         1 UNK         0.3000 
    216 H216       -2.8461  -25.6724  -50.0645 H         1 UNK         0.0600 
    217 H217       -5.2140  -25.3357  -50.5865 H         1 UNK         0.0600 
    218 H218       -4.9698  -25.8012  -52.2682 H         1 UNK         0.0600 
    219 H219       -4.8003  -26.9889  -50.9773 H         1 UNK         0.0600 
    220 H220       -4.5354  -23.5006  -50.8319 H         1 UNK         0.3000 
    221 H221       -3.2948  -21.6406  -52.5639 H         1 UNK         0.0600 
    222 H222       -1.5532  -21.6249  -50.6875 H         1 UNK         0.0600 
    223 H223       -2.8232  -21.2416  -49.5404 H         1 UNK         0.0600 
    224 H224       -2.4067  -20.0956  -50.8023 H         1 UNK         0.0600 
    225 H225       -4.4273  -19.5280  -52.2796 H         1 UNK         0.3000 
    226 H226       -7.1984  -19.7620  -51.2593 H         1 UNK         0.0600 
    227 H227       -5.7444  -17.5664  -52.8406 H         1 UNK         0.0600 
    228 H228       -6.8647  -18.7517  -53.5039 H         1 UNK         0.0600 
    229 H229       -7.4412  -17.5288  -52.3832 H         1 UNK         0.0600 
    230 H230       -8.0100  -18.0750  -49.8247 H         1 UNK         0.3000 
    231 H231       -6.4663  -17.5688  -47.5108 H         1 UNK         0.0600 
    232 H232       -9.0554  -16.2583  -48.5036 H         1 UNK         0.0600 
    233 H233       -8.4187  -16.1397  -46.8678 H         1 UNK         0.0600 
    234 H234       -8.9380  -17.6978  -47.4911 H         1 UNK         0.0600 
    235 H235       -4.8535  -16.1912  -47.2536 H         1 UNK         0.3000 
    236 H236       -3.3347  -14.5858  -47.4936 H         1 UNK         0.0600 
    237 H237       -4.0571  -12.2630  -47.6723 H         1 UNK         0.0600 
    238 H238       -5.6065  -12.7315  -48.3547 H         1 UNK         0.0600 
    239 H239       -5.2166  -13.1251  -46.6812 H         1 UNK         0.0600 
    240 H240       -4.0988  -16.2764  -49.8742 H         1 UNK         0.3000 
    241 H241       -3.6342  -16.6459  -51.9572 H         1 UNK         0.0600 
    242 H242       -6.2564  -13.9565  -52.7779 H         1 UNK         0.3800 
    243 H243       -5.8778  -14.6235  -51.2099 H         1 UNK         0.3800 
    244 H244       -1.6816  -14.3117  -51.9762 H         1 UNK         0.0800 
    245 H245       -1.8016  -15.5349  -53.2043 H         1 UNK         0.0800 
    246 H246       -1.0104  -18.1295  -52.8919 H         1 UNK         0.0800 
    247 H247        0.2199  -16.9604  -53.3331 H         1 UNK         0.0800 
@<TRIPOS>BOND
     1    1    2 1    
     2    1  127 1    
     3    1  128 1    
     4    1  129 1    
     5    2    3 2    
     6    2    4 am   BACKBONE|DICT|INTERRES
     7    4    5 1    
     8    4  130 1    
     9    5    6 1    
    10    5   65 1    
    11    5  131 1    
    12    6    7 1    
    13    6  132 1    
    14    6  133 1    
    15    7    8 1    
    16    8    9 1    
    17    8  134 1    
    18    8  135 1    
    19    9   10 ar   
    20    9   14 ar   
    21   10   11 ar   
    22   10  136 1    
    23   11   12 ar   
    24   11  126 1    
    25   12   13 ar   
    26   12  137 1    
    27   13   14 ar   
    28   13   15 1    
    29   14  138 1    
    30   15   16 1    
    31   15  139 1    
    32   15  140 1    
    33   16   17 1    
    34   17   18 1    
    35   17  141 1    
    36   17  142 1    
    37   18   19 1    
    38   18   67 1    
    39   18  143 1    
    40   19   20 am   BACKBONE|DICT|INTERRES
    41   19  144 1    
    42   20   21 2    
    43   20   22 1    
    44   22   23 1    
    45   22   24 1    
    46   22  145 1    
    47   23  146 1    
    48   23  147 1    
    49   23  148 1    
    50   24   25 am   BACKBONE|DICT|INTERRES
    51   24  149 1    
    52   25   26 2    
    53   25   27 1    
    54   27   28 1    
    55   27   29 1    
    56   27  150 1    
    57   28  151 1    
    58   28  152 1    
    59   28  153 1    
    60   29   30 am   BACKBONE|DICT|INTERRES
    61   29  154 1    
    62   30   31 2    
    63   30   32 1    
    64   32   33 1    
    65   32   34 1    
    66   32  155 1    
    67   33  156 1    
    68   33  157 1    
    69   33  158 1    
    70   34   35 am   BACKBONE|DICT|INTERRES
    71   34  159 1    
    72   35   36 2    
    73   35   37 1    
    74   37   38 1    
    75   37   39 1    
    76   37  160 1    
    77   38  161 1    
    78   38  162 1    
    79   38  163 1    
    80   39   40 am   BACKBONE|DICT|INTERRES
    81   39  164 1    
    82   40   41 2    
    83   40   42 1    
    84   42   43 1    
    85   42   44 1    
    86   42  165 1    
    87   43  166 1    
    88   43  167 1    
    89   43  168 1    
    90   44   45 am   BACKBONE|DICT|INTERRES
    91   44  169 1    
    92   45   46 2    
    93   45   47 1    
    94   47   48 1    
    95   47   49 1    
    96   47  170 1    
    97   48  171 1    
    98   48  172 1    
    99   48  173 1    
   100   49   50 am   BACKBONE|DICT|INTERRES
   101   49  174 1    
   102   50   51 2    
   103   50   52 1    
   104   52   53 1    
   105   52   54 1    
   106   52  175 1    
   107   53  176 1    
   108   53  177 1    
   109   53  178 1    
   110   54   55 am   BACKBONE|DICT|INTERRES
   111   54  179 1    
   112   55   56 2    
   113   55   57 1    
   114   57   58 1    
   115   57   59 1    
   116   57  180 1    
   117   58  181 1    
   118   58  182 1    
   119   58  183 1    
   120   59   60 am   BACKBONE|DICT|INTERRES
   121   59  184 1    
   122   60   61 2    
   123   60   62 1    
   124   62   63 1    
   125   62   64 1    
   126   62  185 1    
   127   63  186 1    
   128   63  187 1    
   129   63  188 1    
   130   64   65 am   BACKBONE|DICT|INTERRES
   131   64  189 1    
   132   65   66 2    
   133   67   68 2    
   134   67   69 am   BACKBONE|DICT|INTERRES
   135   69   70 1    
   136   69  190 1    
   137   70   71 1    
   138   70   72 1    
   139   70  191 1    
   140   71  192 1    
   141   71  193 1    
   142   71  194 1    
   143   72   73 2    
   144   72   74 am   BACKBONE|DICT|INTERRES
   145   74   75 1    
   146   74  195 1    
   147   75   76 1    
   148   75   77 1    
   149   75  196 1    
   150   76  197 1    
   151   76  198 1    
   152   76  199 1    
   153   77   78 2    
   154   77   79 am   BACKBONE|DICT|INTERRES
   155   79   80 1    
   156   79  200 1    
   157   80   81 1    
   158   80   82 1    
   159   80  201 1    
   160   81  202 1    
   161   81  203 1    
   162   81  204 1    
   163   82   83 2    
   164   82   84 am   BACKBONE|DICT|INTERRES
   165   84   85 1    
   166   84  205 1    
   167   85   86 1    
   168   85   87 1    
   169   85  206 1    
   170   86  207 1    
   171   86  208 1    
   172   86  209 1    
   173   87   88 2    
   174   87   89 am   BACKBONE|DICT|INTERRES
   175   89   90 1    
   176   89  210 1    
   177   90   91 1    
   178   90   92 1    
   179   90  211 1    
   180   91  212 1    
   181   91  213 1    
   182   91  214 1    
   183   92   93 2    
   184   92   94 am   BACKBONE|DICT|INTERRES
   185   94   95 1    
   186   94  215 1    
   187   95   96 1    
   188   95   97 1    
   189   95  216 1    
   190   96  217 1    
   191   96  218 1    
   192   96  219 1    
   193   97   98 2    
   194   97   99 am   BACKBONE|DICT|INTERRES
   195   99  100 1    
   196   99  220 1    
   197  100  101 1    
   198  100  102 1    
   199  100  221 1    
   200  101  222 1    
   201  101  223 1    
   202  101  224 1    
   203  102  103 2    
   204  102  104 am   BACKBONE|DICT|INTERRES
   205  104  105 1    
   206  104  225 1    
   207  105  106 1    
   208  105  107 1    
   209  105  226 1    
   210  106  227 1    
   211  106  228 1    
   212  106  229 1    
   213  107  108 2    
   214  107  109 am   BACKBONE|DICT|INTERRES
   215  109  110 1    
   216  109  230 1    
   217  110  111 1    
   218  110  112 1    
   219  110  231 1    
   220  111  232 1    
   221  111  233 1    
   222  111  234 1    
   223  112  113 2    
   224  112  114 am   BACKBONE|DICT|INTERRES
   225  114  115 1    
   226  114  235 1    
   227  115  116 1    
   228  115  117 1    
   229  115  236 1    
   230  116  237 1    
   231  116  238 1    
   232  116  239 1    
   233  117  118 2    
   234  117  119 am   BACKBONE|DICT|INTERRES
   235  119  120 1    
   236  119  240 1    
   237  120  121 1    
   238  120  124 1    
   239  120  241 1    
   240  121  122 am   BACKBONE|DICT|INTERRES
   241  121  123 2    
   242  122  242 1    
   243  122  243 1    
   244  124  125 1    
   245  124  244 1    
   246  124  245 1    
   247  125  126 1    
   248  126  246 1    
   249  126  247 1    
@<TRIPOS>SUBSTRUCTURE
     1 UNK         1 GROUP             0       ****    0 ROOT    
