@<TRIPOS>MOLECULE
3R540
247   249    1
SMALL
USER_CHARGES


@<TRIPOS>ATOM
      1 CA         -4.6043  -16.7491  -46.6833 C.3       0 UNK        -0.1800 
      2 C          -3.8944  -15.6694  -47.4881 C.2       0 UNK         0.5000 
      3 O          -4.5088  -14.6646  -47.8449 O.2       0 UNK        -0.5000 
      4 N          -2.5986  -15.8710  -47.7682 N.am      1 UNK        -0.5000 
      5 CA         -1.7430  -14.9232  -48.5011 C.3       1 UNK         0.1400 
      6 C6         -0.4682  -15.6201  -49.0511 C.3       23 UNK        -0.0398 
      7 S7          0.0394  -14.9475  -50.6684 S.3       23 UNK        -0.2404 
      8 C8          1.5284  -15.9369  -51.0332 C.3       23 UNK        -0.0205 
      9 C9          1.2541  -17.4344  -51.1182 C.ar      23 UNK        -0.0193 
     10 C10         0.2421  -17.9292  -51.9467 C.ar      23 UNK        -0.1150 
     11 C11        -0.0129  -19.3008  -52.0179 C.ar      23 UNK        -0.0193 
     12 C12         0.7564  -20.1832  -51.2533 C.ar      23 UNK        -0.1150 
     13 C13         1.7812  -19.7066  -50.4293 C.ar      23 UNK        -0.0193 
     14 C14         2.0278  -18.3302  -50.3739 C.ar      23 UNK        -0.1150 
     15 C15         2.6166  -20.6916  -49.6132 C.3       23 UNK        -0.0205 
     16 S16         2.8818  -20.1974  -47.8731 S.3       23 UNK        -0.2404 
     17 C17         1.1735  -19.9840  -47.2796 C.3       23 UNK        -0.0398 
     18 CA          0.5831  -21.2680  -46.6524 C.3       11 UNK         0.1400 
     19 N           1.2362  -21.6239  -45.3956 N.am      11 UNK        -0.5000 
     20 C           1.2620  -22.8449  -44.8495 C.2       10 UNK         0.5000 
     21 O           0.7585  -23.8368  -45.3787 O.2       10 UNK        -0.5000 
     22 CA          1.9435  -22.9617  -43.4681 C.3       10 UNK         0.1400 
     23 CB          2.5370  -24.3606  -43.2025 C.3       10 UNK        -0.1800 
     24 N           2.9326  -21.9052  -43.2219 N.am      10 UNK        -0.5000 
     25 C           4.0870  -21.6896  -43.8732 C.2       9 UNK         0.5000 
     26 O           4.5297  -22.4324  -44.7496 O.2       9 UNK        -0.5000 
     27 CA          4.8734  -20.4117  -43.5103 C.3       9 UNK         0.1400 
     28 CB          4.7956  -19.3979  -44.6623 C.3       9 UNK        -0.1800 
     29 N           4.4076  -19.7627  -42.2823 N.am      9 UNK        -0.5000 
     30 C           4.6339  -20.2212  -41.0435 C.2       8 UNK         0.5000 
     31 O           5.3212  -21.2125  -40.7960 O.2       8 UNK        -0.5000 
     32 CA          3.9444  -19.4675  -39.8913 C.3       8 UNK         0.1400 
     33 CB          4.7978  -18.2718  -39.4423 C.3       8 UNK        -0.1800 
     34 N           2.5970  -19.0039  -40.2333 N.am      8 UNK        -0.5000 
     35 C           1.5554  -19.8013  -40.5136 C.2       7 UNK         0.5000 
     36 O           1.6121  -21.0305  -40.5023 O.2       7 UNK        -0.5000 
     37 CA          0.2473  -19.1105  -40.9396 C.3       7 UNK         0.1400 
     38 CB         -0.5024  -18.5346  -39.7298 C.3       7 UNK        -0.1800 
     39 N           0.4890  -18.0560  -41.9231 N.am      7 UNK        -0.5000 
     40 C           0.9078  -18.2826  -43.1754 C.2       6 UNK         0.5000 
     41 O           1.0353  -19.4062  -43.6612 O.2       6 UNK        -0.5000 
     42 CA          1.2507  -17.0571  -44.0333 C.3       6 UNK         0.1400 
     43 CB          0.0299  -16.6148  -44.8497 C.3       6 UNK        -0.1800 
     44 N           1.7566  -15.9433  -43.2295 N.am      6 UNK        -0.5000 
     45 C           2.9860  -15.9170  -42.6938 C.2       5 UNK         0.5000 
     46 O           3.8103  -16.8202  -42.8350 O.2       5 UNK        -0.5000 
     47 CA          3.3355  -14.7011  -41.8161 C.3       5 UNK         0.1400 
     48 CB          3.7068  -13.4907  -42.6860 C.3       5 UNK        -0.1800 
     49 N           2.2554  -14.3299  -40.9007 N.am      5 UNK        -0.5000 
     50 C           1.7955  -15.1109  -39.9131 C.2       4 UNK         0.5000 
     51 O           2.2488  -16.2254  -39.6589 O.2       4 UNK        -0.5000 
     52 CA          0.6037  -14.5812  -39.0940 C.3       4 UNK         0.1400 
     53 CB          1.1018  -13.8136  -37.8607 C.3       4 UNK        -0.1800 
     54 N          -0.3229  -13.7315  -39.8478 N.am      4 UNK        -0.5000 
     55 C          -0.9883  -14.0885  -40.9558 C.2       3 UNK         0.5000 
     56 O          -0.8259  -15.1740  -41.5185 O.2       3 UNK        -0.5000 
     57 CA         -1.9833  -13.0615  -41.5410 C.3       3 UNK         0.1400 
     58 CB         -2.1603  -11.7920  -40.6825 C.3       3 UNK        -0.1800 
     59 N          -1.5615  -12.6629  -42.8824 N.am      3 UNK        -0.5000 
     60 C          -1.8555  -13.3321  -44.0022 C.2       2 UNK         0.5000 
     61 O          -2.6110  -14.3087  -44.0390 O.2       2 UNK        -0.5000 
     62 CA         -1.1866  -12.8371  -45.2973 C.3       2 UNK         0.1400 
     63 CB          0.3377  -12.6505  -45.1382 C.3       2 UNK        -0.1800 
     64 N          -1.4643  -13.8259  -46.3283 N.am      2 UNK        -0.5000 
     65 C          -1.3780  -13.6804  -47.6534 C.2       1 UNK         0.5000 
     66 O          -1.0323  -12.6347  -48.2045 O.2       1 UNK        -0.5000 
     67 C          -0.9246  -21.0644  -46.4476 C.2       11 UNK         0.5000 
     68 O          -1.6950  -21.4102  -47.3413 O.2       11 UNK        -0.5000 
     69 N          -1.3147  -20.4794  -45.3031 N.am      12 UNK        -0.5000 
     70 CA         -2.6602  -19.9611  -45.0232 C.3       12 UNK         0.1400 
     71 CB         -2.7021  -19.3854  -43.6000 C.3       12 UNK        -0.1800 
     72 C          -3.8131  -20.9602  -45.2335 C.2       12 UNK         0.5000 
     73 O          -4.8846  -20.5589  -45.6864 O.2       12 UNK        -0.5000 
     74 N          -3.5591  -22.2416  -44.9385 N.am      13 UNK        -0.5000 
     75 CA         -4.5066  -23.3425  -45.1202 C.3       13 UNK         0.1400 
     76 CB         -3.9466  -24.5964  -44.4314 C.3       13 UNK        -0.1800 
     77 C          -4.8365  -23.6427  -46.5969 C.2       13 UNK         0.5000 
     78 O          -5.9306  -24.1326  -46.8787 O.2       13 UNK        -0.5000 
     79 N          -3.8954  -23.3502  -47.5038 N.am      14 UNK        -0.5000 
     80 CA         -4.0409  -23.5383  -48.9454 C.3       14 UNK         0.1400 
     81 CB         -2.7382  -24.1233  -49.5140 C.3       14 UNK        -0.1800 
     82 C          -4.3770  -22.2109  -49.6379 C.2       14 UNK         0.5000 
     83 O          -5.2958  -22.1651  -50.4558 O.2       14 UNK        -0.5000 
     84 N          -3.6400  -21.1480  -49.2880 N.am      15 UNK        -0.5000 
     85 CA         -3.6920  -19.8195  -49.9021 C.3       15 UNK         0.1400 
     86 CB         -2.5205  -18.9818  -49.3735 C.3       15 UNK        -0.1800 
     87 C          -5.0245  -19.0710  -49.7179 C.2       15 UNK         0.5000 
     88 O          -5.2879  -18.1288  -50.4640 O.2       15 UNK        -0.5000 
     89 N          -5.8530  -19.5116  -48.7604 N.am      16 UNK        -0.5000 
     90 CA         -7.2346  -19.0585  -48.5881 C.3       16 UNK         0.1400 
     91 CB         -7.7991  -19.6468  -47.2869 C.3       16 UNK        -0.1800 
     92 C          -8.1399  -19.4154  -49.7867 C.2       16 UNK         0.5000 
     93 O          -9.0836  -18.6757  -50.0681 O.2       16 UNK        -0.5000 
     94 N          -7.8238  -20.5197  -50.4778 N.am      17 UNK        -0.5000 
     95 CA         -8.4413  -20.9201  -51.7411 C.3       17 UNK         0.1400 
     96 CB         -8.7550  -22.4243  -51.7001 C.3       17 UNK        -0.1800 
     97 C          -7.5089  -20.5941  -52.9197 C.2       17 UNK         0.5000 
     98 O          -7.9666  -20.0439  -53.9223 O.2       17 UNK        -0.5000 
     99 N          -6.2206  -20.9393  -52.7700 N.am      18 UNK        -0.5000 
    100 CA        -5.0946  -20.7997  -53.7001 C.3       18 UNK         0.1400 
    101 CB        -4.8092  -19.3235  -54.0333 C.3       18 UNK        -0.1800 
    102 C         -5.2223  -21.6502  -54.9768 C.2       18 UNK         0.5000 
    103 O         -4.3116  -22.4204  -55.2820 O.2       18 UNK        -0.5000 
    104 N         -6.3316  -21.4789  -55.7107 N.am      19 UNK        -0.5000 
    105 CA        -6.7258  -22.1783  -56.9436 C.3       19 UNK         0.1400 
    106 CB        -7.0727  -23.6462  -56.6206 C.3       19 UNK        -0.1800 
    107 C         -5.7063  -22.0661  -58.1019 C.2       19 UNK         0.5000 
    108 O         -5.7276  -22.8911  -59.0163 O.2       19 UNK        -0.5000 
    109 N         -4.8105  -21.0698  -58.0177 N.am      20 UNK        -0.5000 
    110 CA        -3.6184  -20.8471  -58.8457 C.3       20 UNK         0.1400 
    111 CB        -4.0079  -20.5495  -60.3083 C.3       20 UNK        -0.1800 
    112 C         -2.5530  -21.9647  -58.7397 C.2       20 UNK         0.5000 
    113 O         -1.6007  -21.9642  -59.5218 O.2       20 UNK        -0.5000 
    114 N         -2.6931  -22.8800  -57.7674 N.am      21 UNK        -0.5000 
    115 CA        -1.8112  -24.0337  -57.5663 C.3       21 UNK         0.1400 
    116 CB        -2.4706  -25.0059  -56.5765 C.3       21 UNK        -0.1800 
    117 C         -0.4044  -23.6368  -57.0847 C.2       21 UNK         0.5000 
    118 O          0.5654  -24.3325  -57.3883 O.2       21 UNK        -0.5000 
    119 N         -0.3236  -22.5099  -56.3698 N.am      22 UNK        -0.5000 
    120 CA         0.9199  -21.8459  -55.9582 C.3       22 UNK         0.1400 
    121 C          1.5918  -20.9820  -57.0696 C.2       22 UNK         0.5000 
    122 N          1.0320  -20.8676  -58.2696 N.am      22 UNK        -0.7600 
    123 O          2.6594  -20.4178  -56.8464 O.2       22 UNK        -0.5000 
    124 C124        0.7280  -21.0672  -54.6311 C.3       23 UNK        -0.0398 
    125 S125       -0.6378  -19.8509  -54.6654 S.3       23 UNK        -0.2404 
    126 C126       -1.1282  -19.8231  -52.9122 C.3       23 UNK        -0.0205 
    127 H127       -4.4246  -16.6050  -45.6177 H         1 UNK         0.0600 
    128 H128       -5.6798  -16.7103  -46.8561 H         1 UNK         0.0600 
    129 H129       -4.2608  -17.7435  -46.9623 H         1 UNK         0.0600 
    130 H130       -2.1465  -16.7106  -47.4402 H         1 UNK         0.3000 
    131 H131       -2.3336  -14.5652  -49.3476 H         1 UNK         0.0600 
    132 H132        0.3668  -15.5633  -48.3497 H         1 UNK         0.0800 
    133 H133       -0.6522  -16.6839  -49.1990 H         1 UNK         0.0800 
    134 H134        2.2832  -15.7229  -50.2749 H         1 UNK         0.0800 
    135 H135        1.9456  -15.6050  -51.9846 H         1 UNK         0.0800 
    136 H136       -0.3524  -17.2446  -52.5354 H         1 UNK         0.1150 
    137 H137        0.5579  -21.2445  -51.3034 H         1 UNK         0.1150 
    138 H138        2.8211  -17.9565  -49.7419 H         1 UNK         0.1150 
    139 H139        2.1552  -21.6803  -49.6194 H         1 UNK         0.0800 
    140 H140        3.5882  -20.8040  -50.0954 H         1 UNK         0.0800 
    141 H141        0.5529  -19.6315  -48.1044 H         1 UNK         0.0800 
    142 H142        1.1771  -19.1716  -46.5515 H         1 UNK         0.0800 
    143 H143        0.7084  -22.0885  -47.3624 H         1 UNK         0.0600 
    144 H144        1.6036  -20.8539  -44.8468 H         1 UNK         0.3000 
    145 H145        1.1523  -22.8002  -42.7347 H         1 UNK         0.0600 
    146 H146        3.0143  -24.4062  -42.2236 H         1 UNK         0.0600 
    147 H147        1.7585  -25.1241  -43.2185 H         1 UNK         0.0600 
    148 H148        3.2785  -24.6376  -43.9521 H         1 UNK         0.0600 
    149 H149        2.6668  -21.2346  -42.5122 H         1 UNK         0.3000 
    150 H150        5.9189  -20.6969  -43.3764 H         1 UNK         0.0600 
    151 H151        5.1785  -19.8264  -45.5894 H         1 UNK         0.0600 
    152 H152        5.3883  -18.5085  -44.4481 H         1 UNK         0.0600 
    153 H153        3.7691  -19.0814  -44.8485 H         1 UNK         0.0600 
    154 H154        3.8937  -18.8959  -42.3947 H         1 UNK         0.3000 
    155 H155        3.8558  -20.1581  -39.0502 H         1 UNK         0.0600 
    156 H156        4.8856  -17.5226  -40.2302 H         1 UNK         0.0600 
    157 H157        5.8064  -18.5883  -39.1738 H         1 UNK         0.0600 
    158 H158        4.3656  -17.7865  -38.5671 H         1 UNK         0.0600 
    159 H159        2.4536  -17.9967  -40.2196 H         1 UNK         0.3000 
    160 H160       -0.3926  -19.8640  -41.4031 H         1 UNK         0.0600 
    161 H161       -1.4250  -18.0406  -40.0356 H         1 UNK         0.0600 
    162 H162        0.1018  -17.8101  -39.1853 H         1 UNK         0.0600 
    163 H163       -0.7720  -19.3257  -39.0291 H         1 UNK         0.0600 
    164 H164        0.3573  -17.0993  -41.6194 H         1 UNK         0.3000 
    165 H165        2.0293  -17.3573  -44.7375 H         1 UNK         0.0600 
    166 H166        0.2976  -15.8226  -45.5471 H         1 UNK         0.0600 
    167 H167       -0.3709  -17.4408  -45.4383 H         1 UNK         0.0600 
    168 H168       -0.7713  -16.2532  -44.2052 H         1 UNK         0.0600 
    169 H169        1.1027  -15.2097  -42.9962 H         1 UNK         0.3000 
    170 H170        4.2071  -14.9684  -41.2147 H         1 UNK         0.0600 
    171 H171        4.5162  -13.7384  -43.3741 H         1 UNK         0.0600 
    172 H172        2.8621  -13.1461  -43.2832 H         1 UNK         0.0600 
    173 H173        4.0472  -12.6556  -42.0737 H         1 UNK         0.0600 
    174 H174        1.8243  -13.4282  -41.0391 H         1 UNK         0.3000 
    175 H175        0.0378  -15.4474  -38.7470 H         1 UNK         0.0600 
    176 H176        0.2731  -13.5232  -37.2146 H         1 UNK         0.0600 
    177 H177        1.7765  -14.4288  -37.2635 H         1 UNK         0.0600 
    178 H178        1.6435  -12.9093  -38.1409 H         1 UNK         0.0600 
    179 H179       -0.5063  -12.8185  -39.4576 H         1 UNK         0.3000 
    180 H180       -2.9540  -13.5590  -41.5946 H         1 UNK         0.0600 
    181 H181       -1.2352  -11.2207  -40.5953 H         1 UNK         0.0600 
    182 H182       -2.5041  -12.0374  -39.6767 H         1 UNK         0.0600 
    183 H183       -2.9109  -11.1328  -41.1193 H         1 UNK         0.0600 
    184 H184       -0.9309  -11.8765  -42.9368 H         1 UNK         0.3000 
    185 H185       -1.6494  -11.8891  -45.5780 H         1 UNK         0.0600 
    186 H186        0.8211  -13.5642  -44.7930 H         1 UNK         0.0600 
    187 H187        0.8043  -12.3663  -46.0813 H         1 UNK         0.0600 
    188 H188        0.5718  -11.8622  -44.4226 H         1 UNK         0.0600 
    189 H189       -1.8612  -14.6801  -45.9566 H         1 UNK         0.3000 
    190 H190       -0.5968  -20.2512  -44.6247 H         1 UNK         0.3000 
    191 H191       -2.8276  -19.1383  -45.7189 H         1 UNK         0.0600 
    192 H192       -2.0216  -18.5419  -43.4930 H         1 UNK         0.0600 
    193 H193       -2.4333  -20.1351  -42.8552 H         1 UNK         0.0600 
    194 H194       -3.7000  -19.0202  -43.3532 H         1 UNK         0.0600 
    195 H195       -2.6423  -22.4806  -44.5907 H         1 UNK         0.3000 
    196 H196       -5.4406  -23.0681  -44.6252 H         1 UNK         0.0600 
    197 H197       -4.6376  -25.4354  -44.5244 H         1 UNK         0.0600 
    198 H198       -3.7881  -24.4247  -43.3666 H         1 UNK         0.0600 
    199 H199       -2.9955  -24.9041  -44.8681 H         1 UNK         0.0600 
    200 H200       -3.0461  -22.8914  -47.1935 H         1 UNK         0.3000 
    201 H201       -4.8471  -24.2429  -49.1605 H         1 UNK         0.0600 
    202 H202       -2.5200  -25.0952  -49.0713 H         1 UNK         0.0600 
    203 H203       -1.8829  -23.4726  -49.3263 H         1 UNK         0.0600 
    204 H204       -2.8122  -24.2666  -50.5928 H         1 UNK         0.0600 
    205 H205       -2.9145  -21.2770  -48.5843 H         1 UNK         0.3000 
    206 H206       -3.5533  -19.9538  -50.9759 H         1 UNK         0.0600 
    207 H207       -1.5661  -19.4638  -49.5815 H         1 UNK         0.0600 
    208 H208       -2.5009  -18.0013  -49.8502 H         1 UNK         0.0600 
    209 H209       -2.5874  -18.8337  -48.2965 H         1 UNK         0.0600 
    210 H210       -5.5407  -20.2598  -48.1566 H         1 UNK         0.3000 
    211 H211       -7.2244  -17.9705  -48.4964 H         1 UNK         0.0600 
    212 H212       -7.7749  -20.7374  -47.2941 H         1 UNK         0.0600 
    213 H213       -8.8347  -19.3402  -47.1344 H         1 UNK         0.0600 
    214 H214       -7.2301  -19.3045  -46.4224 H         1 UNK         0.0600 
    215 H215       -7.0123  -21.0531  -50.1884 H         1 UNK         0.3000 
    216 H216       -9.3801  -20.3847  -51.8975 H         1 UNK         0.0600 
    217 H217       -9.2026  -22.7555  -52.6380 H         1 UNK         0.0600 
    218 H218       -9.4619  -22.6548  -50.9030 H         1 UNK         0.0600 
    219 H219       -7.8586  -23.0231  -51.5336 H         1 UNK         0.0600 
    220 H220       -5.9728  -21.4282  -51.9113 H         1 UNK         0.3000 
    221 H221       -4.2259  -21.1821  -53.1617 H         1 UNK         0.0600 
    222 H222       -5.6352  -18.8547  -54.5684 H         1 UNK         0.0600 
    223 H223       -4.6289  -18.7443  -53.1281 H         1 UNK         0.0600 
    224 H224       -3.9210  -19.2309  -54.6596 H         1 UNK         0.0600 
    225 H225       -7.0179  -20.8275  -55.3359 H         1 UNK         0.3000 
    226 H226       -7.6360  -21.6897  -57.2936 H         1 UNK         0.0600 
    227 H227       -7.8012  -23.7100  -55.8122 H         1 UNK         0.0600 
    228 H228       -6.1898  -24.2123  -56.3214 H         1 UNK         0.0600 
    229 H229       -7.5069  -24.1491  -57.4854 H         1 UNK         0.0600 
    230 H230       -4.8988  -20.4551  -57.2213 H         1 UNK         0.3000 
    231 H231       -3.1436  -19.9501  -58.4458 H         1 UNK         0.0600 
    232 H232       -4.7531  -19.7561  -60.3648 H         1 UNK         0.0600 
    233 H233       -4.4141  -21.4289  -60.8084 H         1 UNK         0.0600 
    234 H234       -3.1423  -20.2203  -60.8844 H         1 UNK         0.0600 
    235 H235       -3.4571  -22.7795  -57.1073 H         1 UNK         0.3000 
    236 H236       -1.7012  -24.5449  -58.5250 H         1 UNK         0.0600 
    237 H237       -1.8657  -25.9047  -56.4508 H         1 UNK         0.0600 
    238 H238       -2.5957  -24.5541  -55.5917 H         1 UNK         0.0600 
    239 H239       -3.4535  -25.3207  -56.9277 H         1 UNK         0.0600 
    240 H240       -1.1752  -22.0042  -56.1730 H         1 UNK         0.3000 
    241 H241        1.6494  -22.6298  -55.7462 H         1 UNK         0.0600 
    242 H242        1.4914  -20.3103  -58.9725 H         1 UNK         0.3800 
    243 H243        0.1692  -21.3432  -58.5001 H         1 UNK         0.3800 
    244 H244        0.5280  -21.7865  -53.8362 H         1 UNK         0.0800 
    245 H245        1.6470  -20.5565  -54.3377 H         1 UNK         0.0800 
    246 H246       -1.4407  -20.8216  -52.6023 H         1 UNK         0.0800 
    247 H247       -2.0035  -19.1817  -52.8038 H         1 UNK         0.0800 
@<TRIPOS>BOND
     1    1    2 1    
     2    1  127 1    
     3    1  128 1    
     4    1  129 1    
     5    2    3 2    
     6    2    4 am   BACKBONE|DICT|INTERRES
     7    4    5 1    
     8    4  130 1    
     9    5    6 1    
    10    5   65 1    
    11    5  131 1    
    12    6    7 1    
    13    6  132 1    
    14    6  133 1    
    15    7    8 1    
    16    8    9 1    
    17    8  134 1    
    18    8  135 1    
    19    9   10 ar   
    20    9   14 ar   
    21   10   11 ar   
    22   10  136 1    
    23   11   12 ar   
    24   11  126 1    
    25   12   13 ar   
    26   12  137 1    
    27   13   14 ar   
    28   13   15 1    
    29   14  138 1    
    30   15   16 1    
    31   15  139 1    
    32   15  140 1    
    33   16   17 1    
    34   17   18 1    
    35   17  141 1    
    36   17  142 1    
    37   18   19 1    
    38   18   67 1    
    39   18  143 1    
    40   19   20 am   BACKBONE|DICT|INTERRES
    41   19  144 1    
    42   20   21 2    
    43   20   22 1    
    44   22   23 1    
    45   22   24 1    
    46   22  145 1    
    47   23  146 1    
    48   23  147 1    
    49   23  148 1    
    50   24   25 am   BACKBONE|DICT|INTERRES
    51   24  149 1    
    52   25   26 2    
    53   25   27 1    
    54   27   28 1    
    55   27   29 1    
    56   27  150 1    
    57   28  151 1    
    58   28  152 1    
    59   28  153 1    
    60   29   30 am   BACKBONE|DICT|INTERRES
    61   29  154 1    
    62   30   31 2    
    63   30   32 1    
    64   32   33 1    
    65   32   34 1    
    66   32  155 1    
    67   33  156 1    
    68   33  157 1    
    69   33  158 1    
    70   34   35 am   BACKBONE|DICT|INTERRES
    71   34  159 1    
    72   35   36 2    
    73   35   37 1    
    74   37   38 1    
    75   37   39 1    
    76   37  160 1    
    77   38  161 1    
    78   38  162 1    
    79   38  163 1    
    80   39   40 am   BACKBONE|DICT|INTERRES
    81   39  164 1    
    82   40   41 2    
    83   40   42 1    
    84   42   43 1    
    85   42   44 1    
    86   42  165 1    
    87   43  166 1    
    88   43  167 1    
    89   43  168 1    
    90   44   45 am   BACKBONE|DICT|INTERRES
    91   44  169 1    
    92   45   46 2    
    93   45   47 1    
    94   47   48 1    
    95   47   49 1    
    96   47  170 1    
    97   48  171 1    
    98   48  172 1    
    99   48  173 1    
   100   49   50 am   BACKBONE|DICT|INTERRES
   101   49  174 1    
   102   50   51 2    
   103   50   52 1    
   104   52   53 1    
   105   52   54 1    
   106   52  175 1    
   107   53  176 1    
   108   53  177 1    
   109   53  178 1    
   110   54   55 am   BACKBONE|DICT|INTERRES
   111   54  179 1    
   112   55   56 2    
   113   55   57 1    
   114   57   58 1    
   115   57   59 1    
   116   57  180 1    
   117   58  181 1    
   118   58  182 1    
   119   58  183 1    
   120   59   60 am   BACKBONE|DICT|INTERRES
   121   59  184 1    
   122   60   61 2    
   123   60   62 1    
   124   62   63 1    
   125   62   64 1    
   126   62  185 1    
   127   63  186 1    
   128   63  187 1    
   129   63  188 1    
   130   64   65 am   BACKBONE|DICT|INTERRES
   131   64  189 1    
   132   65   66 2    
   133   67   68 2    
   134   67   69 am   BACKBONE|DICT|INTERRES
   135   69   70 1    
   136   69  190 1    
   137   70   71 1    
   138   70   72 1    
   139   70  191 1    
   140   71  192 1    
   141   71  193 1    
   142   71  194 1    
   143   72   73 2    
   144   72   74 am   BACKBONE|DICT|INTERRES
   145   74   75 1    
   146   74  195 1    
   147   75   76 1    
   148   75   77 1    
   149   75  196 1    
   150   76  197 1    
   151   76  198 1    
   152   76  199 1    
   153   77   78 2    
   154   77   79 am   BACKBONE|DICT|INTERRES
   155   79   80 1    
   156   79  200 1    
   157   80   81 1    
   158   80   82 1    
   159   80  201 1    
   160   81  202 1    
   161   81  203 1    
   162   81  204 1    
   163   82   83 2    
   164   82   84 am   BACKBONE|DICT|INTERRES
   165   84   85 1    
   166   84  205 1    
   167   85   86 1    
   168   85   87 1    
   169   85  206 1    
   170   86  207 1    
   171   86  208 1    
   172   86  209 1    
   173   87   88 2    
   174   87   89 am   BACKBONE|DICT|INTERRES
   175   89   90 1    
   176   89  210 1    
   177   90   91 1    
   178   90   92 1    
   179   90  211 1    
   180   91  212 1    
   181   91  213 1    
   182   91  214 1    
   183   92   93 2    
   184   92   94 am   BACKBONE|DICT|INTERRES
   185   94   95 1    
   186   94  215 1    
   187   95   96 1    
   188   95   97 1    
   189   95  216 1    
   190   96  217 1    
   191   96  218 1    
   192   96  219 1    
   193   97   98 2    
   194   97   99 am   BACKBONE|DICT|INTERRES
   195   99  100 1    
   196   99  220 1    
   197  100  101 1    
   198  100  102 1    
   199  100  221 1    
   200  101  222 1    
   201  101  223 1    
   202  101  224 1    
   203  102  103 2    
   204  102  104 am   BACKBONE|DICT|INTERRES
   205  104  105 1    
   206  104  225 1    
   207  105  106 1    
   208  105  107 1    
   209  105  226 1    
   210  106  227 1    
   211  106  228 1    
   212  106  229 1    
   213  107  108 2    
   214  107  109 am   BACKBONE|DICT|INTERRES
   215  109  110 1    
   216  109  230 1    
   217  110  111 1    
   218  110  112 1    
   219  110  231 1    
   220  111  232 1    
   221  111  233 1    
   222  111  234 1    
   223  112  113 2    
   224  112  114 am   BACKBONE|DICT|INTERRES
   225  114  115 1    
   226  114  235 1    
   227  115  116 1    
   228  115  117 1    
   229  115  236 1    
   230  116  237 1    
   231  116  238 1    
   232  116  239 1    
   233  117  118 2    
   234  117  119 am   BACKBONE|DICT|INTERRES
   235  119  120 1    
   236  119  240 1    
   237  120  121 1    
   238  120  124 1    
   239  120  241 1    
   240  121  122 am   BACKBONE|DICT|INTERRES
   241  121  123 2    
   242  122  242 1    
   243  122  243 1    
   244  124  125 1    
   245  124  244 1    
   246  124  245 1    
   247  125  126 1    
   248  126  246 1    
   249  126  247 1    
@<TRIPOS>SUBSTRUCTURE
     1 UNK         1 GROUP             0       ****    0 ROOT    
