@<TRIPOS>MOLECULE
3R540
247   249    1
SMALL
USER_CHARGES


@<TRIPOS>ATOM
      1 CA          0.9518  -11.2818  -44.9281 C.3       0 UNK        -0.1800 
      2 C           2.1874  -11.3261  -45.8138 C.2       0 UNK         0.5000 
      3 O           3.2696  -10.9403  -45.3723 O.2       0 UNK        -0.5000 
      4 N           2.0421  -11.8144  -47.0549 N.am      1 UNK        -0.5000 
      5 CA          3.1092  -11.8792  -48.0683 C.3       1 UNK         0.1400 
      6 C6          2.5276  -12.0993  -49.4982 C.3       23 UNK        -0.0398 
      7 S7          2.5598  -13.7897  -50.1950 S.3       23 UNK        -0.2404 
      8 C8          1.1542  -14.5830  -49.3579 C.3       23 UNK        -0.0205 
      9 C9          1.0476  -16.0416  -49.7750 C.ar      23 UNK        -0.0193 
     10 C10         0.0201  -16.4723  -50.6198 C.ar      23 UNK        -0.1150 
     11 C11        -0.0567  -17.8112  -51.0282 C.ar      23 UNK        -0.0193 
     12 C12         0.9295  -18.7071  -50.6008 C.ar      23 UNK        -0.1150 
     13 C13         1.9654  -18.2880  -49.7594 C.ar      23 UNK        -0.0193 
     14 C14         2.0070  -16.9575  -49.3380 C.ar      23 UNK        -0.1150 
     15 C15         3.0719  -19.2470  -49.3346 C.3       23 UNK        -0.0205 
     16 S16         2.4593  -20.8030  -48.6147 S.3       23 UNK        -0.2404 
     17 C17         1.5078  -20.1985  -47.1807 C.3       23 UNK        -0.0398 
     18 CA          0.2544  -21.0579  -46.9024 C.3       11 UNK         0.1400 
     19 N          -0.2603  -20.8276  -45.5525 N.am      11 UNK        -0.5000 
     20 C          -1.1788  -21.5919  -44.9478 C.2       10 UNK         0.5000 
     21 O          -1.6857  -22.5881  -45.4621 O.2       10 UNK        -0.5000 
     22 CA         -1.6411  -21.1410  -43.5521 C.3       10 UNK         0.1400 
     23 CB         -0.5932  -21.4963  -42.4868 C.3       10 UNK        -0.1800 
     24 N          -1.9368  -19.7091  -43.4996 N.am      10 UNK        -0.5000 
     25 C          -2.9106  -19.1153  -44.2050 C.2       9 UNK         0.5000 
     26 O          -3.6858  -19.7213  -44.9458 O.2       9 UNK        -0.5000 
     27 CA         -3.0127  -17.5838  -44.0964 C.3       9 UNK         0.1400 
     28 CB         -3.7124  -17.1774  -42.7909 C.3       9 UNK        -0.1800 
     29 N          -1.7128  -16.9174  -44.1897 N.am      9 UNK        -0.5000 
     30 C          -0.9098  -16.9643  -45.2626 C.2       8 UNK         0.5000 
     31 O          -1.1849  -17.5639  -46.2982 O.2       8 UNK        -0.5000 
     32 CA          0.4586  -16.2762  -45.1453 C.3       8 UNK         0.1400 
     33 CB          0.3294  -14.7538  -45.2875 C.3       8 UNK        -0.1800 
     34 N           1.1361  -16.5995  -43.8926 N.am      8 UNK        -0.5000 
     35 C           1.5162  -17.8338  -43.5329 C.2       7 UNK         0.5000 
     36 O           1.3604  -18.8345  -44.2319 O.2       7 UNK        -0.5000 
     37 CA          2.1313  -17.9788  -42.1333 C.3       7 UNK         0.1400 
     38 CB          3.5984  -17.5244  -42.1348 C.3       7 UNK        -0.1800 
     39 N           1.3774  -17.2279  -41.1298 N.am      7 UNK        -0.5000 
     40 C           0.1241  -17.5196  -40.7515 C.2       6 UNK         0.5000 
     41 O          -0.5220  -18.4729  -41.1862 O.2       6 UNK        -0.5000 
     42 CA         -0.5310  -16.5523  -39.7508 C.3       6 UNK         0.1400 
     43 CB         -0.0819  -16.8656  -38.3158 C.3       6 UNK        -0.1800 
     44 N          -0.2406  -15.1513  -40.0587 N.am      6 UNK        -0.5000 
     45 C          -0.6745  -14.5148  -41.1555 C.2       5 UNK         0.5000 
     46 O          -1.3751  -15.0377  -42.0207 O.2       5 UNK        -0.5000 
     47 CA         -0.2090  -13.0613  -41.3366 C.3       5 UNK         0.1400 
     48 CB         -1.1042  -12.0997  -40.5413 C.3       5 UNK        -0.1800 
     49 N           1.1910  -12.8544  -40.9570 N.am      5 UNK        -0.5000 
     50 C           2.2346  -13.4114  -41.5833 C.2       4 UNK         0.5000 
     51 O           2.1316  -14.2039  -42.5242 O.2       4 UNK        -0.5000 
     52 CA          3.6275  -13.0212  -41.0807 C.3       4 UNK         0.1400 
     53 CB          4.2132  -14.0982  -40.1522 C.3       4 UNK        -0.1800 
     54 N           4.4694  -12.8368  -42.2533 N.am      4 UNK        -0.5000 
     55 C           5.5747  -12.0885  -42.3240 C.2       3 UNK         0.5000 
     56 O           6.0868  -11.5422  -41.3454 O.2       3 UNK        -0.5000 
     57 CA          6.1787  -11.8627  -43.7257 C.3       3 UNK         0.1400 
     58 CB          7.7214  -11.9089  -43.7331 C.3       3 UNK        -0.1800 
     59 N           5.5857  -12.7107  -44.7688 N.am      3 UNK        -0.5000 
     60 C           5.8053  -14.0116  -45.0195 C.2       2 UNK         0.5000 
     61 O           6.6063  -14.7022  -44.3898 O.2       2 UNK        -0.5000 
     62 CA          4.9705  -14.6732  -46.1416 C.3       2 UNK         0.1400 
     63 CB          4.2054  -15.8909  -45.5978 C.3       2 UNK        -0.1800 
     64 N           4.0015  -13.7667  -46.7615 N.am      2 UNK        -0.5000 
     65 C           4.2729  -12.8285  -47.6807 C.2       1 UNK         0.5000 
     66 O           5.3871  -12.6645  -48.1785 O.2       1 UNK        -0.5000 
     67 C          -0.8405  -20.8875  -47.9793 C.2       11 UNK         0.5000 
     68 O          -0.9132  -21.7026  -48.8991 O.2       11 UNK        -0.5000 
     69 N          -1.7073  -19.8770  -47.8205 N.am      12 UNK        -0.5000 
     70 CA         -2.8615  -19.6359  -48.6842 C.3       12 UNK         0.1400 
     71 CB         -3.5109  -18.2884  -48.3382 C.3       12 UNK        -0.1800 
     72 C          -3.8971  -20.7692  -48.6311 C.2       12 UNK         0.5000 
     73 O          -4.4133  -21.1540  -49.6767 O.2       12 UNK        -0.5000 
     74 N          -4.1578  -21.3081  -47.4322 N.am      13 UNK        -0.5000 
     75 CA         -5.0322  -22.4638  -47.2267 C.3       13 UNK         0.1400 
     76 CB         -5.3397  -22.6103  -45.7292 C.3       13 UNK        -0.1800 
     77 C          -4.4392  -23.7690  -47.7927 C.2       13 UNK         0.5000 
     78 O          -5.1785  -24.5921  -48.3319 O.2       13 UNK        -0.5000 
     79 N          -3.1163  -23.9328  -47.6669 N.am      14 UNK        -0.5000 
     80 CA         -2.3716  -25.1011  -48.1366 C.3       14 UNK         0.1400 
     81 CB         -1.0172  -25.1502  -47.4129 C.3       14 UNK        -0.1800 
     82 C          -2.1604  -25.1458  -49.6625 C.2       14 UNK         0.5000 
     83 O          -1.7971  -26.2073  -50.1716 O.2       14 UNK        -0.5000 
     84 N          -2.3602  -24.0148  -50.3573 N.am      15 UNK        -0.5000 
     85 CA         -2.1115  -23.8099  -51.7877 C.3       15 UNK         0.1400 
     86 CB         -2.5710  -22.3991  -52.1858 C.3       15 UNK        -0.1800 
     87 C          -2.7772  -24.8798  -52.6731 C.2       15 UNK         0.5000 
     88 O          -4.0074  -24.9327  -52.7529 O.2       15 UNK        -0.5000 
     89 N          -1.9448  -25.7535  -53.2599 N.am      16 UNK        -0.5000 
     90 CA         -2.2980  -26.9186  -54.0858 C.3       16 UNK         0.1400 
     91 CB         -2.9120  -26.4511  -55.4213 C.3       16 UNK        -0.1800 
     92 C          -3.1969  -27.9599  -53.3768 C.2       16 UNK         0.5000 
     93 O          -3.8191  -28.7809  -54.0521 O.2       16 UNK        -0.5000 
     94 N          -3.2850  -27.8811  -52.0386 N.am      17 UNK        -0.5000 
     95 CA         -4.2399  -28.5655  -51.1583 C.3       17 UNK         0.1400 
     96 CB         -3.9682  -30.0837  -51.1304 C.3       17 UNK        -0.1800 
     97 C          -5.7202  -28.2292  -51.4654 C.2       17 UNK         0.5000 
     98 O          -6.6089  -28.9854  -51.0689 O.2       17 UNK        -0.5000 
     99 N          -5.9606  -27.1125  -52.1668 N.am      18 UNK        -0.5000 
    100 CA        -7.2698  -26.6879  -52.6640 C.3       18 UNK         0.1400 
    101 CB        -7.2430  -26.7397  -54.2007 C.3       18 UNK        -0.1800 
    102 C         -7.6489  -25.2737  -52.1960 C.2       18 UNK         0.5000 
    103 O         -8.8251  -24.9174  -52.2709 O.2       18 UNK        -0.5000 
    104 N         -6.6582  -24.4766  -51.7708 N.am      19 UNK        -0.5000 
    105 CA        -6.7110  -23.0744  -51.3369 C.3       19 UNK         0.1400 
    106 CB        -7.6934  -22.8642  -50.1694 C.3       19 UNK        -0.1800 
    107 C         -6.9793  -22.0738  -52.4781 C.2       19 UNK         0.5000 
    108 O         -6.3582  -21.0113  -52.5154 O.2       19 UNK        -0.5000 
    109 N         -7.8634  -22.4419  -53.4154 N.am      20 UNK        -0.5000 
    110 CA        -8.2711  -21.6662  -54.5906 C.3       20 UNK         0.1400 
    111 CB        -9.3306  -22.4637  -55.3653 C.3       20 UNK        -0.1800 
    112 C         -7.1111  -21.2669  -55.5238 C.2       20 UNK         0.5000 
    113 O         -7.2022  -20.2400  -56.1976 O.2       20 UNK        -0.5000 
    114 N         -6.0217  -22.0486  -55.5083 N.am      21 UNK        -0.5000 
    115 CA        -4.7686  -21.7743  -56.2155 C.3       21 UNK         0.1400 
    116 CB        -3.8412  -22.9889  -56.0674 C.3       21 UNK        -0.1800 
    117 C         -4.0576  -20.4814  -55.7589 C.2       21 UNK         0.5000 
    118 O         -3.2673  -19.9313  -56.5267 O.2       21 UNK        -0.5000 
    119 N         -4.3641  -20.0039  -54.5442 N.am      22 UNK        -0.5000 
    120 CA        -3.9537  -18.6864  -54.0357 C.3       22 UNK         0.1400 
    121 C         -4.7892  -17.4980  -54.6100 C.2       22 UNK         0.5000 
    122 N         -5.8754  -17.7244  -55.3416 N.am      22 UNK        -0.7600 
    123 O         -4.4360  -16.3393  -54.4125 O.2       22 UNK        -0.5000 
    124 C124       -3.9164  -18.6917  -52.4841 C.3       23 UNK        -0.0398 
    125 S125       -2.7651  -17.4736  -51.7597 S.3       23 UNK        -0.2404 
    126 C126       -1.1565  -18.3149  -51.9637 C.3       23 UNK        -0.0205 
    127 H127        0.0743  -11.6884  -45.4310 H         1 UNK         0.0600 
    128 H128        1.1271  -11.8614  -44.0233 H         1 UNK         0.0600 
    129 H129        0.7343  -10.2539  -44.6385 H         1 UNK         0.0600 
    130 H130        1.1259  -12.1073  -47.3620 H         1 UNK         0.3000 
    131 H131        3.5528  -10.8807  -48.0752 H         1 UNK         0.0600 
    132 H132        1.5137  -11.7036  -49.5741 H         1 UNK         0.0800 
    133 H133        3.1097  -11.4916  -50.1927 H         1 UNK         0.0800 
    134 H134        1.2913  -14.5267  -48.2779 H         1 UNK         0.0800 
    135 H135        0.2352  -14.0431  -49.5910 H         1 UNK         0.0800 
    136 H136       -0.7126  -15.7582  -50.9667 H         1 UNK         0.1150 
    137 H137        0.8970  -19.7369  -50.9285 H         1 UNK         0.1150 
    138 H138        2.8102  -16.6183  -48.6991 H         1 UNK         0.1150 
    139 H139        3.6815  -19.4822  -50.2078 H         1 UNK         0.0800 
    140 H140        3.7397  -18.7733  -48.6132 H         1 UNK         0.0800 
    141 H141        1.2344  -19.1489  -47.2988 H         1 UNK         0.0800 
    142 H142        2.1818  -20.2372  -46.3242 H         1 UNK         0.0800 
    143 H143        0.5652  -22.1045  -46.9317 H         1 UNK         0.0600 
    144 H144        0.1289  -20.0330  -45.0510 H         1 UNK         0.3000 
    145 H145       -2.5605  -21.6811  -43.3168 H         1 UNK         0.0600 
    146 H146       -0.9572  -21.2656  -41.4856 H         1 UNK         0.0600 
    147 H147       -0.3571  -22.5609  -42.5099 H         1 UNK         0.0600 
    148 H148        0.3377  -20.9486  -42.6375 H         1 UNK         0.0600 
    149 H149       -1.3586  -19.1469  -42.8825 H         1 UNK         0.3000 
    150 H150       -3.6240  -17.2339  -44.9306 H         1 UNK         0.0600 
    151 H151       -4.6847  -17.6630  -42.6997 H         1 UNK         0.0600 
    152 H152       -3.8820  -16.1012  -42.7545 H         1 UNK         0.0600 
    153 H153       -3.1227  -17.4522  -41.9156 H         1 UNK         0.0600 
    154 H154       -1.4267  -16.3688  -43.3829 H         1 UNK         0.3000 
    155 H155        1.0822  -16.6406  -45.9645 H         1 UNK         0.0600 
    156 H156       -0.2584  -14.3219  -44.4774 H         1 UNK         0.0600 
    157 H157       -0.1585  -14.4875  -46.2256 H         1 UNK         0.0600 
    158 H158        1.3088  -14.2781  -45.2772 H         1 UNK         0.0600 
    159 H159        1.3309  -15.8230  -43.2675 H         1 UNK         0.3000 
    160 H160        2.1009  -19.0356  -41.8597 H         1 UNK         0.0600 
    161 H161        4.0518  -17.6455  -41.1510 H         1 UNK         0.0600 
    162 H162        3.6987  -16.4791  -42.4270 H         1 UNK         0.0600 
    163 H163        4.1862  -18.1150  -42.8386 H         1 UNK         0.0600 
    164 H164        1.8169  -16.4028  -40.7518 H         1 UNK         0.3000 
    165 H165       -1.6122  -16.6954  -39.8091 H         1 UNK         0.0600 
    166 H166       -0.6022  -16.2358  -37.5939 H         1 UNK         0.0600 
    167 H167       -0.2999  -17.9027  -38.0571 H         1 UNK         0.0600 
    168 H168        0.9900  -16.7125  -38.1841 H         1 UNK         0.0600 
    169 H169        0.3347  -14.6455  -39.4017 H         1 UNK         0.3000 
    170 H170       -0.3116  -12.8174  -42.3954 H         1 UNK         0.0600 
    171 H171       -2.1524  -12.2249  -40.8165 H         1 UNK         0.0600 
    172 H172       -1.0244  -12.2678  -39.4667 H         1 UNK         0.0600 
    173 H173       -0.8401  -11.0608  -40.7397 H         1 UNK         0.0600 
    174 H174        1.3593  -12.2162  -40.1925 H         1 UNK         0.3000 
    175 H175        3.5552  -12.0755  -40.5393 H         1 UNK         0.0600 
    176 H176        5.1785  -13.7890  -39.7512 H         1 UNK         0.0600 
    177 H177        3.5547  -14.2854  -39.3032 H         1 UNK         0.0600 
    178 H178        4.3597  -15.0438  -40.6727 H         1 UNK         0.0600 
    179 H179        4.0939  -13.2394  -43.1016 H         1 UNK         0.3000 
    180 H180        5.8936  -10.8456  -43.9979 H         1 UNK         0.0600 
    181 H181        8.1042  -12.8539  -43.3479 H         1 UNK         0.0600 
    182 H182        8.1358  -11.1169  -43.1083 H         1 UNK         0.0600 
    183 H183        8.1171  -11.7674  -44.7388 H         1 UNK         0.0600 
    184 H184        4.8693  -12.2433  -45.3139 H         1 UNK         0.3000 
    185 H185        5.6674  -15.0188  -46.9077 H         1 UNK         0.0600 
    186 H186        3.6138  -16.3728  -46.3759 H         1 UNK         0.0600 
    187 H187        4.8887  -16.6427  -45.2011 H         1 UNK         0.0600 
    188 H188        3.5331  -15.6029  -44.7902 H         1 UNK         0.0600 
    189 H189        3.0608  -13.8058  -46.4014 H         1 UNK         0.3000 
    190 H190       -1.5542  -19.1989  -47.0774 H         1 UNK         0.3000 
    191 H191       -2.4931  -19.5837  -49.7084 H         1 UNK         0.0600 
    192 H192       -3.8471  -18.2556  -47.3019 H         1 UNK         0.0600 
    193 H193       -4.3771  -18.0983  -48.9732 H         1 UNK         0.0600 
    194 H194       -2.8116  -17.4664  -48.4925 H         1 UNK         0.0600 
    195 H195       -3.7329  -20.8996  -46.6055 H         1 UNK         0.3000 
    196 H196       -5.9725  -22.2727  -47.7469 H         1 UNK         0.0600 
    197 H197       -4.4334  -22.7766  -45.1459 H         1 UNK         0.0600 
    198 H198       -6.0079  -23.4531  -45.5478 H         1 UNK         0.0600 
    199 H199       -5.8278  -21.7172  -45.3386 H         1 UNK         0.0600 
    200 H200       -2.5867  -23.2366  -47.1518 H         1 UNK         0.3000 
    201 H201       -2.9323  -25.9972  -47.8627 H         1 UNK         0.0600 
    202 H202       -0.4116  -24.2720  -47.6387 H         1 UNK         0.0600 
    203 H203       -0.4440  -26.0297  -47.7090 H         1 UNK         0.0600 
    204 H204       -1.1485  -25.1989  -46.3319 H         1 UNK         0.0600 
    205 H205       -2.6248  -23.1914  -49.8335 H         1 UNK         0.3000 
    206 H206       -1.0304  -23.8579  -51.9300 H         1 UNK         0.0600 
    207 H207       -2.1016  -21.6438  -51.5560 H         1 UNK         0.0600 
    208 H208       -2.3019  -22.1743  -53.2181 H         1 UNK         0.0600 
    209 H209       -3.6511  -22.2833  -52.0952 H         1 UNK         0.0600 
    210 H210       -0.9557  -25.6498  -53.0804 H         1 UNK         0.3000 
    211 H211       -1.3611  -27.4304  -54.3100 H         1 UNK         0.0600 
    212 H212       -3.8991  -26.0112  -55.2769 H         1 UNK         0.0600 
    213 H213       -3.0254  -27.2842  -56.1158 H         1 UNK         0.0600 
    214 H214       -2.2802  -25.7090  -55.9093 H         1 UNK         0.0600 
    215 H215       -2.7018  -27.1928  -51.5691 H         1 UNK         0.3000 
    216 H216       -4.0494  -28.1792  -50.1561 H         1 UNK         0.0600 
    217 H217       -2.9212  -30.2925  -50.9105 H         1 UNK         0.0600 
    218 H218       -4.5634  -30.5743  -50.3594 H         1 UNK         0.0600 
    219 H219       -4.2130  -30.5575  -52.0813 H         1 UNK         0.0600 
    220 H220       -5.1695  -26.5398  -52.4416 H         1 UNK         0.3000 
    221 H221       -8.0539  -27.3599  -52.3098 H         1 UNK         0.0600 
    222 H222       -6.4851  -26.0712  -54.6117 H         1 UNK         0.0600 
    223 H223       -7.0259  -27.7473  -54.5558 H         1 UNK         0.0600 
    224 H224       -8.2055  -26.4464  -54.6220 H         1 UNK         0.0600 
    225 H225       -5.7122  -24.8350  -51.8509 H         1 UNK         0.3000 
    226 H226       -5.7090  -22.8689  -50.9651 H         1 UNK         0.0600 
    227 H227       -7.5115  -23.5770  -49.3657 H         1 UNK         0.0600 
    228 H228       -7.5811  -21.8635  -49.7506 H         1 UNK         0.0600 
    229 H229       -8.7321  -22.9702  -50.4826 H         1 UNK         0.0600 
    230 H230       -8.3419  -23.3247  -53.2649 H         1 UNK         0.3000 
    231 H231       -8.7289  -20.7433  -54.2296 H         1 UNK         0.0600 
    232 H232      -10.2012  -22.6715  -54.7429 H         1 UNK         0.0600 
    233 H233       -8.9359  -23.4172  -55.7188 H         1 UNK         0.0600 
    234 H234       -9.6803  -21.9083  -56.2367 H         1 UNK         0.0600 
    235 H235       -6.0347  -22.8639  -54.9137 H         1 UNK         0.3000 
    236 H236       -5.0052  -21.6532  -57.2745 H         1 UNK         0.0600 
    237 H237       -3.6289  -23.2056  -55.0211 H         1 UNK         0.0600 
    238 H238       -4.2886  -23.8784  -56.5106 H         1 UNK         0.0600 
    239 H239       -2.8876  -22.8219  -56.5699 H         1 UNK         0.0600 
    240 H240       -5.0413  -20.5006  -53.9742 H         1 UNK         0.3000 
    241 H241       -2.9326  -18.5218  -54.3842 H         1 UNK         0.0600 
    242 H242       -6.3884  -16.9384  -55.7079 H         1 UNK         0.3800 
    243 H243       -6.1924  -18.6640  -55.5543 H         1 UNK         0.3800 
    244 H244       -4.9134  -18.5188  -52.0750 H         1 UNK         0.0800 
    245 H245       -3.6280  -19.6755  -52.1131 H         1 UNK         0.0800 
    246 H246       -1.2961  -19.3852  -51.8106 H         1 UNK         0.0800 
    247 H247       -0.8218  -18.1914  -52.9941 H         1 UNK         0.0800 
@<TRIPOS>BOND
     1    1    2 1    
     2    1  127 1    
     3    1  128 1    
     4    1  129 1    
     5    2    3 2    
     6    2    4 am   BACKBONE|DICT|INTERRES
     7    4    5 1    
     8    4  130 1    
     9    5    6 1    
    10    5   65 1    
    11    5  131 1    
    12    6    7 1    
    13    6  132 1    
    14    6  133 1    
    15    7    8 1    
    16    8    9 1    
    17    8  134 1    
    18    8  135 1    
    19    9   10 ar   
    20    9   14 ar   
    21   10   11 ar   
    22   10  136 1    
    23   11   12 ar   
    24   11  126 1    
    25   12   13 ar   
    26   12  137 1    
    27   13   14 ar   
    28   13   15 1    
    29   14  138 1    
    30   15   16 1    
    31   15  139 1    
    32   15  140 1    
    33   16   17 1    
    34   17   18 1    
    35   17  141 1    
    36   17  142 1    
    37   18   19 1    
    38   18   67 1    
    39   18  143 1    
    40   19   20 am   BACKBONE|DICT|INTERRES
    41   19  144 1    
    42   20   21 2    
    43   20   22 1    
    44   22   23 1    
    45   22   24 1    
    46   22  145 1    
    47   23  146 1    
    48   23  147 1    
    49   23  148 1    
    50   24   25 am   BACKBONE|DICT|INTERRES
    51   24  149 1    
    52   25   26 2    
    53   25   27 1    
    54   27   28 1    
    55   27   29 1    
    56   27  150 1    
    57   28  151 1    
    58   28  152 1    
    59   28  153 1    
    60   29   30 am   BACKBONE|DICT|INTERRES
    61   29  154 1    
    62   30   31 2    
    63   30   32 1    
    64   32   33 1    
    65   32   34 1    
    66   32  155 1    
    67   33  156 1    
    68   33  157 1    
    69   33  158 1    
    70   34   35 am   BACKBONE|DICT|INTERRES
    71   34  159 1    
    72   35   36 2    
    73   35   37 1    
    74   37   38 1    
    75   37   39 1    
    76   37  160 1    
    77   38  161 1    
    78   38  162 1    
    79   38  163 1    
    80   39   40 am   BACKBONE|DICT|INTERRES
    81   39  164 1    
    82   40   41 2    
    83   40   42 1    
    84   42   43 1    
    85   42   44 1    
    86   42  165 1    
    87   43  166 1    
    88   43  167 1    
    89   43  168 1    
    90   44   45 am   BACKBONE|DICT|INTERRES
    91   44  169 1    
    92   45   46 2    
    93   45   47 1    
    94   47   48 1    
    95   47   49 1    
    96   47  170 1    
    97   48  171 1    
    98   48  172 1    
    99   48  173 1    
   100   49   50 am   BACKBONE|DICT|INTERRES
   101   49  174 1    
   102   50   51 2    
   103   50   52 1    
   104   52   53 1    
   105   52   54 1    
   106   52  175 1    
   107   53  176 1    
   108   53  177 1    
   109   53  178 1    
   110   54   55 am   BACKBONE|DICT|INTERRES
   111   54  179 1    
   112   55   56 2    
   113   55   57 1    
   114   57   58 1    
   115   57   59 1    
   116   57  180 1    
   117   58  181 1    
   118   58  182 1    
   119   58  183 1    
   120   59   60 am   BACKBONE|DICT|INTERRES
   121   59  184 1    
   122   60   61 2    
   123   60   62 1    
   124   62   63 1    
   125   62   64 1    
   126   62  185 1    
   127   63  186 1    
   128   63  187 1    
   129   63  188 1    
   130   64   65 am   BACKBONE|DICT|INTERRES
   131   64  189 1    
   132   65   66 2    
   133   67   68 2    
   134   67   69 am   BACKBONE|DICT|INTERRES
   135   69   70 1    
   136   69  190 1    
   137   70   71 1    
   138   70   72 1    
   139   70  191 1    
   140   71  192 1    
   141   71  193 1    
   142   71  194 1    
   143   72   73 2    
   144   72   74 am   BACKBONE|DICT|INTERRES
   145   74   75 1    
   146   74  195 1    
   147   75   76 1    
   148   75   77 1    
   149   75  196 1    
   150   76  197 1    
   151   76  198 1    
   152   76  199 1    
   153   77   78 2    
   154   77   79 am   BACKBONE|DICT|INTERRES
   155   79   80 1    
   156   79  200 1    
   157   80   81 1    
   158   80   82 1    
   159   80  201 1    
   160   81  202 1    
   161   81  203 1    
   162   81  204 1    
   163   82   83 2    
   164   82   84 am   BACKBONE|DICT|INTERRES
   165   84   85 1    
   166   84  205 1    
   167   85   86 1    
   168   85   87 1    
   169   85  206 1    
   170   86  207 1    
   171   86  208 1    
   172   86  209 1    
   173   87   88 2    
   174   87   89 am   BACKBONE|DICT|INTERRES
   175   89   90 1    
   176   89  210 1    
   177   90   91 1    
   178   90   92 1    
   179   90  211 1    
   180   91  212 1    
   181   91  213 1    
   182   91  214 1    
   183   92   93 2    
   184   92   94 am   BACKBONE|DICT|INTERRES
   185   94   95 1    
   186   94  215 1    
   187   95   96 1    
   188   95   97 1    
   189   95  216 1    
   190   96  217 1    
   191   96  218 1    
   192   96  219 1    
   193   97   98 2    
   194   97   99 am   BACKBONE|DICT|INTERRES
   195   99  100 1    
   196   99  220 1    
   197  100  101 1    
   198  100  102 1    
   199  100  221 1    
   200  101  222 1    
   201  101  223 1    
   202  101  224 1    
   203  102  103 2    
   204  102  104 am   BACKBONE|DICT|INTERRES
   205  104  105 1    
   206  104  225 1    
   207  105  106 1    
   208  105  107 1    
   209  105  226 1    
   210  106  227 1    
   211  106  228 1    
   212  106  229 1    
   213  107  108 2    
   214  107  109 am   BACKBONE|DICT|INTERRES
   215  109  110 1    
   216  109  230 1    
   217  110  111 1    
   218  110  112 1    
   219  110  231 1    
   220  111  232 1    
   221  111  233 1    
   222  111  234 1    
   223  112  113 2    
   224  112  114 am   BACKBONE|DICT|INTERRES
   225  114  115 1    
   226  114  235 1    
   227  115  116 1    
   228  115  117 1    
   229  115  236 1    
   230  116  237 1    
   231  116  238 1    
   232  116  239 1    
   233  117  118 2    
   234  117  119 am   BACKBONE|DICT|INTERRES
   235  119  120 1    
   236  119  240 1    
   237  120  121 1    
   238  120  124 1    
   239  120  241 1    
   240  121  122 am   BACKBONE|DICT|INTERRES
   241  121  123 2    
   242  122  242 1    
   243  122  243 1    
   244  124  125 1    
   245  124  244 1    
   246  124  245 1    
   247  125  126 1    
   248  126  246 1    
   249  126  247 1    
@<TRIPOS>SUBSTRUCTURE
     1 UNK         1 GROUP             0       ****    0 ROOT    
