@<TRIPOS>MOLECULE
3R540
247   249    1
SMALL
USER_CHARGES


@<TRIPOS>ATOM
      1 CA         -0.8753  -11.2804  -53.1555 C.3       0 UNK        -0.1800 
      2 C           0.0192  -11.4006  -51.9301 C.2       0 UNK         0.5000 
      3 O           0.4869  -10.3892  -51.4060 O.2       0 UNK        -0.5000 
      4 N           0.2434  -12.6300  -51.4549 N.am      1 UNK        -0.5000 
      5 CA          1.0266  -12.9536  -50.2590 C.3       1 UNK         0.1400 
      6 C6          1.8057  -14.2778  -50.4694 C.3       23 UNK        -0.0398 
      7 S7          3.1468  -14.6146  -49.2622 S.3       23 UNK        -0.2404 
      8 C8          2.4739  -15.8524  -48.0908 C.3       23 UNK        -0.0205 
      9 C9          2.0539  -17.1609  -48.7473 C.ar      23 UNK        -0.0193 
     10 C10         0.7847  -17.2728  -49.3162 C.ar      23 UNK        -0.1150 
     11 C11         0.3845  -18.4379  -49.9696 C.ar      23 UNK        -0.0193 
     12 C12         1.2547  -19.5281  -49.9974 C.ar      23 UNK        -0.1150 
     13 C13         2.4988  -19.4655  -49.3613 C.ar      23 UNK        -0.0193 
     14 C14         2.9049  -18.2706  -48.7566 C.ar      23 UNK        -0.1150 
     15 C15         3.3891  -20.6992  -49.3217 C.3       23 UNK        -0.0205 
     16 S16         3.0713  -21.7206  -47.8434 S.3       23 UNK        -0.2404 
     17 C17         1.2904  -22.0783  -48.0288 C.3       23 UNK        -0.0398 
     18 CA          0.7768  -23.1724  -47.0706 C.3       11 UNK         0.1400 
     19 N           0.8304  -22.7660  -45.6654 N.am      11 UNK        -0.5000 
     20 C           0.6109  -23.5865  -44.6296 C.2       10 UNK         0.5000 
     21 O           0.3759  -24.7901  -44.7483 O.2       10 UNK        -0.5000 
     22 CA          0.6089  -22.9460  -43.2296 C.3       10 UNK         0.1400 
     23 CB          2.0405  -22.6778  -42.7415 C.3       10 UNK        -0.1800 
     24 N          -0.1710  -21.7081  -43.1787 N.am      10 UNK        -0.5000 
     25 C          -1.4953  -21.6427  -43.3790 C.2       9 UNK         0.5000 
     26 O          -2.2026  -22.6249  -43.6046 O.2       9 UNK        -0.5000 
     27 CA         -2.1359  -20.2429  -43.3582 C.3       9 UNK         0.1400 
     28 CB         -2.3429  -19.7605  -41.9148 C.3       9 UNK        -0.1800 
     29 N          -1.3643  -19.2477  -44.1023 N.am      9 UNK        -0.5000 
     30 C          -1.0996  -19.3155  -45.4151 C.2       8 UNK         0.5000 
     31 O          -1.4955  -20.2178  -46.1483 O.2       8 UNK        -0.5000 
     32 CA         -0.1861  -18.2273  -45.9982 C.3       8 UNK         0.1400 
     33 CB         -0.9589  -16.9126  -46.1787 C.3       8 UNK        -0.1800 
     34 N           1.0107  -18.0008  -45.1886 N.am      8 UNK        -0.5000 
     35 C           1.9066  -18.9473  -44.8704 C.2       7 UNK         0.5000 
     36 O           1.8336  -20.1178  -45.2379 O.2       7 UNK        -0.5000 
     37 CA          3.0368  -18.5331  -43.9176 C.3       7 UNK         0.1400 
     38 CB          4.1376  -17.7659  -44.6648 C.3       7 UNK        -0.1800 
     39 N           2.5251  -17.7308  -42.8076 N.am      7 UNK        -0.5000 
     40 C           1.7490  -18.2150  -41.8267 C.2       6 UNK         0.5000 
     41 O           1.4350  -19.4016  -41.7221 O.2       6 UNK        -0.5000 
     42 CA          1.1994  -17.1900  -40.8179 C.3       6 UNK         0.1400 
     43 CB          2.2439  -16.8760  -39.7364 C.3       6 UNK        -0.1800 
     44 N           0.7736  -15.9449  -41.4604 N.am      6 UNK        -0.5000 
     45 C          -0.2708  -15.8481  -42.2951 C.2       5 UNK         0.5000 
     46 O          -1.0034  -16.7940  -42.5820 O.2       5 UNK        -0.5000 
     47 CA         -0.5205  -14.4745  -42.9452 C.3       5 UNK         0.1400 
     48 CB         -1.4230  -13.6105  -42.0528 C.3       5 UNK        -0.1800 
     49 N           0.6994  -13.7281  -43.2603 N.am      5 UNK        -0.5000 
     50 C           1.6763  -14.1390  -44.0793 C.2       4 UNK         0.5000 
     51 O           1.7025  -15.2519  -44.6067 O.2       4 UNK        -0.5000 
     52 CA          2.7832  -13.1088  -44.3709 C.3       4 UNK         0.1400 
     53 CB          3.9265  -13.6760  -45.2286 C.3       4 UNK        -0.1800 
     54 N           2.2145  -11.9480  -45.0524 N.am      4 UNK        -0.5000 
     55 C           1.6653  -10.8897  -44.4441 C.2       3 UNK         0.5000 
     56 O           1.6131  -10.7564  -43.2207 O.2       3 UNK        -0.5000 
     57 CA          1.0347   -9.8265  -45.3595 C.3       3 UNK         0.1400 
     58 CB          2.1057   -8.8576  -45.8837 C.3       3 UNK        -0.1800 
     59 N           0.3117  -10.4094  -46.4927 N.am      3 UNK        -0.5000 
     60 C          -0.8401  -11.0905  -46.3915 C.2       2 UNK         0.5000 
     61 O          -1.3981  -11.3328  -45.3210 O.2       2 UNK        -0.5000 
     62 CA         -1.4907  -11.5646  -47.7026 C.3       2 UNK         0.1400 
     63 CB         -2.5291  -10.5392  -48.1832 C.3       2 UNK        -0.1800 
     64 N          -0.5095  -11.7729  -48.7684 N.am      2 UNK        -0.5000 
     65 C           0.0664  -12.9484  -49.0495 C.2       1 UNK         0.5000 
     66 O          -0.1889  -13.9850  -48.4399 O.2       1 UNK        -0.5000 
     67 C          -0.6416  -23.6140  -47.4806 C.2       11 UNK         0.5000 
     68 O          -0.7762  -24.6495  -48.1293 O.2       11 UNK        -0.5000 
     69 N          -1.6731  -22.8566  -47.0788 N.am      12 UNK        -0.5000 
     70 CA         -3.0801  -23.1643  -47.3413 C.3       12 UNK         0.1400 
     71 CB         -3.9729  -22.0031  -46.8812 C.3       12 UNK        -0.1800 
     72 C          -3.5359  -24.4829  -46.6984 C.2       12 UNK         0.5000 
     73 O          -4.2562  -25.2430  -47.3423 O.2       12 UNK        -0.5000 
     74 N          -3.0794  -24.7558  -45.4683 N.am      13 UNK        -0.5000 
     75 CA         -3.3263  -26.0140  -44.7625 C.3       13 UNK         0.1400 
     76 CB         -2.8375  -25.8940  -43.3113 C.3       13 UNK        -0.1800 
     77 C          -2.6813  -27.2289  -45.4574 C.2       13 UNK         0.5000 
     78 O          -3.2845  -28.3022  -45.4806 O.2       13 UNK        -0.5000 
     79 N          -1.4810  -27.0364  -46.0208 N.am      14 UNK        -0.5000 
     80 CA         -0.7493  -28.0560  -46.7701 C.3       14 UNK         0.1400 
     81 CB          0.7332  -27.6591  -46.8548 C.3       14 UNK        -0.1800 
     82 C          -1.3370  -28.2923  -48.1741 C.2       14 UNK         0.5000 
     83 O          -1.5338  -29.4436  -48.5651 O.2       14 UNK        -0.5000 
     84 N          -1.5920  -27.2031  -48.9110 N.am      15 UNK        -0.5000 
     85 CA         -2.0579  -27.2259  -50.2988 C.3       15 UNK         0.1400 
     86 CB         -1.7492  -25.8685  -50.9514 C.3       15 UNK        -0.1800 
     87 C          -3.5552  -27.5442  -50.4469 C.2       15 UNK         0.5000 
     88 O          -3.9653  -28.0039  -51.5133 O.2       15 UNK        -0.5000 
     89 N          -4.3495  -27.2435  -49.4100 N.am      16 UNK        -0.5000 
     90 CA         -5.8121  -27.3317  -49.3015 C.3       16 UNK         0.1400 
     91 CB         -6.3221  -28.7653  -49.5425 C.3       16 UNK        -0.1800 
     92 C          -6.5645  -26.3069  -50.1745 C.2       16 UNK         0.5000 
     93 O          -7.4858  -25.6538  -49.6837 O.2       16 UNK        -0.5000 
     94 N          -6.1594  -26.1725  -51.4431 N.am      17 UNK        -0.5000 
     95 CA         -6.7258  -25.2382  -52.4165 C.3       17 UNK         0.1400 
     96 CB         -6.3598  -25.7157  -53.8302 C.3       17 UNK        -0.1800 
     97 C          -6.2590  -23.7846  -52.2103 C.2       17 UNK         0.5000 
     98 O          -6.9667  -22.8653  -52.6230 O.2       17 UNK        -0.5000 
     99 N          -5.0699  -23.6050  -51.6132 N.am      18 UNK        -0.5000 
    100 CA        -4.3571  -22.3516  -51.3070 C.3       18 UNK         0.1400 
    101 CB        -5.1784  -21.4630  -50.3543 C.3       18 UNK        -0.1800 
    102 C         -3.8764  -21.5424  -52.5323 C.2       18 UNK         0.5000 
    103 O         -2.7727  -21.0005  -52.4885 O.2       18 UNK        -0.5000 
    104 N         -4.6907  -21.5015  -53.5952 N.am      19 UNK        -0.5000 
    105 CA        -4.5322  -20.7672  -54.8550 C.3       19 UNK         0.1400 
    106 CB        -3.1975  -21.1105  -55.5499 C.3       19 UNK        -0.1800 
    107 C         -4.7273  -19.2451  -54.6996 C.2       19 UNK         0.5000 
    108 O         -4.8020  -18.7200  -53.5857 O.2       19 UNK        -0.5000 
    109 N         -4.8172  -18.5528  -55.8435 N.am      20 UNK        -0.5000 
    110 CA        -5.1347  -17.1236  -55.9686 C.3       20 UNK         0.1400 
    111 CB        -5.2803  -16.7837  -57.4605 C.3       20 UNK        -0.1800 
    112 C         -4.1384  -16.1582  -55.2919 C.2       20 UNK         0.5000 
    113 O         -4.4700  -14.9877  -55.0999 O.2       20 UNK        -0.5000 
    114 N         -2.9484  -16.6574  -54.9336 N.am      21 UNK        -0.5000 
    115 CA        -1.9207  -15.9339  -54.1875 C.3       21 UNK         0.1400 
    116 CB        -0.6151  -16.7435  -54.2292 C.3       21 UNK        -0.1800 
    117 C         -2.3134  -15.6078  -52.7315 C.2       21 UNK         0.5000 
    118 O         -1.7273  -14.6854  -52.1612 O.2       21 UNK        -0.5000 
    119 N         -3.2670  -16.3545  -52.1525 N.am      22 UNK        -0.5000 
    120 CA        -3.7711  -16.1324  -50.7859 C.3       22 UNK         0.1400 
    121 C         -5.2103  -16.6514  -50.5070 C.2       22 UNK         0.5000 
    122 N         -5.8353  -17.4456  -51.3665 N.am      22 UNK        -0.7600 
    123 O         -5.7968  -16.2929  -49.4893 O.2       22 UNK        -0.5000 
    124 C124       -2.7600  -16.5486  -49.6824 C.3       23 UNK        -0.0398 
    125 S125       -2.3992  -18.3436  -49.5982 S.3       23 UNK        -0.2404 
    126 C126       -0.9527  -18.5081  -50.6939 C.3       23 UNK        -0.0205 
    127 H127       -0.3443  -10.7708  -53.9595 H         1 UNK         0.0600 
    128 H128       -1.1920  -12.2569  -53.5230 H         1 UNK         0.0600 
    129 H129       -1.7672  -10.7026  -52.9133 H         1 UNK         0.0600 
    130 H130       -0.2792  -13.4071  -51.8520 H         1 UNK         0.3000 
    131 H131        1.7660  -12.1683  -50.0877 H         1 UNK         0.0600 
    132 H132        2.3110  -14.2203  -51.4345 H         1 UNK         0.0800 
    133 H133        1.1234  -15.1114  -50.5850 H         1 UNK         0.0800 
    134 H134        1.6440  -15.4240  -47.5327 H         1 UNK         0.0800 
    135 H135        3.2405  -16.0608  -47.3444 H         1 UNK         0.0800 
    136 H136        0.1149  -16.4339  -49.2551 H         1 UNK         0.1150 
    137 H137        0.9539  -20.4379  -50.4971 H         1 UNK         0.1150 
    138 H138        3.8736  -18.2108  -48.2811 H         1 UNK         0.1150 
    139 H139        3.2392  -21.3028  -50.2181 H         1 UNK         0.0800 
    140 H140        4.4383  -20.4007  -49.3273 H         1 UNK         0.0800 
    141 H141        1.1207  -22.3744  -49.0657 H         1 UNK         0.0800 
    142 H142        0.7294  -21.1562  -47.8655 H         1 UNK         0.0800 
    143 H143        1.4249  -24.0445  -47.1816 H         1 UNK         0.0600 
    144 H144        1.0611  -21.7903  -45.4858 H         1 UNK         0.3000 
    145 H145        0.1467  -23.6577  -42.5423 H         1 UNK         0.0600 
    146 H146        2.0428  -22.2925  -41.7217 H         1 UNK         0.0600 
    147 H147        2.6319  -23.5941  -42.7456 H         1 UNK         0.0600 
    148 H148        2.5545  -21.9524  -43.3725 H         1 UNK         0.0600 
    149 H149        0.3407  -20.8533  -42.9940 H         1 UNK         0.3000 
    150 H150       -3.1158  -20.3215  -43.8330 H         1 UNK         0.0600 
    151 H151       -2.9182  -20.4858  -41.3381 H         1 UNK         0.0600 
    152 H152       -2.8899  -18.8179  -41.8901 H         1 UNK         0.0600 
    153 H153       -1.3931  -19.6085  -41.4009 H         1 UNK         0.0600 
    154 H154       -1.0300  -18.4454  -43.5755 H         1 UNK         0.3000 
    155 H155        0.1456  -18.5739  -46.9773 H         1 UNK         0.0600 
    156 H156       -1.3472  -16.5391  -45.2331 H         1 UNK         0.0600 
    157 H157       -1.8104  -17.0562  -46.8427 H         1 UNK         0.0600 
    158 H158       -0.3346  -16.1346  -46.6143 H         1 UNK         0.0600 
    159 H159        1.1709  -17.0507  -44.8643 H         1 UNK         0.3000 
    160 H160        3.4800  -19.4425  -43.5060 H         1 UNK         0.0600 
    161 H161        4.9585  -17.5019  -43.9982 H         1 UNK         0.0600 
    162 H162        3.7589  -16.8482  -45.1121 H         1 UNK         0.0600 
    163 H163        4.5529  -18.3727  -45.4706 H         1 UNK         0.0600 
    164 H164        2.6785  -16.7346  -42.8594 H         1 UNK         0.3000 
    165 H165        0.3292  -17.6366  -40.3318 H         1 UNK         0.0600 
    166 H166        1.8352  -16.2112  -38.9753 H         1 UNK         0.0600 
    167 H167        2.5671  -17.7871  -39.2310 H         1 UNK         0.0600 
    168 H168        3.1313  -16.4010  -40.1565 H         1 UNK         0.0600 
    169 H169        1.3234  -15.1187  -41.2769 H         1 UNK         0.3000 
    170 H170       -1.0450  -14.6458  -43.8865 H         1 UNK         0.0600 
    171 H171       -2.3540  -14.1290  -41.8194 H         1 UNK         0.0600 
    172 H172       -0.9376  -13.3630  -41.1080 H         1 UNK         0.0600 
    173 H173       -1.6882  -12.6767  -42.5496 H         1 UNK         0.0600 
    174 H174        0.7565  -12.7831  -42.9009 H         1 UNK         0.3000 
    175 H175        3.2099  -12.8047  -43.4127 H         1 UNK         0.0600 
    176 H176        3.5775  -13.9771  -46.2152 H         1 UNK         0.0600 
    177 H177        4.7155  -12.9369  -45.3677 H         1 UNK         0.0600 
    178 H178        4.3800  -14.5460  -44.7534 H         1 UNK         0.0600 
    179 H179        2.1655  -11.9987  -46.0590 H         1 UNK         0.3000 
    180 H180        0.3231   -9.2537  -44.7607 H         1 UNK         0.0600 
    181 H181        2.8360   -9.3647  -46.5155 H         1 UNK         0.0600 
    182 H182        2.6500   -8.3949  -45.0593 H         1 UNK         0.0600 
    183 H183        1.6577   -8.0531  -46.4672 H         1 UNK         0.0600 
    184 H184        0.6999  -10.2522  -47.4104 H         1 UNK         0.3000 
    185 H185       -2.0160  -12.4989  -47.4922 H         1 UNK         0.0600 
    186 H186       -3.2921  -10.3693  -47.4222 H         1 UNK         0.0600 
    187 H187       -2.0710   -9.5758  -48.4105 H         1 UNK         0.0600 
    188 H188       -3.0392  -10.8881  -49.0813 H         1 UNK         0.0600 
    189 H189       -0.2936  -10.9810  -49.3613 H         1 UNK         0.3000 
    190 H190       -1.4921  -21.9837  -46.5855 H         1 UNK         0.3000 
    191 H191       -3.1969  -23.2719  -48.4210 H         1 UNK         0.0600 
    192 H192       -3.8443  -21.7945  -45.8189 H         1 UNK         0.0600 
    193 H193       -5.0273  -22.2284  -47.0456 H         1 UNK         0.0600 
    194 H194       -3.7462  -21.0905  -47.4331 H         1 UNK         0.0600 
    195 H195       -2.5336  -24.0544  -44.9767 H         1 UNK         0.3000 
    196 H196       -4.4055  -26.1795  -44.7436 H         1 UNK         0.0600 
    197 H197       -3.0189  -26.8170  -42.7593 H         1 UNK         0.0600 
    198 H198       -3.3582  -25.0933  -42.7858 H         1 UNK         0.0600 
    199 H199       -1.7684  -25.6853  -43.2621 H         1 UNK         0.0600 
    200 H200       -1.0413  -26.1284  -45.9321 H         1 UNK         0.3000 
    201 H201       -0.8103  -28.9977  -46.2203 H         1 UNK         0.0600 
    202 H202        1.1704  -27.5595  -45.8610 H         1 UNK         0.0600 
    203 H203        0.8710  -26.7104  -47.3741 H         1 UNK         0.0600 
    204 H204        1.3097  -28.4141  -47.3906 H         1 UNK         0.0600 
    205 H205       -1.3640  -26.2865  -48.5275 H         1 UNK         0.3000 
    206 H206       -1.5026  -27.9960  -50.8382 H         1 UNK         0.0600 
    207 H207       -0.6817  -25.6499  -50.9182 H         1 UNK         0.0600 
    208 H208       -2.0501  -25.8574  -51.9999 H         1 UNK         0.0600 
    209 H209       -2.2715  -25.0532  -50.4494 H         1 UNK         0.0600 
    210 H210       -3.9165  -26.7875  -48.6133 H         1 UNK         0.3000 
    211 H211       -6.0403  -27.0821  -48.2642 H         1 UNK         0.0600 
    212 H212       -6.1756  -29.0874  -50.5736 H         1 UNK         0.0600 
    213 H213       -7.3896  -28.8357  -49.3311 H         1 UNK         0.0600 
    214 H214       -5.8140  -29.4776  -48.8924 H         1 UNK         0.0600 
    215 H215       -5.4075  -26.7793  -51.7585 H         1 UNK         0.3000 
    216 H216       -7.8137  -25.2529  -52.3219 H         1 UNK         0.0600 
    217 H217       -6.7841  -25.0566  -54.5888 H         1 UNK         0.0600 
    218 H218       -6.7453  -26.7177  -54.0195 H         1 UNK         0.0600 
    219 H219       -5.2796  -25.7381  -53.9806 H         1 UNK         0.0600 
    220 H220       -4.5796  -24.4456  -51.3470 H         1 UNK         0.3000 
    221 H221       -3.4568  -22.6552  -50.7710 H         1 UNK         0.0600 
    222 H222       -6.0653  -21.0557  -50.8404 H         1 UNK         0.0600 
    223 H223       -5.5039  -22.0201  -49.4765 H         1 UNK         0.0600 
    224 H224       -4.5849  -20.6170  -50.0053 H         1 UNK         0.0600 
    225 H225       -5.5965  -21.9453  -53.4659 H         1 UNK         0.3000 
    226 H226       -5.3410  -21.1207  -55.4961 H         1 UNK         0.0600 
    227 H227       -3.0422  -22.1885  -55.5949 H         1 UNK         0.0600 
    228 H228       -3.1806  -20.7417  -56.5757 H         1 UNK         0.0600 
    229 H229       -2.3427  -20.6698  -55.0360 H         1 UNK         0.0600 
    230 H230       -4.7307  -19.0561  -56.7147 H         1 UNK         0.3000 
    231 H231       -6.1017  -16.9632  -55.4876 H         1 UNK         0.0600 
    232 H232       -6.0589  -17.3857  -57.9294 H         1 UNK         0.0600 
    233 H233       -4.3496  -16.9540  -58.0031 H         1 UNK         0.0600 
    234 H234       -5.5550  -15.7373  -57.6006 H         1 UNK         0.0600 
    235 H235       -2.7674  -17.6306  -55.1289 H         1 UNK         0.3000 
    236 H236       -1.7448  -14.9813  -54.6917 H         1 UNK         0.0600 
    237 H237        0.1693  -16.2587  -53.6460 H         1 UNK         0.0600 
    238 H238       -0.7507  -17.7489  -53.8294 H         1 UNK         0.0600 
    239 H239       -0.2459  -16.8389  -55.2504 H         1 UNK         0.0600 
    240 H240       -3.6968  -17.1068  -52.6758 H         1 UNK         0.3000 
    241 H241       -3.8855  -15.0501  -50.6950 H         1 UNK         0.0600 
    242 H242       -6.7733  -17.7377  -51.1465 H         1 UNK         0.3800 
    243 H243       -5.3863  -17.8369  -52.1924 H         1 UNK         0.3800 
    244 H244       -1.8409  -15.9852  -49.8174 H         1 UNK         0.0800 
    245 H245       -3.1343  -16.2395  -48.7055 H         1 UNK         0.0800 
    246 H246       -0.9718  -17.7369  -51.4590 H         1 UNK         0.0800 
    247 H247       -1.0415  -19.4563  -51.2245 H         1 UNK         0.0800 
@<TRIPOS>BOND
     1    1    2 1    
     2    1  127 1    
     3    1  128 1    
     4    1  129 1    
     5    2    3 2    
     6    2    4 am   BACKBONE|DICT|INTERRES
     7    4    5 1    
     8    4  130 1    
     9    5    6 1    
    10    5   65 1    
    11    5  131 1    
    12    6    7 1    
    13    6  132 1    
    14    6  133 1    
    15    7    8 1    
    16    8    9 1    
    17    8  134 1    
    18    8  135 1    
    19    9   10 ar   
    20    9   14 ar   
    21   10   11 ar   
    22   10  136 1    
    23   11   12 ar   
    24   11  126 1    
    25   12   13 ar   
    26   12  137 1    
    27   13   14 ar   
    28   13   15 1    
    29   14  138 1    
    30   15   16 1    
    31   15  139 1    
    32   15  140 1    
    33   16   17 1    
    34   17   18 1    
    35   17  141 1    
    36   17  142 1    
    37   18   19 1    
    38   18   67 1    
    39   18  143 1    
    40   19   20 am   BACKBONE|DICT|INTERRES
    41   19  144 1    
    42   20   21 2    
    43   20   22 1    
    44   22   23 1    
    45   22   24 1    
    46   22  145 1    
    47   23  146 1    
    48   23  147 1    
    49   23  148 1    
    50   24   25 am   BACKBONE|DICT|INTERRES
    51   24  149 1    
    52   25   26 2    
    53   25   27 1    
    54   27   28 1    
    55   27   29 1    
    56   27  150 1    
    57   28  151 1    
    58   28  152 1    
    59   28  153 1    
    60   29   30 am   BACKBONE|DICT|INTERRES
    61   29  154 1    
    62   30   31 2    
    63   30   32 1    
    64   32   33 1    
    65   32   34 1    
    66   32  155 1    
    67   33  156 1    
    68   33  157 1    
    69   33  158 1    
    70   34   35 am   BACKBONE|DICT|INTERRES
    71   34  159 1    
    72   35   36 2    
    73   35   37 1    
    74   37   38 1    
    75   37   39 1    
    76   37  160 1    
    77   38  161 1    
    78   38  162 1    
    79   38  163 1    
    80   39   40 am   BACKBONE|DICT|INTERRES
    81   39  164 1    
    82   40   41 2    
    83   40   42 1    
    84   42   43 1    
    85   42   44 1    
    86   42  165 1    
    87   43  166 1    
    88   43  167 1    
    89   43  168 1    
    90   44   45 am   BACKBONE|DICT|INTERRES
    91   44  169 1    
    92   45   46 2    
    93   45   47 1    
    94   47   48 1    
    95   47   49 1    
    96   47  170 1    
    97   48  171 1    
    98   48  172 1    
    99   48  173 1    
   100   49   50 am   BACKBONE|DICT|INTERRES
   101   49  174 1    
   102   50   51 2    
   103   50   52 1    
   104   52   53 1    
   105   52   54 1    
   106   52  175 1    
   107   53  176 1    
   108   53  177 1    
   109   53  178 1    
   110   54   55 am   BACKBONE|DICT|INTERRES
   111   54  179 1    
   112   55   56 2    
   113   55   57 1    
   114   57   58 1    
   115   57   59 1    
   116   57  180 1    
   117   58  181 1    
   118   58  182 1    
   119   58  183 1    
   120   59   60 am   BACKBONE|DICT|INTERRES
   121   59  184 1    
   122   60   61 2    
   123   60   62 1    
   124   62   63 1    
   125   62   64 1    
   126   62  185 1    
   127   63  186 1    
   128   63  187 1    
   129   63  188 1    
   130   64   65 am   BACKBONE|DICT|INTERRES
   131   64  189 1    
   132   65   66 2    
   133   67   68 2    
   134   67   69 am   BACKBONE|DICT|INTERRES
   135   69   70 1    
   136   69  190 1    
   137   70   71 1    
   138   70   72 1    
   139   70  191 1    
   140   71  192 1    
   141   71  193 1    
   142   71  194 1    
   143   72   73 2    
   144   72   74 am   BACKBONE|DICT|INTERRES
   145   74   75 1    
   146   74  195 1    
   147   75   76 1    
   148   75   77 1    
   149   75  196 1    
   150   76  197 1    
   151   76  198 1    
   152   76  199 1    
   153   77   78 2    
   154   77   79 am   BACKBONE|DICT|INTERRES
   155   79   80 1    
   156   79  200 1    
   157   80   81 1    
   158   80   82 1    
   159   80  201 1    
   160   81  202 1    
   161   81  203 1    
   162   81  204 1    
   163   82   83 2    
   164   82   84 am   BACKBONE|DICT|INTERRES
   165   84   85 1    
   166   84  205 1    
   167   85   86 1    
   168   85   87 1    
   169   85  206 1    
   170   86  207 1    
   171   86  208 1    
   172   86  209 1    
   173   87   88 2    
   174   87   89 am   BACKBONE|DICT|INTERRES
   175   89   90 1    
   176   89  210 1    
   177   90   91 1    
   178   90   92 1    
   179   90  211 1    
   180   91  212 1    
   181   91  213 1    
   182   91  214 1    
   183   92   93 2    
   184   92   94 am   BACKBONE|DICT|INTERRES
   185   94   95 1    
   186   94  215 1    
   187   95   96 1    
   188   95   97 1    
   189   95  216 1    
   190   96  217 1    
   191   96  218 1    
   192   96  219 1    
   193   97   98 2    
   194   97   99 am   BACKBONE|DICT|INTERRES
   195   99  100 1    
   196   99  220 1    
   197  100  101 1    
   198  100  102 1    
   199  100  221 1    
   200  101  222 1    
   201  101  223 1    
   202  101  224 1    
   203  102  103 2    
   204  102  104 am   BACKBONE|DICT|INTERRES
   205  104  105 1    
   206  104  225 1    
   207  105  106 1    
   208  105  107 1    
   209  105  226 1    
   210  106  227 1    
   211  106  228 1    
   212  106  229 1    
   213  107  108 2    
   214  107  109 am   BACKBONE|DICT|INTERRES
   215  109  110 1    
   216  109  230 1    
   217  110  111 1    
   218  110  112 1    
   219  110  231 1    
   220  111  232 1    
   221  111  233 1    
   222  111  234 1    
   223  112  113 2    
   224  112  114 am   BACKBONE|DICT|INTERRES
   225  114  115 1    
   226  114  235 1    
   227  115  116 1    
   228  115  117 1    
   229  115  236 1    
   230  116  237 1    
   231  116  238 1    
   232  116  239 1    
   233  117  118 2    
   234  117  119 am   BACKBONE|DICT|INTERRES
   235  119  120 1    
   236  119  240 1    
   237  120  121 1    
   238  120  124 1    
   239  120  241 1    
   240  121  122 am   BACKBONE|DICT|INTERRES
   241  121  123 2    
   242  122  242 1    
   243  122  243 1    
   244  124  125 1    
   245  124  244 1    
   246  124  245 1    
   247  125  126 1    
   248  126  246 1    
   249  126  247 1    
@<TRIPOS>SUBSTRUCTURE
     1 UNK         1 GROUP             0       ****    0 ROOT    
