@<TRIPOS>MOLECULE
3R540
247   249    1
SMALL
USER_CHARGES


@<TRIPOS>ATOM
      1 CA         -0.4633  -17.5104  -51.7052 C.3       0 UNK        -0.1800 
      2 C          -0.2941  -17.0692  -50.2586 C.2       0 UNK         0.5000 
      3 O           0.5567  -17.6032  -49.5503 O.2       0 UNK        -0.5000 
      4 N          -1.0841  -16.0805  -49.8180 N.am      1 UNK        -0.5000 
      5 CA         -1.0713  -15.5553  -48.4445 C.3       1 UNK         0.1400 
      6 C6         -2.3357  -14.7078  -48.1446 C.3       23 UNK        -0.0398 
      7 S7         -2.7333  -14.6350  -46.3615 S.3       23 UNK        -0.2404 
      8 C8         -4.5480  -14.4790  -46.3582 C.3       23 UNK        -0.0205 
      9 C9         -5.2432  -15.8102  -46.6054 C.ar      23 UNK        -0.0193 
     10 C10        -5.7708  -16.1072  -47.8627 C.ar      23 UNK        -0.1150 
     11 C11        -6.4062  -17.3297  -48.1017 C.ar      23 UNK        -0.0193 
     12 C12        -6.5343  -18.2498  -47.0559 C.ar      23 UNK        -0.1150 
     13 C13        -6.0482  -17.9504  -45.7786 C.ar      23 UNK        -0.0193 
     14 C14        -5.3961  -16.7298  -45.5652 C.ar      23 UNK        -0.1150 
     15 C15        -6.3136  -18.9069  -44.6199 C.3       23 UNK        -0.0205 
     16 S16        -4.8753  -19.1468  -43.5262 S.3       23 UNK        -0.2404 
     17 C17        -4.1529  -20.7019  -44.1403 C.3       23 UNK        -0.0398 
     18 CA         -3.0958  -20.5158  -45.2551 C.3       11 UNK         0.1400 
     19 N          -1.9482  -19.6976  -44.8460 N.am      11 UNK        -0.5000 
     20 C          -0.9674  -19.3060  -45.6744 C.2       10 UNK         0.5000 
     21 O          -0.9520  -19.5527  -46.8806 O.2       10 UNK        -0.5000 
     22 CA          0.2296  -18.5731  -45.0428 C.3       10 UNK         0.1400 
     23 CB         -0.1143  -17.1126  -44.7260 C.3       10 UNK        -0.1800 
     24 N           0.7178  -19.2297  -43.8317 N.am      10 UNK        -0.5000 
     25 C           1.2332  -20.4653  -43.7840 C.2       9 UNK         0.5000 
     26 O           1.3824  -21.1834  -44.7696 O.2       9 UNK        -0.5000 
     27 CA          1.6113  -21.0088  -42.3966 C.3       9 UNK         0.1400 
     28 CB          3.0044  -20.5195  -41.9765 C.3       9 UNK        -0.1800 
     29 N           0.6320  -20.6414  -41.3763 N.am      9 UNK        -0.5000 
     30 C          -0.6239  -21.1076  -41.3302 C.2       8 UNK         0.5000 
     31 O          -1.0849  -21.9281  -42.1249 O.2       8 UNK        -0.5000 
     32 CA         -1.5292  -20.5098  -40.2377 C.3       8 UNK         0.1400 
     33 CB         -1.2769  -21.1928  -38.8853 C.3       8 UNK        -0.1800 
     34 N          -1.3601  -19.0612  -40.0935 N.am      8 UNK        -0.5000 
     35 C          -1.6368  -18.1770  -41.0621 C.2       7 UNK         0.5000 
     36 O          -2.0423  -18.4953  -42.1771 O.2       7 UNK        -0.5000 
     37 CA         -1.3677  -16.6948  -40.7524 C.3       7 UNK         0.1400 
     38 CB         -2.5071  -16.0997  -39.9115 C.3       7 UNK        -0.1800 
     39 N          -0.0865  -16.4575  -40.0827 N.am      7 UNK        -0.5000 
     40 C           1.1112  -16.7655  -40.5967 C.2       6 UNK         0.5000 
     41 O           1.2719  -17.3784  -41.6541 O.2       6 UNK        -0.5000 
     42 CA          2.3415  -16.3358  -39.7842 C.3       6 UNK         0.1400 
     43 CB          3.0033  -17.5496  -39.1139 C.3       6 UNK        -0.1800 
     44 N           3.3099  -15.6767  -40.6574 N.am      6 UNK        -0.5000 
     45 C           3.2208  -14.4020  -41.0621 C.2       5 UNK         0.5000 
     46 O           2.3508  -13.6212  -40.6738 O.2       5 UNK        -0.5000 
     47 CA          4.2839  -13.9135  -42.0641 C.3       5 UNK         0.1400 
     48 CB          5.5018  -13.3436  -41.3203 C.3       5 UNK        -0.1800 
     49 N           4.7280  -14.9749  -42.9702 N.am      5 UNK        -0.5000 
     50 C           4.0478  -15.3702  -44.0535 C.2       4 UNK         0.5000 
     51 O           2.9985  -14.8502  -44.4373 O.2       4 UNK        -0.5000 
     52 CA          4.6393  -16.5568  -44.8237 C.3       4 UNK         0.1400 
     53 CB          4.2357  -17.8877  -44.1674 C.3       4 UNK        -0.1800 
     54 N           4.1772  -16.5303  -46.2089 N.am      4 UNK        -0.5000 
     55 C           4.8674  -17.0194  -47.2461 C.2       3 UNK         0.5000 
     56 O           5.9667  -17.5636  -47.1292 O.2       3 UNK        -0.5000 
     57 CA          4.2480  -16.9021  -48.6536 C.3       3 UNK         0.1400 
     58 CB          3.6780  -18.2579  -49.0930 C.3       3 UNK        -0.1800 
     59 N           3.2055  -15.8818  -48.7938 N.am      3 UNK        -0.5000 
     60 C           3.4165  -14.5576  -48.7422 C.2       2 UNK         0.5000 
     61 O           4.5161  -14.0603  -48.4955 O.2       2 UNK        -0.5000 
     62 CA          2.2259  -13.6205  -49.0459 C.3       2 UNK         0.1400 
     63 CB          2.4688  -12.8459  -50.3514 C.3       2 UNK        -0.1800 
     64 N           0.9370  -14.3070  -49.1520 N.am      2 UNK        -0.5000 
     65 C           0.2339  -14.7863  -48.1169 C.2       1 UNK         0.5000 
     66 O           0.6019  -14.6644  -46.9504 O.2       1 UNK        -0.5000 
     67 C          -2.6474  -21.8982  -45.7706 C.2       11 UNK         0.5000 
     68 O          -3.1175  -22.3330  -46.8221 O.2       11 UNK        -0.5000 
     69 N          -1.7350  -22.5527  -45.0345 N.am      12 UNK        -0.5000 
     70 CA         -1.1710  -23.8558  -45.3880 C.3       12 UNK         0.1400 
     71 CB         -0.2970  -24.3781  -44.2384 C.3       12 UNK        -0.1800 
     72 C          -0.3824  -23.8259  -46.7079 C.2       12 UNK         0.5000 
     73 O          -0.5677  -24.7142  -47.5379 O.2       12 UNK        -0.5000 
     74 N           0.4461  -22.7904  -46.8977 N.am      13 UNK        -0.5000 
     75 CA          1.2075  -22.5460  -48.1214 C.3       13 UNK         0.1400 
     76 CB          2.1648  -21.3650  -47.9109 C.3       13 UNK        -0.1800 
     77 C           0.3029  -22.3047  -49.3403 C.2       13 UNK         0.5000 
     78 O           0.5387  -22.9019  -50.3900 O.2       13 UNK        -0.5000 
     79 N          -0.7385  -21.4773  -49.1712 N.am      14 UNK        -0.5000 
     80 CA         -1.7401  -21.1992  -50.2006 C.3       14 UNK         0.1400 
     81 CB         -2.6738  -20.0813  -49.7217 C.3       14 UNK        -0.1800 
     82 C          -2.5502  -22.4465  -50.5998 C.2       14 UNK         0.5000 
     83 O          -2.8091  -22.6468  -51.7882 O.2       14 UNK        -0.5000 
     84 N          -2.9064  -23.2742  -49.6071 N.am      15 UNK        -0.5000 
     85 CA         -3.5857  -24.5546  -49.7951 C.3       15 UNK         0.1400 
     86 CB         -4.0842  -25.0815  -48.4411 C.3       15 UNK        -0.1800 
     87 C          -2.6963  -25.5959  -50.4972 C.2       15 UNK         0.5000 
     88 O          -3.1681  -26.2656  -51.4157 O.2       15 UNK        -0.5000 
     89 N          -1.4244  -25.6921  -50.0831 N.am      16 UNK        -0.5000 
     90 CA         -0.4174  -26.5814  -50.6689 C.3       16 UNK         0.1400 
     91 CB          0.8446  -26.5823  -49.7931 C.3       16 UNK        -0.1800 
     92 C          -0.0679  -26.2152  -52.1224 C.2       16 UNK         0.5000 
     93 O           0.0904  -27.1098  -52.9540 O.2       16 UNK        -0.5000 
     94 N           0.0107  -24.9087  -52.4094 N.am      17 UNK        -0.5000 
     95 CA          0.1892  -24.3597  -53.7547 C.3       17 UNK         0.1400 
     96 CB          0.5901  -22.8803  -53.6382 C.3       17 UNK        -0.1800 
     97 C          -1.0660  -24.4962  -54.6394 C.2       17 UNK         0.5000 
     98 O          -0.9478  -24.3990  -55.8614 O.2       17 UNK        -0.5000 
     99 N          -2.2337  -24.6938  -54.0070 N.am      18 UNK        -0.5000 
    100 CA        -3.5796  -24.7141  -54.5862 C.3       18 UNK         0.1400 
    101 CB        -3.7707  -25.9463  -55.4942 C.3       18 UNK        -0.1800 
    102 C         -3.9055  -23.3778  -55.2820 C.2       18 UNK         0.5000 
    103 O         -4.3181  -23.3616  -56.4433 O.2       18 UNK        -0.5000 
    104 N         -3.6541  -22.2766  -54.5581 N.am      19 UNK        -0.5000 
    105 CA        -3.6982  -20.9051  -55.0671 C.3       19 UNK         0.1400 
    106 CB        -3.1686  -19.9507  -53.9852 C.3       19 UNK        -0.1800 
    107 C         -5.0887  -20.4609  -55.5591 C.2       19 UNK         0.5000 
    108 O         -5.1697  -19.7468  -56.5586 O.2       19 UNK        -0.5000 
    109 N         -6.1444  -20.8939  -54.8495 N.am      20 UNK        -0.5000 
    110 CA        -7.5707  -20.7032  -55.1640 C.3       20 UNK         0.1400 
    111 CB        -7.9558  -21.5539  -56.3921 C.3       20 UNK        -0.1800 
    112 C         -8.0075  -19.2253  -55.3099 C.2       20 UNK         0.5000 
    113 O         -8.9607  -18.9294  -56.0329 O.2       20 UNK        -0.5000 
    114 N         -7.3007  -18.3298  -54.6132 N.am      21 UNK        -0.5000 
    115 CA        -7.4488  -16.8733  -54.6299 C.3       21 UNK         0.1400 
    116 CB        -7.1542  -16.2881  -56.0260 C.3       21 UNK        -0.1800 
    117 C         -6.4977  -16.2619  -53.5917 C.2       21 UNK         0.5000 
    118 O         -6.8683  -15.3013  -52.9174 O.2       21 UNK        -0.5000 
    119 N         -5.3066  -16.8671  -53.4619 N.am      22 UNK        -0.5000 
    120 CA        -4.2827  -16.5847  -52.4393 C.3       22 UNK         0.1400 
    121 C         -3.4932  -15.2569  -52.6437 C.2       22 UNK         0.5000 
    122 N         -3.5828  -14.5995  -53.7922 N.am      22 UNK        -0.7600 
    123 O         -2.7590  -14.8328  -51.7547 O.2       22 UNK        -0.5000 
    124 C124       -4.8044  -16.7189  -50.9831 C.3       23 UNK        -0.0398 
    125 S125       -5.7370  -18.2520  -50.6410 S.3       23 UNK        -0.2404 
    126 C126       -6.9933  -17.6380  -49.4742 C.3       23 UNK        -0.0205 
    127 H127        0.4789  -17.8939  -52.0972 H         1 UNK         0.0600 
    128 H128       -0.7765  -16.6820  -52.3398 H         1 UNK         0.0600 
    129 H129       -1.2081  -18.3027  -51.7735 H         1 UNK         0.0600 
    130 H130       -1.7244  -15.6253  -50.4666 H         1 UNK         0.3000 
    131 H131       -1.0977  -16.4320  -47.7945 H         1 UNK         0.0600 
    132 H132       -2.2392  -13.6944  -48.5382 H         1 UNK         0.0800 
    133 H133       -3.1939  -15.1423  -48.6551 H         1 UNK         0.0800 
    134 H134       -4.8531  -13.7359  -47.0967 H         1 UNK         0.0800 
    135 H135       -4.8615  -14.0873  -45.3895 H         1 UNK         0.0800 
    136 H136       -5.6912  -15.3742  -48.6503 H         1 UNK         0.1150 
    137 H137       -7.0465  -19.1858  -47.2297 H         1 UNK         0.1150 
    138 H138       -5.0202  -16.4839  -44.5820 H         1 UNK         0.1150 
    139 H139       -7.1251  -18.4885  -44.0234 H         1 UNK         0.0800 
    140 H140       -6.6732  -19.8707  -44.9821 H         1 UNK         0.0800 
    141 H141       -4.9615  -21.3520  -44.4790 H         1 UNK         0.0800 
    142 H142       -3.7049  -21.2075  -43.2827 H         1 UNK         0.0800 
    143 H143       -3.5770  -19.9997  -46.0890 H         1 UNK         0.0600 
    144 H144       -1.9177  -19.4070  -43.8715 H         1 UNK         0.3000 
    145 H145        1.0414  -18.5764  -45.7735 H         1 UNK         0.0600 
    146 H146        0.7664  -16.5602  -44.3982 H         1 UNK         0.0600 
    147 H147       -0.5072  -16.6080  -45.6046 H         1 UNK         0.0600 
    148 H148       -0.8710  -17.0287  -43.9487 H         1 UNK         0.0600 
    149 H149        0.6778  -18.6842  -42.9758 H         1 UNK         0.3000 
    150 H150        1.6408  -22.0984  -42.4607 H         1 UNK         0.0600 
    151 H151        3.7570  -20.8111  -42.7102 H         1 UNK         0.0600 
    152 H152        3.3014  -20.9448  -41.0178 H         1 UNK         0.0600 
    153 H153        3.0380  -19.4343  -41.8882 H         1 UNK         0.0600 
    154 H154        0.9064  -19.9281  -40.7178 H         1 UNK         0.3000 
    155 H155       -2.5651  -20.6986  -40.5281 H         1 UNK         0.0600 
    156 H156       -0.2643  -21.0112  -38.5229 H         1 UNK         0.0600 
    157 H157       -1.4090  -22.2728  -38.9636 H         1 UNK         0.0600 
    158 H158       -1.9742  -20.8356  -38.1273 H         1 UNK         0.0600 
    159 H159       -1.0158  -18.7215  -39.2077 H         1 UNK         0.3000 
    160 H160       -1.3408  -16.1617  -41.7049 H         1 UNK         0.0600 
    161 H161       -2.3798  -15.0251  -39.7789 H         1 UNK         0.0600 
    162 H162       -2.5617  -16.5566  -38.9227 H         1 UNK         0.0600 
    163 H163       -3.4715  -16.2532  -40.3981 H         1 UNK         0.0600 
    164 H164       -0.1272  -15.9619  -39.2038 H         1 UNK         0.3000 
    165 H165        2.0332  -15.6394  -39.0013 H         1 UNK         0.0600 
    166 H166        3.8474  -17.2439  -38.4956 H         1 UNK         0.0600 
    167 H167        2.2983  -18.0713  -38.4655 H         1 UNK         0.0600 
    168 H168        3.3706  -18.2685  -39.8461 H         1 UNK         0.0600 
    169 H169        4.0234  -16.2628  -41.0622 H         1 UNK         0.3000 
    170 H170        3.8410  -13.1067  -42.6525 H         1 UNK         0.0600 
    171 H171        5.2064  -12.5338  -40.6517 H         1 UNK         0.0600 
    172 H172        5.9986  -14.1034  -40.7157 H         1 UNK         0.0600 
    173 H173        6.2344  -12.9366  -42.0175 H         1 UNK         0.0600 
    174 H174        5.5910  -15.4417  -42.7308 H         1 UNK         0.3000 
    175 H175        5.7270  -16.4593  -44.8030 H         1 UNK         0.0600 
    176 H176        4.6110  -17.9509  -43.1457 H         1 UNK         0.0600 
    177 H177        4.6351  -18.7424  -44.7135 H         1 UNK         0.0600 
    178 H178        3.1523  -17.9925  -44.1260 H         1 UNK         0.0600 
    179 H179        3.3050  -16.0395  -46.3639 H         1 UNK         0.3000 
    180 H180        5.0583  -16.6420  -49.3378 H         1 UNK         0.0600 
    181 H181        2.8483  -18.5597  -48.4539 H         1 UNK         0.0600 
    182 H182        4.4352  -19.0412  -49.0419 H         1 UNK         0.0600 
    183 H183        3.3151  -18.2230  -50.1204 H         1 UNK         0.0600 
    184 H184        2.2728  -16.2213  -48.9945 H         1 UNK         0.3000 
    185 H185        2.1671  -12.8989  -48.2283 H         1 UNK         0.0600 
    186 H186        3.3985  -12.2772  -50.3041 H         1 UNK         0.0600 
    187 H187        2.5374  -13.5159  -51.2094 H         1 UNK         0.0600 
    188 H188        1.6658  -12.1340  -50.5436 H         1 UNK         0.0600 
    189 H189        0.5780  -14.4587  -50.0834 H         1 UNK         0.3000 
    190 H190       -1.4085  -22.1395  -44.1673 H         1 UNK         0.3000 
    191 H191       -2.0038  -24.5498  -45.5185 H         1 UNK         0.0600 
    192 H192        0.5398  -23.7109  -44.0323 H         1 UNK         0.0600 
    193 H193        0.1159  -25.3590  -44.4767 H         1 UNK         0.0600 
    194 H194       -0.8752  -24.4831  -43.3203 H         1 UNK         0.0600 
    195 H195        0.5832  -22.1235  -46.1411 H         1 UNK         0.3000 
    196 H196        1.8065  -23.4361  -48.3236 H         1 UNK         0.0600 
    197 H197        2.7338  -21.1569  -48.8177 H         1 UNK         0.0600 
    198 H198        2.8817  -21.5740  -47.1169 H         1 UNK         0.0600 
    199 H199        1.6242  -20.4568  -47.6422 H         1 UNK         0.0600 
    200 H200       -0.8475  -20.9931  -48.2845 H         1 UNK         0.3000 
    201 H201       -1.2120  -20.8456  -51.0883 H         1 UNK         0.0600 
    202 H202       -2.1177  -19.1937  -49.4233 H         1 UNK         0.0600 
    203 H203       -3.2799  -20.3925  -48.8700 H         1 UNK         0.0600 
    204 H204       -3.3501  -19.7893  -50.5231 H         1 UNK         0.0600 
    205 H205       -2.7033  -23.0034  -48.6494 H         1 UNK         0.3000 
    206 H206       -4.4571  -24.3804  -50.4299 H         1 UNK         0.0600 
    207 H207       -4.7787  -24.3802  -47.9783 H         1 UNK         0.0600 
    208 H208       -4.6095  -26.0298  -48.5599 H         1 UNK         0.0600 
    209 H209       -3.2624  -25.2454  -47.7437 H         1 UNK         0.0600 
    210 H210       -1.1264  -25.1418  -49.2808 H         1 UNK         0.3000 
    211 H211       -0.8282  -27.5931  -50.6724 H         1 UNK         0.0600 
    212 H212        1.2791  -25.5854  -49.7134 H         1 UNK         0.0600 
    213 H213        1.6080  -27.2428  -50.2061 H         1 UNK         0.0600 
    214 H214        0.6234  -26.9323  -48.7847 H         1 UNK         0.0600 
    215 H215       -0.0518  -24.2346  -51.6506 H         1 UNK         0.3000 
    216 H216        1.0020  -24.8997  -54.2444 H         1 UNK         0.0600 
    217 H217        0.7601  -22.4403  -54.6216 H         1 UNK         0.0600 
    218 H218        1.5114  -22.7648  -53.0671 H         1 UNK         0.0600 
    219 H219       -0.1857  -22.2929  -53.1450 H         1 UNK         0.0600 
    220 H220       -2.2052  -24.7431  -52.9974 H         1 UNK         0.3000 
    221 H221       -4.2746  -24.8070  -53.7504 H         1 UNK         0.0600 
    222 H222       -4.8022  -26.0175  -55.8408 H         1 UNK         0.0600 
    223 H223       -3.5441  -26.8673  -54.9569 H         1 UNK         0.0600 
    224 H224       -3.1316  -25.9068  -56.3765 H         1 UNK         0.0600 
    225 H225       -3.3169  -22.3969  -53.6054 H         1 UNK         0.3000 
    226 H226       -3.0191  -20.8564  -55.9209 H         1 UNK         0.0600 
    227 H227       -3.1071  -18.9310  -54.3660 H         1 UNK         0.0600 
    228 H228       -3.8102  -19.9430  -53.1030 H         1 UNK         0.0600 
    229 H229       -2.1659  -20.2352  -53.6651 H         1 UNK         0.0600 
    230 H230       -5.9509  -21.4667  -54.0399 H         1 UNK         0.3000 
    231 H231       -8.1244  -21.0931  -54.3088 H         1 UNK         0.0600 
    232 H232       -7.6580  -22.5942  -56.2597 H         1 UNK         0.0600 
    233 H233       -7.4816  -21.1842  -57.3018 H         1 UNK         0.0600 
    234 H234       -9.0339  -21.5453  -56.5565 H         1 UNK         0.0600 
    235 H235       -6.6012  -18.6832  -53.9762 H         1 UNK         0.3000 
    236 H236       -8.4720  -16.6245  -54.3419 H         1 UNK         0.0600 
    237 H237       -7.8993  -16.5985  -56.7579 H         1 UNK         0.0600 
    238 H238       -7.1668  -15.1976  -56.0037 H         1 UNK         0.0600 
    239 H239       -6.1760  -16.5998  -56.3940 H         1 UNK         0.0600 
    240 H240       -5.0644  -17.5826  -54.1296 H         1 UNK         0.3000 
    241 H241       -3.5313  -17.3627  -52.5685 H         1 UNK         0.0600 
    242 H242       -3.0593  -13.7470  -53.9144 H         1 UNK         0.3800 
    243 H243       -4.1778  -14.9328  -54.5330 H         1 UNK         0.3800 
    244 H244       -5.4349  -15.8593  -50.7593 H         1 UNK         0.0800 
    245 H245       -3.9741  -16.6879  -50.2772 H         1 UNK         0.0800 
    246 H246       -7.7769  -18.3915  -49.3830 H         1 UNK         0.0800 
    247 H247       -7.4781  -16.7509  -49.8849 H         1 UNK         0.0800 
@<TRIPOS>BOND
     1    1    2 1    
     2    1  127 1    
     3    1  128 1    
     4    1  129 1    
     5    2    3 2    
     6    2    4 am   BACKBONE|DICT|INTERRES
     7    4    5 1    
     8    4  130 1    
     9    5    6 1    
    10    5   65 1    
    11    5  131 1    
    12    6    7 1    
    13    6  132 1    
    14    6  133 1    
    15    7    8 1    
    16    8    9 1    
    17    8  134 1    
    18    8  135 1    
    19    9   10 ar   
    20    9   14 ar   
    21   10   11 ar   
    22   10  136 1    
    23   11   12 ar   
    24   11  126 1    
    25   12   13 ar   
    26   12  137 1    
    27   13   14 ar   
    28   13   15 1    
    29   14  138 1    
    30   15   16 1    
    31   15  139 1    
    32   15  140 1    
    33   16   17 1    
    34   17   18 1    
    35   17  141 1    
    36   17  142 1    
    37   18   19 1    
    38   18   67 1    
    39   18  143 1    
    40   19   20 am   BACKBONE|DICT|INTERRES
    41   19  144 1    
    42   20   21 2    
    43   20   22 1    
    44   22   23 1    
    45   22   24 1    
    46   22  145 1    
    47   23  146 1    
    48   23  147 1    
    49   23  148 1    
    50   24   25 am   BACKBONE|DICT|INTERRES
    51   24  149 1    
    52   25   26 2    
    53   25   27 1    
    54   27   28 1    
    55   27   29 1    
    56   27  150 1    
    57   28  151 1    
    58   28  152 1    
    59   28  153 1    
    60   29   30 am   BACKBONE|DICT|INTERRES
    61   29  154 1    
    62   30   31 2    
    63   30   32 1    
    64   32   33 1    
    65   32   34 1    
    66   32  155 1    
    67   33  156 1    
    68   33  157 1    
    69   33  158 1    
    70   34   35 am   BACKBONE|DICT|INTERRES
    71   34  159 1    
    72   35   36 2    
    73   35   37 1    
    74   37   38 1    
    75   37   39 1    
    76   37  160 1    
    77   38  161 1    
    78   38  162 1    
    79   38  163 1    
    80   39   40 am   BACKBONE|DICT|INTERRES
    81   39  164 1    
    82   40   41 2    
    83   40   42 1    
    84   42   43 1    
    85   42   44 1    
    86   42  165 1    
    87   43  166 1    
    88   43  167 1    
    89   43  168 1    
    90   44   45 am   BACKBONE|DICT|INTERRES
    91   44  169 1    
    92   45   46 2    
    93   45   47 1    
    94   47   48 1    
    95   47   49 1    
    96   47  170 1    
    97   48  171 1    
    98   48  172 1    
    99   48  173 1    
   100   49   50 am   BACKBONE|DICT|INTERRES
   101   49  174 1    
   102   50   51 2    
   103   50   52 1    
   104   52   53 1    
   105   52   54 1    
   106   52  175 1    
   107   53  176 1    
   108   53  177 1    
   109   53  178 1    
   110   54   55 am   BACKBONE|DICT|INTERRES
   111   54  179 1    
   112   55   56 2    
   113   55   57 1    
   114   57   58 1    
   115   57   59 1    
   116   57  180 1    
   117   58  181 1    
   118   58  182 1    
   119   58  183 1    
   120   59   60 am   BACKBONE|DICT|INTERRES
   121   59  184 1    
   122   60   61 2    
   123   60   62 1    
   124   62   63 1    
   125   62   64 1    
   126   62  185 1    
   127   63  186 1    
   128   63  187 1    
   129   63  188 1    
   130   64   65 am   BACKBONE|DICT|INTERRES
   131   64  189 1    
   132   65   66 2    
   133   67   68 2    
   134   67   69 am   BACKBONE|DICT|INTERRES
   135   69   70 1    
   136   69  190 1    
   137   70   71 1    
   138   70   72 1    
   139   70  191 1    
   140   71  192 1    
   141   71  193 1    
   142   71  194 1    
   143   72   73 2    
   144   72   74 am   BACKBONE|DICT|INTERRES
   145   74   75 1    
   146   74  195 1    
   147   75   76 1    
   148   75   77 1    
   149   75  196 1    
   150   76  197 1    
   151   76  198 1    
   152   76  199 1    
   153   77   78 2    
   154   77   79 am   BACKBONE|DICT|INTERRES
   155   79   80 1    
   156   79  200 1    
   157   80   81 1    
   158   80   82 1    
   159   80  201 1    
   160   81  202 1    
   161   81  203 1    
   162   81  204 1    
   163   82   83 2    
   164   82   84 am   BACKBONE|DICT|INTERRES
   165   84   85 1    
   166   84  205 1    
   167   85   86 1    
   168   85   87 1    
   169   85  206 1    
   170   86  207 1    
   171   86  208 1    
   172   86  209 1    
   173   87   88 2    
   174   87   89 am   BACKBONE|DICT|INTERRES
   175   89   90 1    
   176   89  210 1    
   177   90   91 1    
   178   90   92 1    
   179   90  211 1    
   180   91  212 1    
   181   91  213 1    
   182   91  214 1    
   183   92   93 2    
   184   92   94 am   BACKBONE|DICT|INTERRES
   185   94   95 1    
   186   94  215 1    
   187   95   96 1    
   188   95   97 1    
   189   95  216 1    
   190   96  217 1    
   191   96  218 1    
   192   96  219 1    
   193   97   98 2    
   194   97   99 am   BACKBONE|DICT|INTERRES
   195   99  100 1    
   196   99  220 1    
   197  100  101 1    
   198  100  102 1    
   199  100  221 1    
   200  101  222 1    
   201  101  223 1    
   202  101  224 1    
   203  102  103 2    
   204  102  104 am   BACKBONE|DICT|INTERRES
   205  104  105 1    
   206  104  225 1    
   207  105  106 1    
   208  105  107 1    
   209  105  226 1    
   210  106  227 1    
   211  106  228 1    
   212  106  229 1    
   213  107  108 2    
   214  107  109 am   BACKBONE|DICT|INTERRES
   215  109  110 1    
   216  109  230 1    
   217  110  111 1    
   218  110  112 1    
   219  110  231 1    
   220  111  232 1    
   221  111  233 1    
   222  111  234 1    
   223  112  113 2    
   224  112  114 am   BACKBONE|DICT|INTERRES
   225  114  115 1    
   226  114  235 1    
   227  115  116 1    
   228  115  117 1    
   229  115  236 1    
   230  116  237 1    
   231  116  238 1    
   232  116  239 1    
   233  117  118 2    
   234  117  119 am   BACKBONE|DICT|INTERRES
   235  119  120 1    
   236  119  240 1    
   237  120  121 1    
   238  120  124 1    
   239  120  241 1    
   240  121  122 am   BACKBONE|DICT|INTERRES
   241  121  123 2    
   242  122  242 1    
   243  122  243 1    
   244  124  125 1    
   245  124  244 1    
   246  124  245 1    
   247  125  126 1    
   248  126  246 1    
   249  126  247 1    
@<TRIPOS>SUBSTRUCTURE
     1 UNK         1 GROUP             0       ****    0 ROOT    
