@<TRIPOS>MOLECULE
3R540
247   249    1
SMALL
USER_CHARGES


@<TRIPOS>ATOM
      1 CA          3.9588  -10.3780  -50.5519 C.3       0 UNK        -0.1800 
      2 C           3.3760  -11.7028  -51.0399 C.2       0 UNK         0.5000 
      3 O           3.1428  -11.8536  -52.2372 O.2       0 UNK        -0.5000 
      4 N           3.1340  -12.6870  -50.1653 N.am      1 UNK        -0.5000 
      5 CA          3.2960  -12.6264  -48.7092 C.3       1 UNK         0.1400 
      6 C6          3.5611  -14.0221  -48.0936 C.3       23 UNK        -0.0398 
      7 S7          5.1469  -14.7457  -48.6288 S.3       23 UNK        -0.2404 
      8 C8          4.7414  -16.5294  -48.6405 C.3       23 UNK        -0.0205 
      9 C9          3.8800  -17.0288  -49.8040 C.ar      23 UNK        -0.0193 
     10 C10         3.4943  -16.2118  -50.8760 C.ar      23 UNK        -0.1150 
     11 C11         2.6926  -16.7110  -51.9046 C.ar      23 UNK        -0.0193 
     12 C12         2.3097  -18.0526  -51.8884 C.ar      23 UNK        -0.1150 
     13 C13         2.7013  -18.8889  -50.8413 C.ar      23 UNK        -0.0193 
     14 C14         3.4736  -18.3684  -49.7979 C.ar      23 UNK        -0.1150 
     15 C15         2.2967  -20.3557  -50.8569 C.3       23 UNK        -0.0205 
     16 S16         0.4966  -20.5604  -50.6917 S.3       23 UNK        -0.2404 
     17 C17         0.2414  -20.1291  -48.9400 C.3       23 UNK        -0.0398 
     18 CA         -0.4696  -21.2681  -48.1694 C.3       11 UNK         0.1400 
     19 N          -0.0362  -21.3570  -46.7731 N.am      11 UNK        -0.5000 
     20 C          -0.3511  -22.3628  -45.9442 C.2       10 UNK         0.5000 
     21 O          -1.0042  -23.3493  -46.2846 O.2       10 UNK        -0.5000 
     22 CA          0.0968  -22.2219  -44.4780 C.3       10 UNK         0.1400 
     23 CB          1.5667  -22.6350  -44.3135 C.3       10 UNK        -0.1800 
     24 N          -0.0959  -20.8661  -43.9621 N.am      10 UNK        -0.5000 
     25 C          -1.2888  -20.2682  -43.8291 C.2       9 UNK         0.5000 
     26 O          -2.3614  -20.8255  -44.0627 O.2       9 UNK        -0.5000 
     27 CA         -1.2793  -18.7810  -43.4289 C.3       9 UNK         0.1400 
     28 CB         -1.0795  -18.6159  -41.9155 C.3       9 UNK        -0.1800 
     29 N          -0.2596  -18.0146  -44.1458 N.am      9 UNK        -0.5000 
     30 C          -0.2249  -17.8515  -45.4762 C.2       8 UNK         0.5000 
     31 O          -1.0745  -18.2961  -46.2456 O.2       8 UNK        -0.5000 
     32 CA          0.9879  -17.1054  -46.0500 C.3       8 UNK         0.1400 
     33 CB          0.7937  -15.5917  -45.9079 C.3       8 UNK        -0.1800 
     34 N           2.2336  -17.5162  -45.4019 N.am      8 UNK        -0.5000 
     35 C           2.7959  -18.7238  -45.5570 C.2       7 UNK         0.5000 
     36 O           2.3406  -19.6000  -46.2899 O.2       7 UNK        -0.5000 
     37 CA          4.0544  -19.0176  -44.7220 C.3       7 UNK         0.1400 
     38 CB          5.3048  -18.4437  -45.4048 C.3       7 UNK        -0.1800 
     39 N           3.9580  -18.4914  -43.3609 N.am      7 UNK        -0.5000 
     40 C           3.0827  -18.9207  -42.4403 C.2       6 UNK         0.5000 
     41 O           2.2902  -19.8434  -42.6264 O.2       6 UNK        -0.5000 
     42 CA          3.0542  -18.1499  -41.1073 C.3       6 UNK         0.1400 
     43 CB          4.0782  -18.7336  -40.1229 C.3       6 UNK        -0.1800 
     44 N           3.2986  -16.7136  -41.2722 N.am      6 UNK        -0.5000 
     45 C           2.5039  -15.8869  -41.9643 C.2       5 UNK         0.5000 
     46 O           1.4831  -16.2541  -42.5508 O.2       5 UNK        -0.5000 
     47 CA          2.9683  -14.4253  -42.0767 C.3       5 UNK         0.1400 
     48 CB          3.7420  -14.2155  -43.3884 C.3       5 UNK        -0.1800 
     49 N           1.8371  -13.5006  -42.0281 N.am      5 UNK        -0.5000 
     50 C           1.1435  -13.2196  -40.9142 C.2       4 UNK         0.5000 
     51 O           1.4282  -13.6790  -39.8068 O.2       4 UNK        -0.5000 
     52 CA         -0.0528  -12.2514  -41.0312 C.3       4 UNK         0.1400 
     53 CB          0.3398  -10.8524  -40.5307 C.3       4 UNK        -0.1800 
     54 N          -0.5784  -12.1299  -42.3897 N.am      4 UNK        -0.5000 
     55 C          -1.2757  -13.0753  -43.0325 C.2       3 UNK         0.5000 
     56 O          -1.6384  -14.1289  -42.5092 O.2       3 UNK        -0.5000 
     57 CA         -1.6263  -12.8050  -44.5114 C.3       3 UNK         0.1400 
     58 CB         -3.1099  -12.4289  -44.6487 C.3       3 UNK        -0.1800 
     59 N          -0.8160  -11.7745  -45.1768 N.am      3 UNK        -0.5000 
     60 C           0.5132  -11.8102  -45.3383 C.2       2 UNK         0.5000 
     61 O           1.2442  -12.6577  -44.8241 O.2       2 UNK        -0.5000 
     62 CA          1.1430  -10.6892  -46.1821 C.3       2 UNK         0.1400 
     63 CB          1.7019   -9.5852  -45.2718 C.3       2 UNK        -0.1800 
     64 N           2.2255  -11.2211  -47.0103 N.am      2 UNK        -0.5000 
     65 C           2.0347  -12.0071  -48.0772 C.2       1 UNK         0.5000 
     66 O           0.9233  -12.2677  -48.5446 O.2       1 UNK        -0.5000 
     67 C          -2.0034  -21.1597  -48.2899 C.2       11 UNK         0.5000 
     68 O          -2.5992  -21.8719  -49.0948 O.2       11 UNK        -0.5000 
     69 N          -2.6216  -20.3105  -47.4574 N.am      12 UNK        -0.5000 
     70 CA         -4.0717  -20.1386  -47.3670 C.3       12 UNK         0.1400 
     71 CB         -4.3960  -18.9639  -46.4328 C.3       12 UNK        -0.1800 
     72 C          -4.7967  -21.4192  -46.9151 C.2       12 UNK         0.5000 
     73 O          -5.8355  -21.7565  -47.4826 O.2       12 UNK        -0.5000 
     74 N          -4.2179  -22.1346  -45.9401 N.am      13 UNK        -0.5000 
     75 CA         -4.6959  -23.4397  -45.4812 C.3       13 UNK         0.1400 
     76 CB         -3.9194  -23.8678  -44.2273 C.3       13 UNK        -0.1800 
     77 C          -4.6124  -24.5156  -46.5798 C.2       13 UNK         0.5000 
     78 O          -5.5670  -25.2716  -46.7604 O.2       13 UNK        -0.5000 
     79 N          -3.4994  -24.5362  -47.3272 N.am      14 UNK        -0.5000 
     80 CA         -3.3071  -25.4031  -48.4903 C.3       14 UNK         0.1400 
     81 CB         -1.8486  -25.3282  -48.9654 C.3       14 UNK        -0.1800 
     82 C          -4.2774  -25.0719  -49.6384 C.2       14 UNK         0.5000 
     83 O          -4.8178  -25.9903  -50.2561 O.2       14 UNK        -0.5000 
     84 N          -4.5050  -23.7757  -49.8899 N.am      15 UNK        -0.5000 
     85 CA         -5.4488  -23.2671  -50.8854 C.3       15 UNK         0.1400 
     86 CB         -5.2718  -21.7519  -51.0530 C.3       15 UNK        -0.1800 
     87 C          -6.9096  -23.6219  -50.5682 C.2       15 UNK         0.5000 
     88 O          -7.6604  -23.9705  -51.4793 O.2       15 UNK        -0.5000 
     89 N          -7.2753  -23.5641  -49.2810 N.am      16 UNK        -0.5000 
     90 CA         -8.5701  -24.0141  -48.7726 C.3       16 UNK         0.1400 
     91 CB         -8.7329  -23.5579  -47.3147 C.3       16 UNK        -0.1800 
     92 C          -8.7555  -25.5392  -48.8943 C.2       16 UNK         0.5000 
     93 O          -9.8756  -25.9922  -49.1338 O.2       16 UNK        -0.5000 
     94 N          -7.6615  -26.2976  -48.7350 N.am      17 UNK        -0.5000 
     95 CA         -7.6349  -27.7510  -48.8654 C.3       17 UNK         0.1400 
     96 CB         -6.3721  -28.3199  -48.1972 C.3       17 UNK        -0.1800 
     97 C          -7.7624  -28.2170  -50.3274 C.2       17 UNK         0.5000 
     98 O          -8.7028  -28.9521  -50.6346 O.2       17 UNK        -0.5000 
     99 N          -6.8264  -27.8048  -51.1975 N.am      18 UNK        -0.5000 
    100 CA        -6.7544  -28.2788  -52.5873 C.3       18 UNK         0.1400 
    101 CB        -6.3057  -29.7569  -52.6167 C.3       18 UNK        -0.1800 
    102 C         -5.8461  -27.4566  -53.5233 C.2       18 UNK         0.5000 
    103 O         -5.9867  -27.5980  -54.7398 O.2       18 UNK        -0.5000 
    104 N         -4.9068  -26.6668  -52.9851 N.am      19 UNK        -0.5000 
    105 CA        -3.8897  -25.9450  -53.7577 C.3       19 UNK         0.1400 
    106 CB        -2.6056  -25.8464  -52.9071 C.3       19 UNK        -0.1800 
    107 C         -4.3969  -24.5726  -54.2590 C.2       19 UNK         0.5000 
    108 O         -5.5848  -24.4130  -54.5459 O.2       19 UNK        -0.5000 
    109 N         -3.4919  -23.5921  -54.3368 N.am      20 UNK        -0.5000 
    110 CA        -3.7593  -22.1945  -54.6565 C.3       20 UNK         0.1400 
    111 CB        -3.6811  -21.9851  -56.1785 C.3       20 UNK        -0.1800 
    112 C         -2.7299  -21.3267  -53.9165 C.2       20 UNK         0.5000 
    113 O         -1.6811  -21.8366  -53.5129 O.2       20 UNK        -0.5000 
    114 N         -3.0446  -20.0382  -53.7590 N.am      21 UNK        -0.5000 
    115 CA        -2.2141  -19.0374  -53.0951 C.3       21 UNK         0.1400 
    116 CB        -2.5892  -18.9713  -51.6031 C.3       21 UNK        -0.1800 
    117 C         -2.4294  -17.6761  -53.7725 C.2       21 UNK         0.5000 
    118 O         -3.4234  -17.4933  -54.4812 O.2       21 UNK        -0.5000 
    119 N         -1.5078  -16.7395  -53.5225 N.am      22 UNK        -0.5000 
    120 CA        -1.5754  -15.3423  -53.9885 C.3       22 UNK         0.1400 
    121 C         -2.5950  -14.4404  -53.2274 C.2       22 UNK         0.5000 
    122 N         -3.1888  -14.8825  -52.1252 N.am      22 UNK        -0.7600 
    123 O         -2.8657  -13.3222  -53.6573 O.2       22 UNK        -0.5000 
    124 C124       -0.1684  -14.6878  -54.0610 C.3       23 UNK        -0.0398 
    125 S125        0.7842  -14.8237  -52.5042 S.3       23 UNK        -0.2404 
    126 C126        2.2282  -15.8018  -53.0286 C.3       23 UNK        -0.0205 
    127 H127        4.9602  -10.5239  -50.1468 H         1 UNK         0.0600 
    128 H128        3.3285   -9.9283  -49.7851 H         1 UNK         0.0600 
    129 H129        4.0341   -9.6675  -51.3755 H         1 UNK         0.0600 
    130 H130        2.6863  -13.5242  -50.5077 H         1 UNK         0.3000 
    131 H131        4.1508  -11.9935  -48.4650 H         1 UNK         0.0600 
    132 H132        3.5941  -13.9590  -47.0042 H         1 UNK         0.0800 
    133 H133        2.7479  -14.7063  -48.3427 H         1 UNK         0.0800 
    134 H134        4.2447  -16.7760  -47.7015 H         1 UNK         0.0800 
    135 H135        5.6795  -17.0859  -48.6485 H         1 UNK         0.0800 
    136 H136        3.8050  -15.1806  -50.9233 H         1 UNK         0.1150 
    137 H137        1.7000  -18.4500  -52.6878 H         1 UNK         0.1150 
    138 H138        3.7697  -19.0119  -48.9807 H         1 UNK         0.1150 
    139 H139        2.6145  -20.7994  -51.8014 H         1 UNK         0.0800 
    140 H140        2.8047  -20.9155  -50.0699 H         1 UNK         0.0800 
    141 H141       -0.2984  -19.1826  -48.8724 H         1 UNK         0.0800 
    142 H142        1.2185  -19.9353  -48.5025 H         1 UNK         0.0800 
    143 H143       -0.1814  -22.2191  -48.6234 H         1 UNK         0.0600 
    144 H144        0.5464  -20.6021  -46.4279 H         1 UNK         0.3000 
    145 H145       -0.5153  -22.8978  -43.8774 H         1 UNK         0.0600 
    146 H146        1.8659  -22.6145  -43.2655 H         1 UNK         0.0600 
    147 H147        1.7308  -23.6493  -44.6794 H         1 UNK         0.0600 
    148 H148        2.2361  -21.9738  -44.8644 H         1 UNK         0.0600 
    149 H149        0.7415  -20.3582  -43.6918 H         1 UNK         0.3000 
    150 H150       -2.2521  -18.3599  -43.6902 H         1 UNK         0.0600 
    151 H151       -1.8643  -19.1313  -41.3607 H         1 UNK         0.0600 
    152 H152       -1.1110  -17.5648  -41.6267 H         1 UNK         0.0600 
    153 H153       -0.1237  -19.0240  -41.5876 H         1 UNK         0.0600 
    154 H154        0.4536  -17.5610  -43.5818 H         1 UNK         0.3000 
    155 H155        1.0641  -17.3414  -47.1139 H         1 UNK         0.0600 
    156 H156        0.6132  -15.3012  -44.8728 H         1 UNK         0.0600 
    157 H157       -0.0590  -15.2520  -46.4966 H         1 UNK         0.0600 
    158 H158        1.6653  -15.0437  -46.2551 H         1 UNK         0.0600 
    159 H159        2.6270  -16.8776  -44.7277 H         1 UNK         0.3000 
    160 H160        4.1657  -20.1023  -44.6593 H         1 UNK         0.0600 
    161 H161        5.2727  -17.3548  -45.4606 H         1 UNK         0.0600 
    162 H162        5.4029  -18.8238  -46.4227 H         1 UNK         0.0600 
    163 H163        6.2103  -18.7245  -44.8668 H         1 UNK         0.0600 
    164 H164        4.5760  -17.7315  -43.1185 H         1 UNK         0.3000 
    165 H165        2.0587  -18.2720  -40.6759 H         1 UNK         0.0600 
    166 H166        4.0089  -18.2496  -39.1485 H         1 UNK         0.0600 
    167 H167        3.9059  -19.7995  -39.9676 H         1 UNK         0.0600 
    168 H168        5.1002  -18.6156  -40.4854 H         1 UNK         0.0600 
    169 H169        4.1239  -16.3427  -40.8234 H         1 UNK         0.3000 
    170 H170        3.6357  -14.1969  -41.2431 H         1 UNK         0.0600 
    171 H171        4.6377  -14.8369  -43.4193 H         1 UNK         0.0600 
    172 H172        3.1375  -14.4698  -44.2592 H         1 UNK         0.0600 
    173 H173        4.0614  -13.1789  -43.4970 H         1 UNK         0.0600 
    174 H174        1.5213  -13.1317  -42.9199 H         1 UNK         0.3000 
    175 H175       -0.8481  -12.6340  -40.3881 H         1 UNK         0.0600 
    176 H176        1.1258  -10.4116  -41.1453 H         1 UNK         0.0600 
    177 H177       -0.5146  -10.1753  -40.5399 H         1 UNK         0.0600 
    178 H178        0.7090  -10.8930  -39.5050 H         1 UNK         0.0600 
    179 H179       -0.3258  -11.2979  -42.9014 H         1 UNK         0.3000 
    180 H180       -1.4650  -13.7413  -45.0484 H         1 UNK         0.0600 
    181 H181       -3.3300  -11.4796  -44.1587 H         1 UNK         0.0600 
    182 H182       -3.7507  -13.1876  -44.1972 H         1 UNK         0.0600 
    183 H183       -3.4012  -12.3437  -45.6957 H         1 UNK         0.0600 
    184 H184       -1.3334  -11.0238  -45.6110 H         1 UNK         0.3000 
    185 H185        0.3812  -10.2554  -46.8335 H         1 UNK         0.0600 
    186 H186        2.1431   -8.7777  -45.8564 H         1 UNK         0.0600 
    187 H187        0.9131   -9.1475  -44.6585 H         1 UNK         0.0600 
    188 H188        2.4681   -9.9683  -44.5961 H         1 UNK         0.0600 
    189 H189        3.1610  -11.0822  -46.6571 H         1 UNK         0.3000 
    190 H190       -2.0553  -19.7151  -46.8564 H         1 UNK         0.3000 
    191 H191       -4.4350  -19.8860  -48.3649 H         1 UNK         0.0600 
    192 H192       -5.4722  -18.7966  -46.3755 H         1 UNK         0.0600 
    193 H193       -3.9407  -18.0399  -46.7897 H         1 UNK         0.0600 
    194 H194       -4.0366  -19.1430  -45.4194 H         1 UNK         0.0600 
    195 H195       -3.3928  -21.7604  -45.4812 H         1 UNK         0.3000 
    196 H196       -5.7469  -23.3300  -45.2057 H         1 UNK         0.0600 
    197 H197       -2.8539  -23.9779  -44.4284 H         1 UNK         0.0600 
    198 H198       -4.0335  -23.1380  -43.4256 H         1 UNK         0.0600 
    199 H199       -4.2833  -24.8248  -43.8514 H         1 UNK         0.0600 
    200 H200       -2.7350  -23.9113  -47.0893 H         1 UNK         0.3000 
    201 H201       -3.5051  -26.4296  -48.1755 H         1 UNK         0.0600 
    202 H202       -1.1599  -25.6060  -48.1674 H         1 UNK         0.0600 
    203 H203       -1.5815  -24.3268  -49.3023 H         1 UNK         0.0600 
    204 H204       -1.6749  -26.0112  -49.7978 H         1 UNK         0.0600 
    205 H205       -3.9514  -23.0804  -49.3934 H         1 UNK         0.3000 
    206 H206       -5.2032  -23.7397  -51.8318 H         1 UNK         0.0600 
    207 H207       -4.2457  -21.5076  -51.3227 H         1 UNK         0.0600 
    208 H208       -5.9179  -21.3676  -51.8430 H         1 UNK         0.0600 
    209 H209       -5.5143  -21.2130  -50.1378 H         1 UNK         0.0600 
    210 H210       -6.6191  -23.1913  -48.6011 H         1 UNK         0.3000 
    211 H211       -9.3512  -23.5356  -49.3671 H         1 UNK         0.0600 
    212 H212       -9.7044  -23.8557  -46.9184 H         1 UNK         0.0600 
    213 H213       -8.6656  -22.4730  -47.2317 H         1 UNK         0.0600 
    214 H214       -7.9680  -23.9897  -46.6690 H         1 UNK         0.0600 
    215 H215       -6.7895  -25.8452  -48.4892 H         1 UNK         0.3000 
    216 H216       -8.4929  -28.1490  -48.3192 H         1 UNK         0.0600 
    217 H217       -5.4584  -27.9639  -48.6706 H         1 UNK         0.0600 
    218 H218       -6.3628  -29.4092  -48.2502 H         1 UNK         0.0600 
    219 H219       -6.3285  -28.0457  -47.1430 H         1 UNK         0.0600 
    220 H220       -6.1046  -27.1658  -50.8746 H         1 UNK         0.3000 
    221 H221       -7.7574  -28.2145  -53.0146 H         1 UNK         0.0600 
    222 H222       -7.0227  -30.4105  -52.1209 H         1 UNK         0.0600 
    223 H223       -5.3399  -29.8877  -52.1273 H         1 UNK         0.0600 
    224 H224       -6.2060  -30.1211  -53.6402 H         1 UNK         0.0600 
    225 H225       -4.8634  -26.5427  -51.9781 H         1 UNK         0.3000 
    226 H226       -3.6422  -26.5300  -54.6458 H         1 UNK         0.0600 
    227 H227       -2.7135  -25.1355  -52.0880 H         1 UNK         0.0600 
    228 H228       -2.3425  -26.8126  -52.4758 H         1 UNK         0.0600 
    229 H229       -1.7540  -25.5289  -53.5097 H         1 UNK         0.0600 
    230 H230       -2.5419  -23.7596  -54.0276 H         1 UNK         0.3000 
    231 H231       -4.7542  -21.9209  -54.2983 H         1 UNK         0.0600 
    232 H232       -2.6962  -22.2450  -56.5685 H         1 UNK         0.0600 
    233 H233       -3.8767  -20.9453  -56.4432 H         1 UNK         0.0600 
    234 H234       -4.4189  -22.5960  -56.6990 H         1 UNK         0.0600 
    235 H235       -3.8821  -19.6618  -54.1853 H         1 UNK         0.3000 
    236 H236       -1.1594  -19.3033  -53.1960 H         1 UNK         0.0600 
    237 H237       -2.4437  -19.9369  -51.1207 H         1 UNK         0.0600 
    238 H238       -1.9681  -18.2511  -51.0695 H         1 UNK         0.0600 
    239 H239       -3.6314  -18.6832  -51.4606 H         1 UNK         0.0600 
    240 H240       -0.7320  -16.9521  -52.9119 H         1 UNK         0.3000 
    241 H241       -1.9498  -15.3709  -55.0137 H         1 UNK         0.0600 
    242 H242       -3.8511  -14.2907  -51.6489 H         1 UNK         0.3800 
    243 H243       -2.9767  -15.7951  -51.7587 H         1 UNK         0.3800 
    244 H244       -0.2413  -13.6323  -54.3290 H         1 UNK         0.0800 
    245 H245        0.3928  -15.1444  -54.8763 H         1 UNK         0.0800 
    246 H246        1.9891  -16.4030  -53.9068 H         1 UNK         0.0800 
    247 H247        3.0322  -15.1268  -53.3262 H         1 UNK         0.0800 
@<TRIPOS>BOND
     1    1    2 1    
     2    1  127 1    
     3    1  128 1    
     4    1  129 1    
     5    2    3 2    
     6    2    4 am   BACKBONE|DICT|INTERRES
     7    4    5 1    
     8    4  130 1    
     9    5    6 1    
    10    5   65 1    
    11    5  131 1    
    12    6    7 1    
    13    6  132 1    
    14    6  133 1    
    15    7    8 1    
    16    8    9 1    
    17    8  134 1    
    18    8  135 1    
    19    9   10 ar   
    20    9   14 ar   
    21   10   11 ar   
    22   10  136 1    
    23   11   12 ar   
    24   11  126 1    
    25   12   13 ar   
    26   12  137 1    
    27   13   14 ar   
    28   13   15 1    
    29   14  138 1    
    30   15   16 1    
    31   15  139 1    
    32   15  140 1    
    33   16   17 1    
    34   17   18 1    
    35   17  141 1    
    36   17  142 1    
    37   18   19 1    
    38   18   67 1    
    39   18  143 1    
    40   19   20 am   BACKBONE|DICT|INTERRES
    41   19  144 1    
    42   20   21 2    
    43   20   22 1    
    44   22   23 1    
    45   22   24 1    
    46   22  145 1    
    47   23  146 1    
    48   23  147 1    
    49   23  148 1    
    50   24   25 am   BACKBONE|DICT|INTERRES
    51   24  149 1    
    52   25   26 2    
    53   25   27 1    
    54   27   28 1    
    55   27   29 1    
    56   27  150 1    
    57   28  151 1    
    58   28  152 1    
    59   28  153 1    
    60   29   30 am   BACKBONE|DICT|INTERRES
    61   29  154 1    
    62   30   31 2    
    63   30   32 1    
    64   32   33 1    
    65   32   34 1    
    66   32  155 1    
    67   33  156 1    
    68   33  157 1    
    69   33  158 1    
    70   34   35 am   BACKBONE|DICT|INTERRES
    71   34  159 1    
    72   35   36 2    
    73   35   37 1    
    74   37   38 1    
    75   37   39 1    
    76   37  160 1    
    77   38  161 1    
    78   38  162 1    
    79   38  163 1    
    80   39   40 am   BACKBONE|DICT|INTERRES
    81   39  164 1    
    82   40   41 2    
    83   40   42 1    
    84   42   43 1    
    85   42   44 1    
    86   42  165 1    
    87   43  166 1    
    88   43  167 1    
    89   43  168 1    
    90   44   45 am   BACKBONE|DICT|INTERRES
    91   44  169 1    
    92   45   46 2    
    93   45   47 1    
    94   47   48 1    
    95   47   49 1    
    96   47  170 1    
    97   48  171 1    
    98   48  172 1    
    99   48  173 1    
   100   49   50 am   BACKBONE|DICT|INTERRES
   101   49  174 1    
   102   50   51 2    
   103   50   52 1    
   104   52   53 1    
   105   52   54 1    
   106   52  175 1    
   107   53  176 1    
   108   53  177 1    
   109   53  178 1    
   110   54   55 am   BACKBONE|DICT|INTERRES
   111   54  179 1    
   112   55   56 2    
   113   55   57 1    
   114   57   58 1    
   115   57   59 1    
   116   57  180 1    
   117   58  181 1    
   118   58  182 1    
   119   58  183 1    
   120   59   60 am   BACKBONE|DICT|INTERRES
   121   59  184 1    
   122   60   61 2    
   123   60   62 1    
   124   62   63 1    
   125   62   64 1    
   126   62  185 1    
   127   63  186 1    
   128   63  187 1    
   129   63  188 1    
   130   64   65 am   BACKBONE|DICT|INTERRES
   131   64  189 1    
   132   65   66 2    
   133   67   68 2    
   134   67   69 am   BACKBONE|DICT|INTERRES
   135   69   70 1    
   136   69  190 1    
   137   70   71 1    
   138   70   72 1    
   139   70  191 1    
   140   71  192 1    
   141   71  193 1    
   142   71  194 1    
   143   72   73 2    
   144   72   74 am   BACKBONE|DICT|INTERRES
   145   74   75 1    
   146   74  195 1    
   147   75   76 1    
   148   75   77 1    
   149   75  196 1    
   150   76  197 1    
   151   76  198 1    
   152   76  199 1    
   153   77   78 2    
   154   77   79 am   BACKBONE|DICT|INTERRES
   155   79   80 1    
   156   79  200 1    
   157   80   81 1    
   158   80   82 1    
   159   80  201 1    
   160   81  202 1    
   161   81  203 1    
   162   81  204 1    
   163   82   83 2    
   164   82   84 am   BACKBONE|DICT|INTERRES
   165   84   85 1    
   166   84  205 1    
   167   85   86 1    
   168   85   87 1    
   169   85  206 1    
   170   86  207 1    
   171   86  208 1    
   172   86  209 1    
   173   87   88 2    
   174   87   89 am   BACKBONE|DICT|INTERRES
   175   89   90 1    
   176   89  210 1    
   177   90   91 1    
   178   90   92 1    
   179   90  211 1    
   180   91  212 1    
   181   91  213 1    
   182   91  214 1    
   183   92   93 2    
   184   92   94 am   BACKBONE|DICT|INTERRES
   185   94   95 1    
   186   94  215 1    
   187   95   96 1    
   188   95   97 1    
   189   95  216 1    
   190   96  217 1    
   191   96  218 1    
   192   96  219 1    
   193   97   98 2    
   194   97   99 am   BACKBONE|DICT|INTERRES
   195   99  100 1    
   196   99  220 1    
   197  100  101 1    
   198  100  102 1    
   199  100  221 1    
   200  101  222 1    
   201  101  223 1    
   202  101  224 1    
   203  102  103 2    
   204  102  104 am   BACKBONE|DICT|INTERRES
   205  104  105 1    
   206  104  225 1    
   207  105  106 1    
   208  105  107 1    
   209  105  226 1    
   210  106  227 1    
   211  106  228 1    
   212  106  229 1    
   213  107  108 2    
   214  107  109 am   BACKBONE|DICT|INTERRES
   215  109  110 1    
   216  109  230 1    
   217  110  111 1    
   218  110  112 1    
   219  110  231 1    
   220  111  232 1    
   221  111  233 1    
   222  111  234 1    
   223  112  113 2    
   224  112  114 am   BACKBONE|DICT|INTERRES
   225  114  115 1    
   226  114  235 1    
   227  115  116 1    
   228  115  117 1    
   229  115  236 1    
   230  116  237 1    
   231  116  238 1    
   232  116  239 1    
   233  117  118 2    
   234  117  119 am   BACKBONE|DICT|INTERRES
   235  119  120 1    
   236  119  240 1    
   237  120  121 1    
   238  120  124 1    
   239  120  241 1    
   240  121  122 am   BACKBONE|DICT|INTERRES
   241  121  123 2    
   242  122  242 1    
   243  122  243 1    
   244  124  125 1    
   245  124  244 1    
   246  124  245 1    
   247  125  126 1    
   248  126  246 1    
   249  126  247 1    
@<TRIPOS>SUBSTRUCTURE
     1 UNK         1 GROUP             0       ****    0 ROOT    
