@<TRIPOS>MOLECULE
3R540
247   249    1
SMALL
USER_CHARGES


@<TRIPOS>ATOM
      1 CA         -2.3908  -14.0092  -48.2117 C.3       0 UNK        -0.1800 
      2 C          -1.5171  -12.7880  -47.9606 C.2       0 UNK         0.5000 
      3 O          -1.9893  -11.7989  -47.3991 O.2       0 UNK        -0.5000 
      4 N          -0.2487  -12.8569  -48.3795 N.am      1 UNK        -0.5000 
      5 CA          0.7724  -11.8244  -48.1659 C.3       1 UNK         0.1400 
      6 C6          1.9187  -11.9392  -49.2060 C.3       23 UNK        -0.0398 
      7 S7          1.3151  -11.8106  -50.9247 S.3       23 UNK        -0.2404 
      8 C8          2.0241  -13.3011  -51.6963 C.3       23 UNK        -0.0205 
      9 C9          1.4632  -14.5931  -51.1174 C.ar      23 UNK        -0.0193 
     10 C10         0.1290  -14.9422  -51.3360 C.ar      23 UNK        -0.1150 
     11 C11        -0.3825  -16.1425  -50.8368 C.ar      23 UNK        -0.0193 
     12 C12         0.4552  -17.0001  -50.1156 C.ar      23 UNK        -0.1150 
     13 C13         1.7974  -16.6657  -49.8852 C.ar      23 UNK        -0.0193 
     14 C14         2.2871  -15.4572  -50.3913 C.ar      23 UNK        -0.1150 
     15 C15         2.7697  -17.5809  -49.1360 C.3       23 UNK        -0.0205 
     16 S16         2.0271  -18.6871  -47.8898 S.3       23 UNK        -0.2404 
     17 C17         1.7186  -20.2057  -48.8634 C.3       23 UNK        -0.0398 
     18 CA          0.5113  -21.0375  -48.3596 C.3       11 UNK         0.1400 
     19 N           0.6218  -21.3422  -46.9306 N.am      11 UNK        -0.5000 
     20 C          -0.1813  -22.1421  -46.2186 C.2       10 UNK         0.5000 
     21 O          -1.0939  -22.8057  -46.7112 O.2       10 UNK        -0.5000 
     22 CA          0.0242  -22.1487  -44.6893 C.3       10 UNK         0.1400 
     23 CB          1.4942  -21.9228  -44.2819 C.3       10 UNK        -0.1800 
     24 N          -0.8414  -21.1867  -43.9928 N.am      10 UNK        -0.5000 
     25 C          -0.9764  -19.8757  -44.2445 C.2       9 UNK         0.5000 
     26 O          -0.4092  -19.2842  -45.1611 O.2       9 UNK        -0.5000 
     27 CA         -1.8824  -19.0663  -43.3099 C.3       9 UNK         0.1400 
     28 CB         -3.2515  -19.7228  -43.0360 C.3       9 UNK        -0.1800 
     29 N          -1.1545  -18.6922  -42.0997 N.am      9 UNK        -0.5000 
     30 C          -0.8529  -19.4336  -41.0274 C.2       8 UNK         0.5000 
     31 O          -1.2356  -20.5916  -40.8493 O.2       8 UNK        -0.5000 
     32 CA          0.0578  -18.7331  -39.9991 C.3       8 UNK         0.1400 
     33 CB          0.1962  -19.5055  -38.6699 C.3       8 UNK        -0.1800 
     34 N           1.3677  -18.4121  -40.5753 N.am      8 UNK        -0.5000 
     35 C           2.3078  -19.2713  -40.9978 C.2       7 UNK         0.5000 
     36 O           2.2159  -20.4946  -40.8928 O.2       7 UNK        -0.5000 
     37 CA          3.5734  -18.6812  -41.6551 C.3       7 UNK         0.1400 
     38 CB          3.6735  -19.1226  -43.1230 C.3       7 UNK        -0.1800 
     39 N           3.6605  -17.2196  -41.5933 N.am      7 UNK        -0.5000 
     40 C           4.0325  -16.5191  -40.5133 C.2       6 UNK         0.5000 
     41 O           4.3341  -17.0347  -39.4365 O.2       6 UNK        -0.5000 
     42 CA          4.0579  -14.9842  -40.6526 C.3       6 UNK         0.1400 
     43 CB          5.3840  -14.5189  -41.2730 C.3       6 UNK        -0.1800 
     44 N           2.9442  -14.4589  -41.4438 N.am      6 UNK        -0.5000 
     45 C           1.6555  -14.5077  -41.0772 C.2       5 UNK         0.5000 
     46 O           1.2633  -14.9791  -40.0093 O.2       5 UNK        -0.5000 
     47 CA          0.6266  -13.9989  -42.1053 C.3       5 UNK         0.1400 
     48 CB          0.5542  -12.4648  -42.1116 C.3       5 UNK        -0.1800 
     49 N           0.9077  -14.4898  -43.4551 N.am      5 UNK        -0.5000 
     50 C           0.8970  -15.7856  -43.7978 C.2       4 UNK         0.5000 
     51 O           0.5841  -16.6885  -43.0238 O.2       4 UNK        -0.5000 
     52 CA          1.3445  -16.1304  -45.2258 C.3       4 UNK         0.1400 
     53 CB          0.1652  -15.9980  -46.1982 C.3       4 UNK        -0.1800 
     54 N           2.4544  -15.2850  -45.6668 N.am      4 UNK        -0.5000 
     55 C           3.7055  -15.3768  -45.1934 C.2       3 UNK         0.5000 
     56 O           4.0573  -16.2012  -44.3520 O.2       3 UNK        -0.5000 
     57 CA          4.7259  -14.3446  -45.7096 C.3       3 UNK         0.1400 
     58 CB          5.2690  -14.7655  -47.0838 C.3       3 UNK        -0.1800 
     59 N           4.1699  -12.9950  -45.8052 N.am      3 UNK        -0.5000 
     60 C           3.7123  -12.2768  -44.7692 C.2       2 UNK         0.5000 
     61 O           3.7922  -12.6423  -43.5967 O.2       2 UNK        -0.5000 
     62 CA          2.9845  -10.9582  -45.1094 C.3       2 UNK         0.1400 
     63 CB          3.9725   -9.7827  -45.1041 C.3       2 UNK        -0.1800 
     64 N           2.2726  -10.9885  -46.3951 N.am      2 UNK        -0.5000 
     65 C           1.3209  -11.8770  -46.7195 C.2       1 UNK         0.5000 
     66 O           0.9285  -12.7418  -45.9321 O.2       1 UNK        -0.5000 
     67 C          -0.8267  -20.3722  -48.7505 C.2       11 UNK         0.5000 
     68 O          -1.2296  -20.4975  -49.9032 O.2       11 UNK        -0.5000 
     69 N          -1.4869  -19.6863  -47.8070 N.am      12 UNK        -0.5000 
     70 CA         -2.8206  -19.1156  -47.9971 C.3       12 UNK         0.1400 
     71 CB         -2.9257  -17.7928  -47.2266 C.3       12 UNK        -0.1800 
     72 C          -3.9538  -20.0780  -47.5949 C.2       12 UNK         0.5000 
     73 O          -5.1089  -19.7929  -47.9161 O.2       12 UNK        -0.5000 
     74 N          -3.6272  -21.1816  -46.9054 N.am      13 UNK        -0.5000 
     75 CA         -4.5664  -22.2610  -46.6022 C.3       13 UNK         0.1400 
     76 CB         -4.1951  -22.9391  -45.2725 C.3       13 UNK        -0.1800 
     77 C          -4.5866  -23.2592  -47.7691 C.2       13 UNK         0.5000 
     78 O          -5.6454  -23.4742  -48.3571 O.2       13 UNK        -0.5000 
     79 N          -3.4034  -23.8041  -48.0959 N.am      14 UNK        -0.5000 
     80 CA         -3.0386  -24.5519  -49.3062 C.3       14 UNK         0.1400 
     81 CB         -2.6261  -23.5488  -50.3970 C.3       14 UNK        -0.1800 
     82 C          -4.0633  -25.5930  -49.8069 C.2       14 UNK         0.5000 
     83 O          -4.3471  -25.6435  -51.0046 O.2       14 UNK        -0.5000 
     84 N          -4.5986  -26.4013  -48.8794 N.am      15 UNK        -0.5000 
     85 CA         -5.6049  -27.4471  -49.1110 C.3       15 UNK         0.1400 
     86 CB         -5.0040  -28.6049  -49.9373 C.3       15 UNK        -0.1800 
     87 C          -6.9070  -26.8826  -49.7207 C.2       15 UNK         0.5000 
     88 O          -7.3666  -27.3580  -50.7602 O.2       15 UNK        -0.5000 
     89 N          -7.4499  -25.8464  -49.0642 N.am      16 UNK        -0.5000 
     90 CA         -8.5890  -25.0243  -49.4912 C.3       16 UNK         0.1400 
     91 CB         -9.8874  -25.8540  -49.5846 C.3       16 UNK        -0.1800 
     92 C          -8.2627  -24.2387  -50.7775 C.2       16 UNK         0.5000 
     93 O          -9.0302  -24.2591  -51.7406 O.2       16 UNK        -0.5000 
     94 N          -7.0908  -23.5902  -50.7588 N.am      17 UNK        -0.5000 
     95 CA         -6.4548  -22.7671  -51.7922 C.3       17 UNK         0.1400 
     96 CB         -7.3482  -21.5721  -52.1801 C.3       17 UNK        -0.1800 
     97 C          -5.9623  -23.5218  -53.0427 C.2       17 UNK         0.5000 
     98 O          -5.2209  -22.9352  -53.8309 O.2       17 UNK        -0.5000 
     99 N          -6.3510  -24.7906  -53.2159 N.am      18 UNK        -0.5000 
    100 CA        -6.1151  -25.6083  -54.4064 C.3       18 UNK         0.1400 
    101 CB        -6.7748  -26.9799  -54.2013 C.3       18 UNK        -0.1800 
    102 C         -4.6371  -25.7834  -54.8040 C.2       18 UNK         0.5000 
    103 O         -4.3472  -25.8833  -55.9972 O.2       18 UNK        -0.5000 
    104 N         -3.7330  -25.8204  -53.8170 N.am      19 UNK        -0.5000 
    105 CA        -2.3039  -26.0474  -54.0344 C.3       19 UNK         0.1400 
    106 CB        -1.7166  -26.7629  -52.8060 C.3       19 UNK        -0.1800 
    107 C         -1.5071  -24.7680  -54.3637 C.2       19 UNK         0.5000 
    108 O         -0.3511  -24.8927  -54.7716 O.2       19 UNK        -0.5000 
    109 N         -2.0980  -23.5776  -54.1749 N.am      20 UNK        -0.5000 
    110 CA        -1.4052  -22.2895  -54.3284 C.3       20 UNK         0.1400 
    111 CB        -1.1355  -21.6997  -52.9359 C.3       20 UNK        -0.1800 
    112 C         -2.1591  -21.2653  -55.1938 C.2       20 UNK         0.5000 
    113 O         -1.5384  -20.2982  -55.6360 O.2       20 UNK        -0.5000 
    114 N         -3.4675  -21.4683  -55.4034 N.am      21 UNK        -0.5000 
    115 CA        -4.4236  -20.5500  -56.0353 C.3       21 UNK         0.1400 
    116 CB        -4.0289  -20.2100  -57.4882 C.3       21 UNK        -0.1800 
    117 C         -4.7295  -19.3002  -55.1780 C.2       21 UNK         0.5000 
    118 O         -5.2429  -18.3095  -55.7007 O.2       21 UNK        -0.5000 
    119 N         -4.4523  -19.3802  -53.8725 N.am      22 UNK        -0.5000 
    120 CA        -4.7753  -18.3832  -52.8481 C.3       22 UNK         0.1400 
    121 C         -4.8056  -19.0364  -51.4415 C.2       22 UNK         0.5000 
    122 N         -5.4216  -18.3945  -50.4583 N.am      22 UNK        -0.7600 
    123 O         -4.2852  -20.1282  -51.2319 O.2       22 UNK        -0.5000 
    124 C124       -3.8877  -17.1090  -52.9178 C.3       23 UNK        -0.0398 
    125 S125       -2.0956  -17.3716  -52.6435 S.3       23 UNK        -0.2404 
    126 C126       -1.8455  -16.4914  -51.0681 C.3       23 UNK        -0.0205 
    127 H127       -3.1615  -13.7783  -48.9467 H         1 UNK         0.0600 
    128 H128       -1.8049  -14.8503  -48.5810 H         1 UNK         0.0600 
    129 H129       -2.8779  -14.3202  -47.2875 H         1 UNK         0.0600 
    130 H130        0.0727  -13.6934  -48.8445 H         1 UNK         0.3000 
    131 H131        0.3021  -10.8466  -48.2901 H         1 UNK         0.0600 
    132 H132        2.4650  -12.8738  -49.0720 H         1 UNK         0.0800 
    133 H133        2.6503  -11.1413  -49.0725 H         1 UNK         0.0800 
    134 H134        3.1107  -13.2699  -51.6012 H         1 UNK         0.0800 
    135 H135        1.8132  -13.2745  -52.7663 H         1 UNK         0.0800 
    136 H136       -0.5110  -14.2780  -51.9001 H         1 UNK         0.1150 
    137 H137        0.0535  -17.9280  -49.7427 H         1 UNK         0.1150 
    138 H138        3.3240  -15.1949  -50.2332 H         1 UNK         0.1150 
    139 H139        3.3356  -18.1687  -49.8597 H         1 UNK         0.0800 
    140 H140        3.5007  -16.9656  -48.6099 H         1 UNK         0.0800 
    141 H141        1.5955  -19.9511  -49.9180 H         1 UNK         0.0800 
    142 H142        2.6213  -20.8158  -48.8141 H         1 UNK         0.0800 
    143 H143        0.5344  -21.9956  -48.8833 H         1 UNK         0.0600 
    144 H144        1.2794  -20.7669  -46.4229 H         1 UNK         0.3000 
    145 H145       -0.2673  -23.1410  -44.3420 H         1 UNK         0.0600 
    146 H146        1.6249  -22.0579  -43.2081 H         1 UNK         0.0600 
    147 H147        2.1557  -22.6324  -44.7803 H         1 UNK         0.0600 
    148 H148        1.8362  -20.9184  -44.5294 H         1 UNK         0.0600 
    149 H149       -1.3376  -21.5529  -43.1914 H         1 UNK         0.3000 
    150 H150       -2.0856  -18.1227  -43.8185 H         1 UNK         0.0600 
    151 H151       -3.8008  -19.8596  -43.9682 H         1 UNK         0.0600 
    152 H152       -3.8639  -19.0930  -42.3909 H         1 UNK         0.0600 
    153 H153       -3.1682  -20.7006  -42.5627 H         1 UNK         0.0600 
    154 H154       -0.6522  -17.8118  -42.1965 H         1 UNK         0.3000 
    155 H155       -0.4128  -17.7764  -39.7665 H         1 UNK         0.0600 
    156 H156       -0.7777  -19.6352  -38.1966 H         1 UNK         0.0600 
    157 H157        0.8307  -18.9666  -37.9663 H         1 UNK         0.0600 
    158 H158        0.6209  -20.4994  -38.8113 H         1 UNK         0.0600 
    159 H159        1.5349  -17.4301  -40.7507 H         1 UNK         0.3000 
    160 H160        4.4318  -19.0978  -41.1242 H         1 UNK         0.0600 
    161 H161        2.8257  -18.7636  -43.7078 H         1 UNK         0.0600 
    162 H162        3.6985  -20.2095  -43.2023 H         1 UNK         0.0600 
    163 H163        4.5862  -18.7493  -43.5873 H         1 UNK         0.0600 
    164 H164        3.4907  -16.7244  -42.4627 H         1 UNK         0.3000 
    165 H165        3.9854  -14.5594  -39.6493 H         1 UNK         0.0600 
    166 H166        6.2353  -14.8795  -40.6943 H         1 UNK         0.0600 
    167 H167        5.5007  -14.8844  -42.2939 H         1 UNK         0.0600 
    168 H168        5.4456  -13.4308  -41.2998 H         1 UNK         0.0600 
    169 H169        3.1844  -14.0111  -42.3236 H         1 UNK         0.3000 
    170 H170       -0.3539  -14.3809  -41.8135 H         1 UNK         0.0600 
    171 H171        0.2486  -12.0881  -41.1349 H         1 UNK         0.0600 
    172 H172        1.5174  -12.0137  -42.3464 H         1 UNK         0.0600 
    173 H173       -0.1716  -12.1058  -42.8417 H         1 UNK         0.0600 
    174 H174        1.1280  -13.8036  -44.1688 H         1 UNK         0.3000 
    175 H175        1.6776  -17.1702  -45.2343 H         1 UNK         0.0600 
    176 H176       -0.2794  -15.0044  -46.1736 H         1 UNK         0.0600 
    177 H177        0.4621  -16.2096  -47.2242 H         1 UNK         0.0600 
    178 H178       -0.6165  -16.7064  -45.9299 H         1 UNK         0.0600 
    179 H179        2.2145  -14.5175  -46.2776 H         1 UNK         0.3000 
    180 H180        5.5584  -14.3175  -45.0032 H         1 UNK         0.0600 
    181 H181        4.4887  -14.7586  -47.8457 H         1 UNK         0.0600 
    182 H182        6.0656  -14.0986  -47.4137 H         1 UNK         0.0600 
    183 H183        5.6844  -15.7736  -47.0478 H         1 UNK         0.0600 
    184 H184        4.0794  -12.6061  -46.7309 H         1 UNK         0.3000 
    185 H185        2.2425  -10.7833  -44.3283 H         1 UNK         0.0600 
    186 H186        3.4574   -8.8329  -45.2492 H         1 UNK         0.0600 
    187 H187        4.5007   -9.7213  -44.1515 H         1 UNK         0.0600 
    188 H188        4.7226   -9.8828  -45.8896 H         1 UNK         0.0600 
    189 H189        2.5438  -10.2860  -47.0678 H         1 UNK         0.3000 
    190 H190       -1.0546  -19.5681  -46.8931 H         1 UNK         0.3000 
    191 H191       -2.9681  -18.8911  -49.0533 H         1 UNK         0.0600 
    192 H192       -3.9092  -17.3390  -47.3552 H         1 UNK         0.0600 
    193 H193       -2.1934  -17.0755  -47.5937 H         1 UNK         0.0600 
    194 H194       -2.7648  -17.9327  -46.1583 H         1 UNK         0.0600 
    195 H195       -2.6476  -21.3829  -46.7528 H         1 UNK         0.3000 
    196 H196       -5.5736  -21.8534  -46.4908 H         1 UNK         0.0600 
    197 H197       -4.8894  -23.7489  -45.0453 H         1 UNK         0.0600 
    198 H198       -4.2447  -22.2324  -44.4452 H         1 UNK         0.0600 
    199 H199       -3.1927  -23.3651  -45.2848 H         1 UNK         0.0600 
    200 H200       -2.6073  -23.5466  -47.5166 H         1 UNK         0.3000 
    201 H201       -2.1494  -25.1293  -49.0500 H         1 UNK         0.0600 
    202 H202       -1.7261  -23.0162  -50.0972 H         1 UNK         0.0600 
    203 H203       -3.4039  -22.8094  -50.5841 H         1 UNK         0.0600 
    204 H204       -2.3979  -24.0338  -51.3440 H         1 UNK         0.0600 
    205 H205       -4.3153  -26.2662  -47.9192 H         1 UNK         0.3000 
    206 H206       -5.8714  -27.8469  -48.1316 H         1 UNK         0.0600 
    207 H207       -4.1018  -28.9971  -49.4681 H         1 UNK         0.0600 
    208 H208       -5.7113  -29.4307  -50.0214 H         1 UNK         0.0600 
    209 H209       -4.7460  -28.2934  -50.9502 H         1 UNK         0.0600 
    210 H210       -6.9456  -25.4898  -48.2635 H         1 UNK         0.3000 
    211 H211       -8.7361  -24.2780  -48.7090 H         1 UNK         0.0600 
    212 H212       -9.8520  -26.5837  -50.3938 H         1 UNK         0.0600 
    213 H213      -10.7463  -25.2080  -49.7696 H         1 UNK         0.0600 
    214 H214      -10.0795  -26.3912  -48.6560 H         1 UNK         0.0600 
    215 H215       -6.5458  -23.6600  -49.9000 H         1 UNK         0.3000 
    216 H216       -5.5597  -22.3679  -51.3190 H         1 UNK         0.0600 
    217 H217       -8.2719  -21.8908  -52.6629 H         1 UNK         0.0600 
    218 H218       -6.8336  -20.9103  -52.8771 H         1 UNK         0.0600 
    219 H219       -7.6101  -20.9777  -51.3048 H         1 UNK         0.0600 
    220 H220       -6.9249  -25.2059  -52.4955 H         1 UNK         0.3000 
    221 H221       -6.6163  -25.1108  -55.2388 H         1 UNK         0.0600 
    222 H222       -6.3258  -27.5166  -53.3642 H         1 UNK         0.0600 
    223 H223       -7.8417  -26.8803  -54.0004 H         1 UNK         0.0600 
    224 H224       -6.6671  -27.6046  -55.0889 H         1 UNK         0.0600 
    225 H225       -4.0471  -25.7303  -52.8518 H         1 UNK         0.3000 
    226 H226       -2.1814  -26.7216  -54.8849 H         1 UNK         0.0600 
    227 H227       -2.2604  -27.6823  -52.5883 H         1 UNK         0.0600 
    228 H228       -0.6742  -27.0356  -52.9748 H         1 UNK         0.0600 
    229 H229       -1.7478  -26.1393  -51.9144 H         1 UNK         0.0600 
    230 H230       -3.0586  -23.5571  -53.8573 H         1 UNK         0.3000 
    231 H231       -0.4409  -22.4333  -54.8195 H         1 UNK         0.0600 
    232 H232       -0.5253  -22.3706  -52.3314 H         1 UNK         0.0600 
    233 H233       -2.0636  -21.5091  -52.3959 H         1 UNK         0.0600 
    234 H234       -0.6016  -20.7507  -53.0031 H         1 UNK         0.0600 
    235 H235       -3.9151  -22.2590  -54.9484 H         1 UNK         0.3000 
    236 H236       -5.3622  -21.1040  -56.0823 H         1 UNK         0.0600 
    237 H237       -3.7977  -21.1111  -58.0561 H         1 UNK         0.0600 
    238 H238       -4.8456  -19.7036  -58.0037 H         1 UNK         0.0600 
    239 H239       -3.1624  -19.5504  -57.5331 H         1 UNK         0.0600 
    240 H240       -4.0565  -20.2337  -53.5006 H         1 UNK         0.3000 
    241 H241       -5.8045  -18.0754  -53.0427 H         1 UNK         0.0600 
    242 H242       -5.4528  -18.8438  -49.5479 H         1 UNK         0.3800 
    243 H243       -5.8846  -17.5104  -50.5952 H         1 UNK         0.3800 
    244 H244       -4.2629  -16.3640  -52.2155 H         1 UNK         0.0800 
    245 H245       -3.9986  -16.6463  -53.8988 H         1 UNK         0.0800 
    246 H246       -2.4332  -15.5724  -51.0605 H         1 UNK         0.0800 
    247 H247       -2.2233  -17.1025  -50.2498 H         1 UNK         0.0800 
@<TRIPOS>BOND
     1    1    2 1    
     2    1  127 1    
     3    1  128 1    
     4    1  129 1    
     5    2    3 2    
     6    2    4 am   BACKBONE|DICT|INTERRES
     7    4    5 1    
     8    4  130 1    
     9    5    6 1    
    10    5   65 1    
    11    5  131 1    
    12    6    7 1    
    13    6  132 1    
    14    6  133 1    
    15    7    8 1    
    16    8    9 1    
    17    8  134 1    
    18    8  135 1    
    19    9   10 ar   
    20    9   14 ar   
    21   10   11 ar   
    22   10  136 1    
    23   11   12 ar   
    24   11  126 1    
    25   12   13 ar   
    26   12  137 1    
    27   13   14 ar   
    28   13   15 1    
    29   14  138 1    
    30   15   16 1    
    31   15  139 1    
    32   15  140 1    
    33   16   17 1    
    34   17   18 1    
    35   17  141 1    
    36   17  142 1    
    37   18   19 1    
    38   18   67 1    
    39   18  143 1    
    40   19   20 am   BACKBONE|DICT|INTERRES
    41   19  144 1    
    42   20   21 2    
    43   20   22 1    
    44   22   23 1    
    45   22   24 1    
    46   22  145 1    
    47   23  146 1    
    48   23  147 1    
    49   23  148 1    
    50   24   25 am   BACKBONE|DICT|INTERRES
    51   24  149 1    
    52   25   26 2    
    53   25   27 1    
    54   27   28 1    
    55   27   29 1    
    56   27  150 1    
    57   28  151 1    
    58   28  152 1    
    59   28  153 1    
    60   29   30 am   BACKBONE|DICT|INTERRES
    61   29  154 1    
    62   30   31 2    
    63   30   32 1    
    64   32   33 1    
    65   32   34 1    
    66   32  155 1    
    67   33  156 1    
    68   33  157 1    
    69   33  158 1    
    70   34   35 am   BACKBONE|DICT|INTERRES
    71   34  159 1    
    72   35   36 2    
    73   35   37 1    
    74   37   38 1    
    75   37   39 1    
    76   37  160 1    
    77   38  161 1    
    78   38  162 1    
    79   38  163 1    
    80   39   40 am   BACKBONE|DICT|INTERRES
    81   39  164 1    
    82   40   41 2    
    83   40   42 1    
    84   42   43 1    
    85   42   44 1    
    86   42  165 1    
    87   43  166 1    
    88   43  167 1    
    89   43  168 1    
    90   44   45 am   BACKBONE|DICT|INTERRES
    91   44  169 1    
    92   45   46 2    
    93   45   47 1    
    94   47   48 1    
    95   47   49 1    
    96   47  170 1    
    97   48  171 1    
    98   48  172 1    
    99   48  173 1    
   100   49   50 am   BACKBONE|DICT|INTERRES
   101   49  174 1    
   102   50   51 2    
   103   50   52 1    
   104   52   53 1    
   105   52   54 1    
   106   52  175 1    
   107   53  176 1    
   108   53  177 1    
   109   53  178 1    
   110   54   55 am   BACKBONE|DICT|INTERRES
   111   54  179 1    
   112   55   56 2    
   113   55   57 1    
   114   57   58 1    
   115   57   59 1    
   116   57  180 1    
   117   58  181 1    
   118   58  182 1    
   119   58  183 1    
   120   59   60 am   BACKBONE|DICT|INTERRES
   121   59  184 1    
   122   60   61 2    
   123   60   62 1    
   124   62   63 1    
   125   62   64 1    
   126   62  185 1    
   127   63  186 1    
   128   63  187 1    
   129   63  188 1    
   130   64   65 am   BACKBONE|DICT|INTERRES
   131   64  189 1    
   132   65   66 2    
   133   67   68 2    
   134   67   69 am   BACKBONE|DICT|INTERRES
   135   69   70 1    
   136   69  190 1    
   137   70   71 1    
   138   70   72 1    
   139   70  191 1    
   140   71  192 1    
   141   71  193 1    
   142   71  194 1    
   143   72   73 2    
   144   72   74 am   BACKBONE|DICT|INTERRES
   145   74   75 1    
   146   74  195 1    
   147   75   76 1    
   148   75   77 1    
   149   75  196 1    
   150   76  197 1    
   151   76  198 1    
   152   76  199 1    
   153   77   78 2    
   154   77   79 am   BACKBONE|DICT|INTERRES
   155   79   80 1    
   156   79  200 1    
   157   80   81 1    
   158   80   82 1    
   159   80  201 1    
   160   81  202 1    
   161   81  203 1    
   162   81  204 1    
   163   82   83 2    
   164   82   84 am   BACKBONE|DICT|INTERRES
   165   84   85 1    
   166   84  205 1    
   167   85   86 1    
   168   85   87 1    
   169   85  206 1    
   170   86  207 1    
   171   86  208 1    
   172   86  209 1    
   173   87   88 2    
   174   87   89 am   BACKBONE|DICT|INTERRES
   175   89   90 1    
   176   89  210 1    
   177   90   91 1    
   178   90   92 1    
   179   90  211 1    
   180   91  212 1    
   181   91  213 1    
   182   91  214 1    
   183   92   93 2    
   184   92   94 am   BACKBONE|DICT|INTERRES
   185   94   95 1    
   186   94  215 1    
   187   95   96 1    
   188   95   97 1    
   189   95  216 1    
   190   96  217 1    
   191   96  218 1    
   192   96  219 1    
   193   97   98 2    
   194   97   99 am   BACKBONE|DICT|INTERRES
   195   99  100 1    
   196   99  220 1    
   197  100  101 1    
   198  100  102 1    
   199  100  221 1    
   200  101  222 1    
   201  101  223 1    
   202  101  224 1    
   203  102  103 2    
   204  102  104 am   BACKBONE|DICT|INTERRES
   205  104  105 1    
   206  104  225 1    
   207  105  106 1    
   208  105  107 1    
   209  105  226 1    
   210  106  227 1    
   211  106  228 1    
   212  106  229 1    
   213  107  108 2    
   214  107  109 am   BACKBONE|DICT|INTERRES
   215  109  110 1    
   216  109  230 1    
   217  110  111 1    
   218  110  112 1    
   219  110  231 1    
   220  111  232 1    
   221  111  233 1    
   222  111  234 1    
   223  112  113 2    
   224  112  114 am   BACKBONE|DICT|INTERRES
   225  114  115 1    
   226  114  235 1    
   227  115  116 1    
   228  115  117 1    
   229  115  236 1    
   230  116  237 1    
   231  116  238 1    
   232  116  239 1    
   233  117  118 2    
   234  117  119 am   BACKBONE|DICT|INTERRES
   235  119  120 1    
   236  119  240 1    
   237  120  121 1    
   238  120  124 1    
   239  120  241 1    
   240  121  122 am   BACKBONE|DICT|INTERRES
   241  121  123 2    
   242  122  242 1    
   243  122  243 1    
   244  124  125 1    
   245  124  244 1    
   246  124  245 1    
   247  125  126 1    
   248  126  246 1    
   249  126  247 1    
@<TRIPOS>SUBSTRUCTURE
     1 UNK         1 GROUP             0       ****    0 ROOT    
