@<TRIPOS>MOLECULE
3R540
247   249    1
SMALL
USER_CHARGES


@<TRIPOS>ATOM
      1 CA          1.9664  -12.0455  -50.8431 C.3       0 UNK        -0.1800 
      2 C           3.2212  -12.6313  -50.2119 C.2       0 UNK         0.5000 
      3 O           3.7241  -12.0814  -49.2330 O.2       0 UNK        -0.5000 
      4 N           3.7156  -13.7482  -50.7642 N.am      1 UNK        -0.5000 
      5 CA          4.9627  -14.4458  -50.4070 C.3       1 UNK         0.1400 
      6 C6          5.2177  -15.7146  -51.2743 C.3       23 UNK        -0.0398 
      7 S7          4.6912  -15.5587  -53.0216 S.3       23 UNK        -0.2404 
      8 C8          3.7146  -17.0857  -53.2938 C.3       23 UNK        -0.0205 
      9 C9          2.6285  -17.3569  -52.2521 C.ar      23 UNK        -0.0193 
     10 C10         1.8195  -16.3299  -51.7590 C.ar      23 UNK        -0.1150 
     11 C11         0.8613  -16.5831  -50.7740 C.ar      23 UNK        -0.0193 
     12 C12         0.6742  -17.8906  -50.3134 C.ar      23 UNK        -0.1150 
     13 C13         1.4477  -18.9366  -50.8269 C.ar      23 UNK        -0.0193 
     14 C14         2.4291  -18.6594  -51.7841 C.ar      23 UNK        -0.1150 
     15 C15         1.2134  -20.3736  -50.3823 C.3       23 UNK        -0.0205 
     16 S16         2.3213  -20.8615  -49.0203 S.3       23 UNK        -0.2404 
     17 C17         1.2587  -20.5803  -47.5635 C.3       23 UNK        -0.0398 
     18 CA          0.6918  -21.8834  -46.9397 C.3       11 UNK         0.1400 
     19 N           0.0530  -21.6207  -45.6471 N.am      11 UNK        -0.5000 
     20 C          -0.4559  -22.5401  -44.8150 C.2       10 UNK         0.5000 
     21 O          -0.3897  -23.7531  -45.0117 O.2       10 UNK        -0.5000 
     22 CA         -1.2093  -22.0132  -43.5779 C.3       10 UNK         0.1400 
     23 CB         -0.2309  -21.6263  -42.4592 C.3       10 UNK        -0.1800 
     24 N          -2.0835  -20.8784  -43.8869 N.am      10 UNK        -0.5000 
     25 C          -3.1560  -20.9492  -44.6894 C.2       9 UNK         0.5000 
     26 O          -3.5440  -21.9894  -45.2196 O.2       9 UNK        -0.5000 
     27 CA         -3.8875  -19.6305  -45.0018 C.3       9 UNK         0.1400 
     28 CB         -4.8219  -19.2241  -43.8536 C.3       9 UNK        -0.1800 
     29 N          -2.9640  -18.5371  -45.3010 N.am      9 UNK        -0.5000 
     30 C          -2.1199  -18.5234  -46.3420 C.2       8 UNK         0.5000 
     31 O          -2.0873  -19.3979  -47.2074 O.2       8 UNK        -0.5000 
     32 CA         -1.1120  -17.3639  -46.3997 C.3       8 UNK         0.1400 
     33 CB         -1.7685  -16.1034  -46.9804 C.3       8 UNK        -0.1800 
     34 N          -0.5336  -17.0643  -45.0893 N.am      8 UNK        -0.5000 
     35 C           0.2140  -17.9133  -44.3693 C.2       7 UNK         0.5000 
     36 O           0.5425  -19.0286  -44.7644 O.2       7 UNK        -0.5000 
     37 CA          0.6330  -17.4657  -42.9591 C.3       7 UNK         0.1400 
     38 CB          1.8938  -16.5923  -42.9987 C.3       7 UNK        -0.1800 
     39 N          -0.4408  -16.7494  -42.2776 N.am      7 UNK        -0.5000 
     40 C          -1.5766  -17.3214  -41.8556 C.2       6 UNK         0.5000 
     41 O          -1.8131  -18.5265  -41.9481 O.2       6 UNK        -0.5000 
     42 CA         -2.6417  -16.3700  -41.2822 C.3       6 UNK         0.1400 
     43 CB         -2.3672  -16.0759  -39.7999 C.3       6 UNK        -0.1800 
     44 N          -2.7099  -15.1093  -42.0256 N.am      6 UNK        -0.5000 
     45 C          -3.1403  -15.0085  -43.2911 C.2       5 UNK         0.5000 
     46 O          -3.5622  -15.9627  -43.9446 O.2       5 UNK        -0.5000 
     47 CA         -3.0411  -13.6188  -43.9470 C.3       5 UNK         0.1400 
     48 CB         -4.2688  -12.7661  -43.5941 C.3       5 UNK        -0.1800 
     49 N          -1.8199  -12.8910  -43.5843 N.am      5 UNK        -0.5000 
     50 C          -0.5840  -13.2649  -43.9400 C.2       4 UNK         0.5000 
     51 O          -0.3362  -14.2925  -44.5727 O.2       4 UNK        -0.5000 
     52 CA          0.5720  -12.3654  -43.4898 C.3       4 UNK         0.1400 
     53 CB          1.0408  -12.7522  -42.0748 C.3       4 UNK        -0.1800 
     54 N           1.6698  -12.4980  -44.4456 N.am      4 UNK        -0.5000 
     55 C           2.6731  -11.6267  -44.6013 C.2       3 UNK         0.5000 
     56 O           2.7839  -10.6091  -43.9147 O.2       3 UNK        -0.5000 
     57 CA          3.7074  -11.8853  -45.7222 C.3       3 UNK         0.1400 
     58 CB          5.1539  -11.6575  -45.2355 C.3       3 UNK        -0.1800 
     59 N           3.5964  -13.1709  -46.4252 N.am      3 UNK        -0.5000 
     60 C           3.8079  -14.4033  -45.9372 C.2       2 UNK         0.5000 
     61 O           4.0512  -14.6387  -44.7546 O.2       2 UNK        -0.5000 
     62 CA          3.7416  -15.5788  -46.9357 C.3       2 UNK         0.1400 
     63 CB          2.4134  -16.3338  -46.8050 C.3       2 UNK        -0.1800 
     64 N           3.8952  -15.1736  -48.3306 N.am      2 UNK        -0.5000 
     65 C           5.0502  -14.8269  -48.9136 C.2       1 UNK         0.5000 
     66 O           6.1370  -14.8066  -48.3348 O.2       1 UNK        -0.5000 
     67 C          -0.2686  -22.6214  -47.8957 C.2       11 UNK         0.5000 
     68 O           0.0987  -23.6564  -48.4526 O.2       11 UNK        -0.5000 
     69 N          -1.4980  -22.1048  -48.0246 N.am      12 UNK        -0.5000 
     70 CA         -2.5688  -22.7093  -48.8122 C.3       12 UNK         0.1400 
     71 CB         -3.7745  -21.7691  -48.8418 C.3       12 UNK        -0.1800 
     72 C          -2.9830  -24.0994  -48.3041 C.2       12 UNK         0.5000 
     73 O          -3.1447  -25.0078  -49.1165 O.2       12 UNK        -0.5000 
     74 N          -3.1086  -24.2560  -46.9788 N.am      13 UNK        -0.5000 
     75 CA         -3.4174  -25.5285  -46.3249 C.3       13 UNK         0.1400 
     76 CB         -3.6560  -25.3011  -44.8250 C.3       13 UNK        -0.1800 
     77 C          -2.3309  -26.5949  -46.5554 C.2       13 UNK         0.5000 
     78 O          -2.6658  -27.7413  -46.8538 O.2       13 UNK        -0.5000 
     79 N          -1.0554  -26.1912  -46.4657 N.am      14 UNK        -0.5000 
     80 CA          0.1076  -27.0323  -46.7590 C.3       14 UNK         0.1400 
     81 CB          1.3883  -26.3058  -46.3209 C.3       14 UNK        -0.1800 
     82 C           0.1915  -27.4444  -48.2419 C.2       14 UNK         0.5000 
     83 O           0.5635  -28.5806  -48.5371 O.2       14 UNK        -0.5000 
     84 N          -0.1857  -26.5279  -49.1433 N.am      15 UNK        -0.5000 
     85 CA         -0.2789  -26.7558  -50.5873 C.3       15 UNK         0.1400 
     86 CB         -0.2754  -25.3936  -51.3006 C.3       15 UNK        -0.1800 
     87 C          -1.5163  -27.5778  -51.0093 C.2       15 UNK         0.5000 
     88 O          -1.5772  -28.0123  -52.1603 O.2       15 UNK        -0.5000 
     89 N          -2.4785  -27.7558  -50.0909 N.am      16 UNK        -0.5000 
     90 CA         -3.8015  -28.3626  -50.2781 C.3       16 UNK         0.1400 
     91 CB         -3.6835  -29.8618  -50.6231 C.3       16 UNK        -0.1800 
     92 C          -4.6800  -27.5699  -51.2721 C.2       16 UNK         0.5000 
     93 O          -5.4178  -28.1602  -52.0641 O.2       16 UNK        -0.5000 
     94 N          -4.5728  -26.2392  -51.2084 N.am      17 UNK        -0.5000 
     95 CA         -5.3049  -25.2711  -52.0179 C.3       17 UNK         0.1400 
     96 CB         -4.2908  -24.2392  -52.5433 C.3       17 UNK        -0.1800 
     97 C          -6.3891  -24.5762  -51.1744 C.2       17 UNK         0.5000 
     98 O          -6.4365  -24.7446  -49.9524 O.2       17 UNK        -0.5000 
     99 N          -7.2306  -23.7758  -51.8429 N.am      18 UNK        -0.5000 
    100 CA        -8.1648  -22.8437  -51.2062 C.3       18 UNK         0.1400 
    101 CB        -9.0942  -22.2518  -52.2768 C.3       18 UNK        -0.1800 
    102 C         -7.4012  -21.7248  -50.4711 C.2       18 UNK         0.5000 
    103 O         -6.3629  -21.2858  -50.9699 O.2       18 UNK        -0.5000 
    104 N         -7.9225  -21.3108  -49.3064 N.am      19 UNK        -0.5000 
    105 CA        -7.2955  -20.3948  -48.3464 C.3       19 UNK         0.1400 
    106 CB        -8.2955  -20.0749  -47.2247 C.3       19 UNK        -0.1800 
    107 C         -6.7491  -19.0960  -48.9712 C.2       19 UNK         0.5000 
    108 O         -7.4833  -18.4048  -49.6808 O.2       19 UNK        -0.5000 
    109 N         -5.4729  -18.8069  -48.6802 N.am      20 UNK        -0.5000 
    110 CA        -4.6416  -17.7553  -49.2642 C.3       20 UNK         0.1400 
    111 CB        -5.1516  -16.3458  -48.8934 C.3       20 UNK        -0.1800 
    112 C         -4.4307  -17.9793  -50.7730 C.2       20 UNK         0.5000 
    113 O         -3.5232  -18.7271  -51.1404 O.2       20 UNK        -0.5000 
    114 N         -5.2514  -17.3249  -51.6076 N.am      21 UNK        -0.5000 
    115 CA        -5.2328  -17.2887  -53.0764 C.3       21 UNK         0.1400 
    116 CB        -5.4157  -18.6919  -53.6891 C.3       21 UNK        -0.1800 
    117 C         -3.9967  -16.5633  -53.6435 C.2       21 UNK         0.5000 
    118 O         -4.1522  -15.5624  -54.3437 O.2       21 UNK        -0.5000 
    119 N         -2.8032  -17.0528  -53.2882 N.am      22 UNK        -0.5000 
    120 CA        -1.4882  -16.4187  -53.4883 C.3       22 UNK         0.1400 
    121 C         -1.0381  -16.2575  -54.9726 C.2       22 UNK         0.5000 
    122 N         -1.6223  -16.9808  -55.9198 N.am      22 UNK        -0.7600 
    123 O         -0.1261  -15.4917  -55.2728 O.2       22 UNK        -0.5000 
    124 C124       -1.3368  -15.1079  -52.6628 C.3       23 UNK        -0.0398 
    125 S125       -1.6446  -15.3718  -50.8786 S.3       23 UNK        -0.2404 
    126 C126        0.0429  -15.4356  -50.2033 C.3       23 UNK        -0.0205 
    127 H127        2.1556  -11.0230  -51.1695 H         1 UNK         0.0600 
    128 H128        1.1540  -12.0261  -50.1166 H         1 UNK         0.0600 
    129 H129        1.6385  -12.6216  -51.7087 H         1 UNK         0.0600 
    130 H130        3.2702  -14.1188  -51.5905 H         1 UNK         0.3000 
    131 H131        5.7701  -13.7381  -50.6053 H         1 UNK         0.0600 
    132 H132        6.2822  -15.9541  -51.2656 H         1 UNK         0.0800 
    133 H133        4.7263  -16.5864  -50.8396 H         1 UNK         0.0800 
    134 H134        4.4109  -17.9247  -53.3369 H         1 UNK         0.0800 
    135 H135        3.2438  -17.0275  -54.2759 H         1 UNK         0.0800 
    136 H136        1.9418  -15.3277  -52.1396 H         1 UNK         0.1150 
    137 H137       -0.0835  -18.0942  -49.5698 H         1 UNK         0.1150 
    138 H138        3.0348  -19.4668  -52.1712 H         1 UNK         0.1150 
    139 H139        0.1690  -20.5202  -50.1022 H         1 UNK         0.0800 
    140 H140        1.3884  -21.0451  -51.2243 H         1 UNK         0.0800 
    141 H141        0.4593  -19.8837  -47.8145 H         1 UNK         0.0800 
    142 H142        1.8755  -20.0652  -46.8262 H         1 UNK         0.0800 
    143 H143        1.5306  -22.5540  -46.7420 H         1 UNK         0.0600 
    144 H144        0.0159  -20.6443  -45.3607 H         1 UNK         0.3000 
    145 H145       -1.8394  -22.8234  -43.2056 H         1 UNK         0.0600 
    146 H146       -0.7633  -21.3025  -41.5646 H         1 UNK         0.0600 
    147 H147        0.3935  -22.4751  -42.1780 H         1 UNK         0.0600 
    148 H148        0.4336  -20.8178  -42.7629 H         1 UNK         0.0600 
    149 H149       -1.8500  -19.9896  -43.4582 H         1 UNK         0.3000 
    150 H150       -4.5020  -19.7970  -45.8882 H         1 UNK         0.0600 
    151 H151       -5.5414  -20.0150  -43.6378 H         1 UNK         0.0600 
    152 H152       -5.3887  -18.3279  -44.1069 H         1 UNK         0.0600 
    153 H153       -4.2712  -19.0212  -42.9352 H         1 UNK         0.0600 
    154 H154       -2.9680  -17.7449  -44.6659 H         1 UNK         0.3000 
    155 H155       -0.2964  -17.6587  -47.0619 H         1 UNK         0.0600 
    156 H156       -1.0728  -15.2650  -47.0009 H         1 UNK         0.0600 
    157 H157       -2.0999  -16.2755  -48.0035 H         1 UNK         0.0600 
    158 H158       -2.6413  -15.7962  -46.4059 H         1 UNK         0.0600 
    159 H159       -0.6843  -16.1244  -44.7332 H         1 UNK         0.3000 
    160 H160        0.8641  -18.3618  -42.3793 H         1 UNK         0.0600 
    161 H161        1.7419  -15.6872  -43.5865 H         1 UNK         0.0600 
    162 H162        2.7294  -17.1345  -43.4425 H         1 UNK         0.0600 
    163 H163        2.2003  -16.2936  -41.9963 H         1 UNK         0.0600 
    164 H164       -0.3437  -15.7491  -42.1980 H         1 UNK         0.3000 
    165 H165       -3.6107  -16.8679  -41.3595 H         1 UNK         0.0600 
    166 H166       -3.1554  -15.4586  -39.3685 H         1 UNK         0.0600 
    167 H167       -2.3255  -16.9994  -39.2209 H         1 UNK         0.0600 
    168 H168       -1.4185  -15.5566  -39.6589 H         1 UNK         0.0600 
    169 H169       -2.3846  -14.2778  -41.5553 H         1 UNK         0.3000 
    170 H170       -3.0332  -13.7664  -45.0289 H         1 UNK         0.0600 
    171 H171       -5.1917  -13.2775  -43.8716 H         1 UNK         0.0600 
    172 H172       -4.3199  -12.5530  -42.5257 H         1 UNK         0.0600 
    173 H173       -4.2542  -11.8148  -44.1263 H         1 UNK         0.0600 
    174 H174       -1.9435  -12.0386  -43.0568 H         1 UNK         0.3000 
    175 H175        0.2223  -11.3310  -43.4898 H         1 UNK         0.0600 
    176 H176        1.4393  -13.7663  -42.0462 H         1 UNK         0.0600 
    177 H177        1.8211  -12.0800  -41.7179 H         1 UNK         0.0600 
    178 H178        0.2198  -12.6995  -41.3589 H         1 UNK         0.0600 
    179 H179        1.6097  -13.3088  -45.0477 H         1 UNK         0.3000 
    180 H180        3.5030  -11.1284  -46.4807 H         1 UNK         0.0600 
    181 H181        5.4201  -12.3354  -44.4242 H         1 UNK         0.0600 
    182 H182        5.2900  -10.6402  -44.8671 H         1 UNK         0.0600 
    183 H183        5.8691  -11.8047  -46.0451 H         1 UNK         0.0600 
    184 H184        3.4417  -13.0830  -47.4236 H         1 UNK         0.3000 
    185 H185        4.5512  -16.2688  -46.6885 H         1 UNK         0.0600 
    186 H186        2.3400  -16.7893  -45.8208 H         1 UNK         0.0600 
    187 H187        1.5546  -15.6737  -46.9331 H         1 UNK         0.0600 
    188 H188        2.3349  -17.1396  -47.5358 H         1 UNK         0.0600 
    189 H189        3.0584  -15.1608  -48.8941 H         1 UNK         0.3000 
    190 H190       -1.7184  -21.2295  -47.5565 H         1 UNK         0.3000 
    191 H191       -2.2054  -22.8262  -49.8351 H         1 UNK         0.0600 
    192 H192       -4.1057  -21.5109  -47.8368 H         1 UNK         0.0600 
    193 H193       -4.6118  -22.2399  -49.3551 H         1 UNK         0.0600 
    194 H194       -3.5374  -20.8475  -49.3724 H         1 UNK         0.0600 
    195 H195       -3.0121  -23.4446  -46.3747 H         1 UNK         0.3000 
    196 H196       -4.3457  -25.9040  -46.7607 H         1 UNK         0.0600 
    197 H197       -3.9140  -26.2353  -44.3247 H         1 UNK         0.0600 
    198 H198       -4.4783  -24.6051  -44.6583 H         1 UNK         0.0600 
    199 H199       -2.7718  -24.8979  -44.3318 H         1 UNK         0.0600 
    200 H200       -0.8639  -25.2374  -46.1702 H         1 UNK         0.3000 
    201 H201        0.0167  -27.9453  -46.1670 H         1 UNK         0.0600 
    202 H202        1.3677  -26.0810  -45.2544 H         1 UNK         0.0600 
    203 H203        1.5221  -25.3658  -46.8569 H         1 UNK         0.0600 
    204 H204        2.2700  -26.9199  -46.5078 H         1 UNK         0.0600 
    205 H205       -0.4112  -25.5926  -48.8186 H         1 UNK         0.3000 
    206 H206        0.6059  -27.3096  -50.9076 H         1 UNK         0.0600 
    207 H207        0.6163  -24.8185  -51.0503 H         1 UNK         0.0600 
    208 H208       -0.2890  -25.5172  -52.3841 H         1 UNK         0.0600 
    209 H209       -1.1459  -24.7962  -51.0286 H         1 UNK         0.0600 
    210 H210       -2.3315  -27.3249  -49.1874 H         1 UNK         0.3000 
    211 H211       -4.3022  -28.2887  -49.3117 H         1 UNK         0.0600 
    212 H212       -3.2524  -30.0200  -51.6119 H         1 UNK         0.0600 
    213 H213       -4.6628  -30.3416  -50.6144 H         1 UNK         0.0600 
    214 H214       -3.0606  -30.3844  -49.8972 H         1 UNK         0.0600 
    215 H215       -4.0039  -25.8380  -50.4637 H         1 UNK         0.3000 
    216 H216       -5.7857  -25.7633  -52.8655 H         1 UNK         0.0600 
    217 H217       -4.7660  -23.5140  -53.2046 H         1 UNK         0.0600 
    218 H218       -3.4959  -24.7230  -53.1116 H         1 UNK         0.0600 
    219 H219       -3.8260  -23.6829  -51.7281 H         1 UNK         0.0600 
    220 H220       -7.1083  -23.6673  -52.8388 H         1 UNK         0.3000 
    221 H221       -8.7679  -23.4000  -50.4854 H         1 UNK         0.0600 
    222 H222       -8.5366  -21.6897  -53.0273 H         1 UNK         0.0600 
    223 H223       -9.6552  -23.0335  -52.7894 H         1 UNK         0.0600 
    224 H224       -9.8197  -21.5709  -51.8300 H         1 UNK         0.0600 
    225 H225       -8.7988  -21.7143  -49.0096 H         1 UNK         0.3000 
    226 H226       -6.4639  -20.9407  -47.8985 H         1 UNK         0.0600 
    227 H227       -8.6118  -20.9795  -46.7050 H         1 UNK         0.0600 
    228 H228       -7.8498  -19.4136  -46.4802 H         1 UNK         0.0600 
    229 H229       -9.1869  -19.5795  -47.6119 H         1 UNK         0.0600 
    230 H230       -4.9608  -19.4643  -48.1119 H         1 UNK         0.3000 
    231 H231       -3.6566  -17.8658  -48.8130 H         1 UNK         0.0600 
    232 H232       -4.5079  -15.5761  -49.3213 H         1 UNK         0.0600 
    233 H233       -5.1443  -16.2053  -47.8124 H         1 UNK         0.0600 
    234 H234       -6.1665  -16.1574  -49.2428 H         1 UNK         0.0600 
    235 H235       -5.9736  -16.7619  -51.1805 H         1 UNK         0.3000 
    236 H236       -6.1036  -16.6976  -53.3644 H         1 UNK         0.0600 
    237 H237       -6.3160  -19.1726  -53.3054 H         1 UNK         0.0600 
    238 H238       -5.5146  -18.6311  -54.7733 H         1 UNK         0.0600 
    239 H239       -4.5736  -19.3507  -53.4766 H         1 UNK         0.0600 
    240 H240       -2.8129  -17.8506  -52.6579 H         1 UNK         0.3000 
    241 H241       -0.7736  -17.1336  -53.0804 H         1 UNK         0.0600 
    242 H242       -2.3699  -17.6151  -55.6881 H         1 UNK         0.3800 
    243 H243       -1.3235  -16.8821  -56.8773 H         1 UNK         0.3800 
    244 H244       -0.3438  -14.6758  -52.7898 H         1 UNK         0.0800 
    245 H245       -2.0355  -14.3518  -53.0226 H         1 UNK         0.0800 
    246 H246       -0.0065  -15.5386  -49.1205 H         1 UNK         0.0800 
    247 H247        0.5340  -14.4814  -50.3889 H         1 UNK         0.0800 
@<TRIPOS>BOND
     1    1    2 1    
     2    1  127 1    
     3    1  128 1    
     4    1  129 1    
     5    2    3 2    
     6    2    4 am   BACKBONE|DICT|INTERRES
     7    4    5 1    
     8    4  130 1    
     9    5    6 1    
    10    5   65 1    
    11    5  131 1    
    12    6    7 1    
    13    6  132 1    
    14    6  133 1    
    15    7    8 1    
    16    8    9 1    
    17    8  134 1    
    18    8  135 1    
    19    9   10 ar   
    20    9   14 ar   
    21   10   11 ar   
    22   10  136 1    
    23   11   12 ar   
    24   11  126 1    
    25   12   13 ar   
    26   12  137 1    
    27   13   14 ar   
    28   13   15 1    
    29   14  138 1    
    30   15   16 1    
    31   15  139 1    
    32   15  140 1    
    33   16   17 1    
    34   17   18 1    
    35   17  141 1    
    36   17  142 1    
    37   18   19 1    
    38   18   67 1    
    39   18  143 1    
    40   19   20 am   BACKBONE|DICT|INTERRES
    41   19  144 1    
    42   20   21 2    
    43   20   22 1    
    44   22   23 1    
    45   22   24 1    
    46   22  145 1    
    47   23  146 1    
    48   23  147 1    
    49   23  148 1    
    50   24   25 am   BACKBONE|DICT|INTERRES
    51   24  149 1    
    52   25   26 2    
    53   25   27 1    
    54   27   28 1    
    55   27   29 1    
    56   27  150 1    
    57   28  151 1    
    58   28  152 1    
    59   28  153 1    
    60   29   30 am   BACKBONE|DICT|INTERRES
    61   29  154 1    
    62   30   31 2    
    63   30   32 1    
    64   32   33 1    
    65   32   34 1    
    66   32  155 1    
    67   33  156 1    
    68   33  157 1    
    69   33  158 1    
    70   34   35 am   BACKBONE|DICT|INTERRES
    71   34  159 1    
    72   35   36 2    
    73   35   37 1    
    74   37   38 1    
    75   37   39 1    
    76   37  160 1    
    77   38  161 1    
    78   38  162 1    
    79   38  163 1    
    80   39   40 am   BACKBONE|DICT|INTERRES
    81   39  164 1    
    82   40   41 2    
    83   40   42 1    
    84   42   43 1    
    85   42   44 1    
    86   42  165 1    
    87   43  166 1    
    88   43  167 1    
    89   43  168 1    
    90   44   45 am   BACKBONE|DICT|INTERRES
    91   44  169 1    
    92   45   46 2    
    93   45   47 1    
    94   47   48 1    
    95   47   49 1    
    96   47  170 1    
    97   48  171 1    
    98   48  172 1    
    99   48  173 1    
   100   49   50 am   BACKBONE|DICT|INTERRES
   101   49  174 1    
   102   50   51 2    
   103   50   52 1    
   104   52   53 1    
   105   52   54 1    
   106   52  175 1    
   107   53  176 1    
   108   53  177 1    
   109   53  178 1    
   110   54   55 am   BACKBONE|DICT|INTERRES
   111   54  179 1    
   112   55   56 2    
   113   55   57 1    
   114   57   58 1    
   115   57   59 1    
   116   57  180 1    
   117   58  181 1    
   118   58  182 1    
   119   58  183 1    
   120   59   60 am   BACKBONE|DICT|INTERRES
   121   59  184 1    
   122   60   61 2    
   123   60   62 1    
   124   62   63 1    
   125   62   64 1    
   126   62  185 1    
   127   63  186 1    
   128   63  187 1    
   129   63  188 1    
   130   64   65 am   BACKBONE|DICT|INTERRES
   131   64  189 1    
   132   65   66 2    
   133   67   68 2    
   134   67   69 am   BACKBONE|DICT|INTERRES
   135   69   70 1    
   136   69  190 1    
   137   70   71 1    
   138   70   72 1    
   139   70  191 1    
   140   71  192 1    
   141   71  193 1    
   142   71  194 1    
   143   72   73 2    
   144   72   74 am   BACKBONE|DICT|INTERRES
   145   74   75 1    
   146   74  195 1    
   147   75   76 1    
   148   75   77 1    
   149   75  196 1    
   150   76  197 1    
   151   76  198 1    
   152   76  199 1    
   153   77   78 2    
   154   77   79 am   BACKBONE|DICT|INTERRES
   155   79   80 1    
   156   79  200 1    
   157   80   81 1    
   158   80   82 1    
   159   80  201 1    
   160   81  202 1    
   161   81  203 1    
   162   81  204 1    
   163   82   83 2    
   164   82   84 am   BACKBONE|DICT|INTERRES
   165   84   85 1    
   166   84  205 1    
   167   85   86 1    
   168   85   87 1    
   169   85  206 1    
   170   86  207 1    
   171   86  208 1    
   172   86  209 1    
   173   87   88 2    
   174   87   89 am   BACKBONE|DICT|INTERRES
   175   89   90 1    
   176   89  210 1    
   177   90   91 1    
   178   90   92 1    
   179   90  211 1    
   180   91  212 1    
   181   91  213 1    
   182   91  214 1    
   183   92   93 2    
   184   92   94 am   BACKBONE|DICT|INTERRES
   185   94   95 1    
   186   94  215 1    
   187   95   96 1    
   188   95   97 1    
   189   95  216 1    
   190   96  217 1    
   191   96  218 1    
   192   96  219 1    
   193   97   98 2    
   194   97   99 am   BACKBONE|DICT|INTERRES
   195   99  100 1    
   196   99  220 1    
   197  100  101 1    
   198  100  102 1    
   199  100  221 1    
   200  101  222 1    
   201  101  223 1    
   202  101  224 1    
   203  102  103 2    
   204  102  104 am   BACKBONE|DICT|INTERRES
   205  104  105 1    
   206  104  225 1    
   207  105  106 1    
   208  105  107 1    
   209  105  226 1    
   210  106  227 1    
   211  106  228 1    
   212  106  229 1    
   213  107  108 2    
   214  107  109 am   BACKBONE|DICT|INTERRES
   215  109  110 1    
   216  109  230 1    
   217  110  111 1    
   218  110  112 1    
   219  110  231 1    
   220  111  232 1    
   221  111  233 1    
   222  111  234 1    
   223  112  113 2    
   224  112  114 am   BACKBONE|DICT|INTERRES
   225  114  115 1    
   226  114  235 1    
   227  115  116 1    
   228  115  117 1    
   229  115  236 1    
   230  116  237 1    
   231  116  238 1    
   232  116  239 1    
   233  117  118 2    
   234  117  119 am   BACKBONE|DICT|INTERRES
   235  119  120 1    
   236  119  240 1    
   237  120  121 1    
   238  120  124 1    
   239  120  241 1    
   240  121  122 am   BACKBONE|DICT|INTERRES
   241  121  123 2    
   242  122  242 1    
   243  122  243 1    
   244  124  125 1    
   245  124  244 1    
   246  124  245 1    
   247  125  126 1    
   248  126  246 1    
   249  126  247 1    
@<TRIPOS>SUBSTRUCTURE
     1 UNK         1 GROUP             0       ****    0 ROOT    
