@<TRIPOS>MOLECULE
3R540
247   249    1
SMALL
USER_CHARGES


@<TRIPOS>ATOM
      1 CA         -3.3070  -12.8798  -43.1654 C.3       0 UNK        -0.1800 
      2 C          -2.8680  -13.8542  -44.2555 C.2       0 UNK         0.5000 
      3 O          -2.4221  -14.9497  -43.9332 O.2       0 UNK        -0.5000 
      4 N          -2.9668  -13.5084  -45.5474 N.am      1 UNK        -0.5000 
      5 CA         -3.3007  -12.1756  -46.0660 C.3       1 UNK         0.1400 
      6 C6         -3.8835  -12.2185  -47.5011 C.3       23 UNK        -0.0398 
      7 S7         -2.8214  -13.0262  -48.7526 S.3       23 UNK        -0.2404 
      8 C8         -3.7362  -14.5696  -49.0536 C.3       23 UNK        -0.0205 
      9 C9         -3.1443  -15.3477  -50.2170 C.ar      23 UNK        -0.0193 
     10 C10        -3.7745  -15.3353  -51.4653 C.ar      23 UNK        -0.1150 
     11 C11        -3.2282  -16.0390  -52.5425 C.ar      23 UNK        -0.0193 
     12 C12        -2.0458  -16.7613  -52.3622 C.ar      23 UNK        -0.1150 
     13 C13        -1.4079  -16.7833  -51.1189 C.ar      23 UNK        -0.0193 
     14 C14        -1.9631  -16.0764  -50.0478 C.ar      23 UNK        -0.1150 
     15 C15        -0.1048  -17.5483  -50.9538 C.3       23 UNK        -0.0205 
     16 S16        -0.3933  -19.2894  -50.5176 S.3       23 UNK        -0.2404 
     17 C17        -0.5589  -19.1878  -48.7062 C.3       23 UNK        -0.0398 
     18 CA         -1.7021  -20.0781  -48.1685 C.3       11 UNK         0.1400 
     19 N          -1.4321  -20.5740  -46.8187 N.am      11 UNK        -0.5000 
     20 C          -2.1194  -21.5453  -46.2028 C.2       10 UNK         0.5000 
     21 O          -3.0087  -22.2027  -46.7490 O.2       10 UNK        -0.5000 
     22 CA         -1.7712  -21.8078  -44.7249 C.3       10 UNK         0.1400 
     23 CB         -0.6072  -22.8024  -44.6103 C.3       10 UNK        -0.1800 
     24 N          -1.4403  -20.5794  -43.9980 N.am      10 UNK        -0.5000 
     25 C          -2.3041  -19.5794  -43.7712 C.2       9 UNK         0.5000 
     26 O          -3.4900  -19.6241  -44.0921 O.2       9 UNK        -0.5000 
     27 CA         -1.7410  -18.2912  -43.1449 C.3       9 UNK         0.1400 
     28 CB         -1.6208  -18.4160  -41.6191 C.3       9 UNK        -0.1800 
     29 N          -0.4495  -17.9112  -43.7190 N.am      9 UNK        -0.5000 
     30 C          -0.2679  -17.5513  -44.9983 C.2       8 UNK         0.5000 
     31 O          -1.1738  -17.4654  -45.8270 O.2       8 UNK        -0.5000 
     32 CA          1.1842  -17.3177  -45.4458 C.3       8 UNK         0.1400 
     33 CB          1.6397  -15.8871  -45.1122 C.3       8 UNK        -0.1800 
     34 N           2.0948  -18.2977  -44.8480 N.am      8 UNK        -0.5000 
     35 C           2.1156  -19.5983  -45.1816 C.2       7 UNK         0.5000 
     36 O           1.3965  -20.0868  -46.0512 O.2       7 UNK        -0.5000 
     37 CA          3.0565  -20.5203  -44.3832 C.3       7 UNK         0.1400 
     38 CB          4.4712  -20.4947  -44.9801 C.3       7 UNK        -0.1800 
     39 N           3.1235  -20.1718  -42.9648 N.am      7 UNK        -0.5000 
     40 C           2.0890  -20.2258  -42.1132 C.2       6 UNK         0.5000 
     41 O           0.9806  -20.6634  -42.4187 O.2       6 UNK        -0.5000 
     42 CA          2.3140  -19.6385  -40.7041 C.3       6 UNK         0.1400 
     43 CB          2.6907  -20.7492  -39.7130 C.3       6 UNK        -0.1800 
     44 N           3.3389  -18.5883  -40.6681 N.am      6 UNK        -0.5000 
     45 C           3.2726  -17.4365  -41.3490 C.2       5 UNK         0.5000 
     46 O           2.3036  -17.1091  -42.0415 O.2       5 UNK        -0.5000 
     47 CA          4.5245  -16.5487  -41.3143 C.3       5 UNK         0.1400 
     48 CB          5.7025  -17.2516  -42.0229 C.3       5 UNK        -0.1800 
     49 N           4.2141  -15.2914  -41.9850 N.am      5 UNK        -0.5000 
     50 C           4.9642  -14.1847  -41.9907 C.2       4 UNK         0.5000 
     51 O           6.0298  -14.0742  -41.3829 O.2       4 UNK        -0.5000 
     52 CA          4.4413  -12.9987  -42.8226 C.3       4 UNK         0.1400 
     53 CB          5.0385  -13.0333  -44.2381 C.3       4 UNK        -0.1800 
     54 N           2.9821  -12.9519  -42.9314 N.am      4 UNK        -0.5000 
     55 C           2.1497  -12.6236  -41.9333 C.2       3 UNK         0.5000 
     56 O           2.5289  -12.4007  -40.7823 O.2       3 UNK        -0.5000 
     57 CA          0.6476  -12.5196  -42.2864 C.3       3 UNK         0.1400 
     58 CB         -0.1040  -11.5364  -41.3641 C.3       3 UNK        -0.1800 
     59 N           0.3882  -12.2081  -43.7009 N.am      3 UNK        -0.5000 
     60 C           0.7674  -11.1125  -44.3827 C.2       2 UNK         0.5000 
     61 O           1.4017  -10.1775  -43.8944 O.2       2 UNK        -0.5000 
     62 CA          0.3825  -11.0652  -45.8734 C.3       2 UNK         0.1400 
     63 CB          1.4885  -11.7035  -46.7288 C.3       2 UNK        -0.1800 
     64 N          -0.8808  -11.7562  -46.1321 N.am      2 UNK        -0.5000 
     65 C          -2.0948  -11.2183  -45.9437 C.2       1 UNK         0.5000 
     66 O          -2.2818  -10.0434  -45.6264 O.2       1 UNK        -0.5000 
     67 C          -3.0858  -19.4021  -48.2610 C.2       11 UNK         0.5000 
     68 O          -3.8557  -19.7147  -49.1686 O.2       11 UNK        -0.5000 
     69 N          -3.4071  -18.5485  -47.2800 N.am      12 UNK        -0.5000 
     70 CA         -4.7150  -17.9094  -47.1369 C.3       12 UNK         0.1400 
     71 CB         -4.6517  -16.8752  -46.0016 C.3       12 UNK        -0.1800 
     72 C          -5.8521  -18.9178  -46.8814 C.2       12 UNK         0.5000 
     73 O          -6.9322  -18.7723  -47.4547 O.2       12 UNK        -0.5000 
     74 N          -5.5898  -19.9101  -46.0204 N.am      13 UNK        -0.5000 
     75 CA         -6.5561  -20.9189  -45.5961 C.3       13 UNK         0.1400 
     76 CB         -6.0386  -21.6300  -44.3359 C.3       13 UNK        -0.1800 
     77 C          -6.9001  -21.9456  -46.6877 C.2       13 UNK         0.5000 
     78 O          -8.0842  -22.2029  -46.9114 O.2       13 UNK        -0.5000 
     79 N          -5.8779  -22.5443  -47.3154 N.am      14 UNK        -0.5000 
     80 CA         -6.0483  -23.7129  -48.1842 C.3       14 UNK         0.1400 
     81 CB         -6.1191  -24.9877  -47.3174 C.3       14 UNK        -0.1800 
     82 C          -4.9686  -23.8159  -49.2743 C.2       14 UNK         0.5000 
     83 O          -4.6761  -24.9248  -49.7288 O.2       14 UNK        -0.5000 
     84 N          -4.3692  -22.6815  -49.6695 N.am      15 UNK        -0.5000 
     85 CA         -3.3225  -22.5745  -50.6970 C.3       15 UNK         0.1400 
     86 CB         -3.9191  -22.8317  -52.0940 C.3       15 UNK        -0.1800 
     87 C          -2.0819  -23.4425  -50.3897 C.2       15 UNK         0.5000 
     88 O          -1.4786  -24.0072  -51.3031 O.2       15 UNK        -0.5000 
     89 N          -1.7539  -23.5584  -49.0925 N.am      16 UNK        -0.5000 
     90 CA         -0.6838  -24.3788  -48.5199 C.3       16 UNK         0.1400 
     91 CB          0.6994  -23.8251  -48.9187 C.3       16 UNK        -0.1800 
     92 C          -0.8772  -25.8764  -48.8361 C.2       16 UNK         0.5000 
     93 O           0.0620  -26.5513  -49.2568 O.2       16 UNK        -0.5000 
     94 N          -2.1217  -26.3440  -48.6505 N.am      17 UNK        -0.5000 
     95 CA         -2.6385  -27.6727  -48.9952 C.3       17 UNK         0.1400 
     96 CB         -1.9349  -28.7802  -48.1824 C.3       17 UNK        -0.1800 
     97 C          -2.6179  -27.9148  -50.5184 C.2       17 UNK         0.5000 
     98 O          -2.1642  -28.9643  -50.9782 O.2       17 UNK        -0.5000 
     99 N          -3.1087  -26.9141  -51.2654 N.am      18 UNK        -0.5000 
    100 CA        -3.1984  -26.8527  -52.7295 C.3       18 UNK         0.1400 
    101 CB        -4.2177  -27.8859  -53.2532 C.3       18 UNK        -0.1800 
    102 C         -1.8356  -26.9315  -53.4543 C.2       18 UNK         0.5000 
    103 O         -1.7734  -27.3957  -54.5947 O.2       18 UNK        -0.5000 
    104 N         -0.7678  -26.4699  -52.7909 N.am      19 UNK        -0.5000 
    105 CA         0.5711  -26.3479  -53.3661 C.3       19 UNK         0.1400 
    106 CB         1.6153  -26.3951  -52.2416 C.3       19 UNK        -0.1800 
    107 C          0.7137  -25.0540  -54.1866 C.2       19 UNK         0.5000 
    108 O          1.3855  -25.0590  -55.2193 O.2       19 UNK        -0.5000 
    109 N          0.0718  -23.9778  -53.7174 N.am      20 UNK        -0.5000 
    110 CA        -0.0338  -22.6929  -54.4013 C.3       20 UNK         0.1400 
    111 CB        -0.0227  -21.5794  -53.3393 C.3       20 UNK        -0.1800 
    112 C         -1.3204  -22.6329  -55.2457 C.2       20 UNK         0.5000 
    113 O         -2.1597  -23.5353  -55.1796 O.2       20 UNK        -0.5000 
    114 N         -1.4666  -21.5454  -56.0063 N.am      21 UNK        -0.5000 
    115 CA        -2.6660  -21.1968  -56.7575 C.3       21 UNK         0.1400 
    116 CB        -2.6300  -21.8573  -58.1465 C.3       21 UNK        -0.1800 
    117 C         -2.7306  -19.6679  -56.8677 C.2       21 UNK         0.5000 
    118 O         -1.6815  -19.0187  -56.9107 O.2       21 UNK        -0.5000 
    119 N         -3.9524  -19.1289  -56.9191 N.am      22 UNK        -0.5000 
    120 CA        -4.2314  -17.6848  -57.0290 C.3       22 UNK         0.1400 
    121 C         -4.6081  -17.2317  -58.4706 C.2       22 UNK         0.5000 
    122 N         -4.6263  -18.1108  -59.4655 N.am      22 UNK        -0.7600 
    123 O         -4.8734  -16.0545  -58.6983 O.2       22 UNK        -0.5000 
    124 C124       -5.2945  -17.2245  -55.9955 C.3       23 UNK        -0.0398 
    125 S125       -4.7858  -17.5398  -54.2704 S.3       23 UNK        -0.2404 
    126 C126       -3.8918  -15.9973  -53.9097 C.3       23 UNK        -0.0205 
    127 H127       -4.3845  -12.7216  -43.2085 H         1 UNK         0.0600 
    128 H128       -2.8077  -11.9172  -43.2623 H         1 UNK         0.0600 
    129 H129       -3.0672  -13.2784  -42.1794 H         1 UNK         0.0600 
    130 H130       -2.6991  -14.1857  -46.2458 H         1 UNK         0.3000 
    131 H131       -4.0898  -11.7572  -45.4384 H         1 UNK         0.0600 
    132 H132       -4.8505  -12.7222  -47.4747 H         1 UNK         0.0800 
    133 H133       -4.1013  -11.2064  -47.8470 H         1 UNK         0.0800 
    134 H134       -3.7107  -15.1839  -48.1560 H         1 UNK         0.0800 
    135 H135       -4.7859  -14.3431  -49.2473 H         1 UNK         0.0800 
    136 H136       -4.6855  -14.7695  -51.6014 H         1 UNK         0.1150 
    137 H137       -1.6198  -17.3044  -53.1945 H         1 UNK         0.1150 
    138 H138       -1.4721  -16.0772  -49.0851 H         1 UNK         0.1150 
    139 H139        0.4571  -17.5149  -51.8884 H         1 UNK         0.0800 
    140 H140        0.5312  -17.0720  -50.2060 H         1 UNK         0.0800 
    141 H141       -0.6673  -18.1550  -48.3757 H         1 UNK         0.0800 
    142 H142        0.3978  -19.5251  -48.3098 H         1 UNK         0.0800 
    143 H143       -1.7395  -20.9613  -48.7999 H         1 UNK         0.0600 
    144 H144       -0.6664  -20.1346  -46.3206 H         1 UNK         0.3000 
    145 H145       -2.6469  -22.2529  -44.2493 H         1 UNK         0.0600 
    146 H146       -0.8650  -23.7581  -45.0671 H         1 UNK         0.0600 
    147 H147        0.2921  -22.4319  -45.1029 H         1 UNK         0.0600 
    148 H148       -0.3589  -22.9995  -43.5672 H         1 UNK         0.0600 
    149 H149       -0.4936  -20.4991  -43.6370 H         1 UNK         0.3000 
    150 H150       -2.4499  -17.4903  -43.3599 H         1 UNK         0.0600 
    151 H151       -2.5936  -18.6211  -41.1707 H         1 UNK         0.0600 
    152 H152       -1.2466  -17.4926  -41.1766 H         1 UNK         0.0600 
    153 H153       -0.9516  -19.2245  -41.3274 H         1 UNK         0.0600 
    154 H154        0.3559  -17.9462  -43.1086 H         1 UNK         0.3000 
    155 H155        1.2240  -17.4371  -46.5307 H         1 UNK         0.0600 
    156 H156        1.5419  -15.6635  -44.0504 H         1 UNK         0.0600 
    157 H157        1.0344  -15.1577  -45.6515 H         1 UNK         0.0600 
    158 H158        2.6787  -15.7239  -45.3989 H         1 UNK         0.0600 
    159 H159        2.6535  -17.9799  -44.0683 H         1 UNK         0.3000 
    160 H160        2.6695  -21.5384  -44.4617 H         1 UNK         0.0600 
    161 H161        4.9233  -19.5048  -44.9061 H         1 UNK         0.0600 
    162 H162        4.4539  -20.7700  -46.0355 H         1 UNK         0.0600 
    163 H163        5.1265  -21.2024  -44.4719 H         1 UNK         0.0600 
    164 H164        4.0033  -19.8138  -42.6255 H         1 UNK         0.3000 
    165 H165        1.3708  -19.1946  -40.3799 H         1 UNK         0.0600 
    166 H166        2.7714  -20.3613  -38.6974 H         1 UNK         0.0600 
    167 H167        1.9331  -21.5340  -39.7001 H         1 UNK         0.0600 
    168 H168        3.6421  -21.2152  -39.9723 H         1 UNK         0.0600 
    169 H169        4.1651  -18.7880  -40.1225 H         1 UNK         0.3000 
    170 H170        4.7781  -16.3465  -40.2720 H         1 UNK         0.0600 
    171 H171        5.9472  -18.2015  -41.5467 H         1 UNK         0.0600 
    172 H172        5.4751  -17.4566  -43.0699 H         1 UNK         0.0600 
    173 H173        6.6081  -16.6461  -41.9939 H         1 UNK         0.0600 
    174 H174        3.3213  -15.2928  -42.4615 H         1 UNK         0.3000 
    175 H175        4.7758  -12.0808  -42.3343 H         1 UNK         0.0600 
    176 H176        4.7243  -13.9224  -44.7865 H         1 UNK         0.0600 
    177 H177        4.7378  -12.1584  -44.8151 H         1 UNK         0.0600 
    178 H178        6.1288  -13.0383  -44.2022 H         1 UNK         0.0600 
    179 H179        2.5910  -13.1084  -43.8474 H         1 UNK         0.3000 
    180 H180        0.2310  -13.5134  -42.1149 H         1 UNK         0.0600 
    181 H181        0.3092  -10.5292  -41.4242 H         1 UNK         0.0600 
    182 H182       -0.0431  -11.8518  -40.3219 H         1 UNK         0.0600 
    183 H183       -1.1609  -11.4785  -41.6185 H         1 UNK         0.0600 
    184 H184       -0.1246  -12.9140  -44.2075 H         1 UNK         0.3000 
    185 H185        0.2875  -10.0170  -46.1652 H         1 UNK         0.0600 
    186 H186        2.4434  -11.2001  -46.5712 H         1 UNK         0.0600 
    187 H187        1.6305  -12.7581  -46.4902 H         1 UNK         0.0600 
    188 H188        1.2551  -11.6294  -47.7912 H         1 UNK         0.0600 
    189 H189       -0.8237  -12.7192  -46.4281 H         1 UNK         0.3000 
    190 H190       -2.7027  -18.3111  -46.5860 H         1 UNK         0.3000 
    191 H191       -4.9301  -17.3859  -48.0707 H         1 UNK         0.0600 
    192 H192       -3.7970  -16.2112  -46.1151 H         1 UNK         0.0600 
    193 H193       -5.5505  -16.2580  -45.9851 H         1 UNK         0.0600 
    194 H194       -4.5620  -17.3489  -45.0239 H         1 UNK         0.0600 
    195 H195       -4.6982  -19.9037  -45.5321 H         1 UNK         0.3000 
    196 H196       -7.4802  -20.4027  -45.3271 H         1 UNK         0.0600 
    197 H197       -6.7467  -22.3857  -43.9934 H         1 UNK         0.0600 
    198 H198       -5.8955  -20.9252  -43.5167 H         1 UNK         0.0600 
    199 H199       -5.0869  -22.1299  -44.5174 H         1 UNK         0.0600 
    200 H200       -4.9219  -22.2938  -47.0751 H         1 UNK         0.3000 
    201 H201       -6.9899  -23.6205  -48.7291 H         1 UNK         0.0600 
    202 H202       -6.9316  -24.9321  -46.5928 H         1 UNK         0.0600 
    203 H203       -5.1910  -25.1459  -46.7669 H         1 UNK         0.0600 
    204 H204       -6.2984  -25.8748  -47.9261 H         1 UNK         0.0600 
    205 H205       -4.6508  -21.8046  -49.2475 H         1 UNK         0.3000 
    206 H206       -2.9673  -21.5454  -50.6983 H         1 UNK         0.0600 
    207 H207       -4.7329  -22.1378  -52.3040 H         1 UNK         0.0600 
    208 H208       -3.1710  -22.6907  -52.8720 H         1 UNK         0.0600 
    209 H209       -4.3120  -23.8422  -52.1909 H         1 UNK         0.0600 
    210 H210       -2.3400  -23.0816  -48.4143 H         1 UNK         0.3000 
    211 H211       -0.7701  -24.2873  -47.4372 H         1 UNK         0.0600 
    212 H212        0.8632  -23.8710  -49.9950 H         1 UNK         0.0600 
    213 H213        1.5004  -24.3893  -48.4401 H         1 UNK         0.0600 
    214 H214        0.8064  -22.7848  -48.6103 H         1 UNK         0.0600 
    215 H215       -2.8266  -25.6801  -48.3615 H         1 UNK         0.3000 
    216 H216       -3.6900  -27.6737  -48.7036 H         1 UNK         0.0600 
    217 H217       -2.4170  -29.7450  -48.3440 H         1 UNK         0.0600 
    218 H218       -1.9771  -28.5717  -47.1135 H         1 UNK         0.0600 
    219 H219       -0.8871  -28.8908  -48.4622 H         1 UNK         0.0600 
    220 H220       -3.4868  -26.1087  -50.7740 H         1 UNK         0.3000 
    221 H221       -3.5915  -25.8646  -52.9654 H         1 UNK         0.0600 
    222 H222       -3.8646  -28.9083  -53.1161 H         1 UNK         0.0600 
    223 H223       -5.1749  -27.7891  -52.7409 H         1 UNK         0.0600 
    224 H224       -4.4070  -27.7455  -54.3180 H         1 UNK         0.0600 
    225 H225       -0.9129  -26.0549  -51.8788 H         1 UNK         0.3000 
    226 H226        0.7554  -27.1939  -54.0317 H         1 UNK         0.0600 
    227 H227        1.5418  -27.3234  -51.6747 H         1 UNK         0.0600 
    228 H228        2.6270  -26.3372  -52.6449 H         1 UNK         0.0600 
    229 H229        1.4917  -25.5676  -51.5431 H         1 UNK         0.0600 
    230 H230       -0.4986  -24.0783  -52.8809 H         1 UNK         0.3000 
    231 H231        0.8217  -22.5515  -55.0648 H         1 UNK         0.0600 
    232 H232       -0.9028  -21.6242  -52.6977 H         1 UNK         0.0600 
    233 H233       -0.0043  -20.5903  -53.7980 H         1 UNK         0.0600 
    234 H234        0.8570  -21.6525  -52.6996 H         1 UNK         0.0600 
    235 H235       -0.7635  -20.8166  -55.9967 H         1 UNK         0.3000 
    236 H236       -3.5481  -21.5411  -56.2127 H         1 UNK         0.0600 
    237 H237       -2.5939  -22.9439  -58.0661 H         1 UNK         0.0600 
    238 H238       -3.5200  -21.6048  -58.7237 H         1 UNK         0.0600 
    239 H239       -1.7608  -21.5352  -58.7213 H         1 UNK         0.0600 
    240 H240       -4.7621  -19.7314  -56.8829 H         1 UNK         0.3000 
    241 H241       -3.3186  -17.1310  -56.8035 H         1 UNK         0.0600 
    242 H242       -4.8652  -17.8024  -60.3953 H         1 UNK         0.3800 
    243 H243       -4.3934  -19.0772  -59.3035 H         1 UNK         0.3800 
    244 H244       -5.5101  -16.1599  -56.1027 H         1 UNK         0.0800 
    245 H245       -6.2393  -17.7408  -56.1719 H         1 UNK         0.0800 
    246 H246       -3.1299  -15.8302  -54.6725 H         1 UNK         0.0800 
    247 H247       -4.5830  -15.1554  -53.9737 H         1 UNK         0.0800 
@<TRIPOS>BOND
     1    1    2 1    
     2    1  127 1    
     3    1  128 1    
     4    1  129 1    
     5    2    3 2    
     6    2    4 am   BACKBONE|DICT|INTERRES
     7    4    5 1    
     8    4  130 1    
     9    5    6 1    
    10    5   65 1    
    11    5  131 1    
    12    6    7 1    
    13    6  132 1    
    14    6  133 1    
    15    7    8 1    
    16    8    9 1    
    17    8  134 1    
    18    8  135 1    
    19    9   10 ar   
    20    9   14 ar   
    21   10   11 ar   
    22   10  136 1    
    23   11   12 ar   
    24   11  126 1    
    25   12   13 ar   
    26   12  137 1    
    27   13   14 ar   
    28   13   15 1    
    29   14  138 1    
    30   15   16 1    
    31   15  139 1    
    32   15  140 1    
    33   16   17 1    
    34   17   18 1    
    35   17  141 1    
    36   17  142 1    
    37   18   19 1    
    38   18   67 1    
    39   18  143 1    
    40   19   20 am   BACKBONE|DICT|INTERRES
    41   19  144 1    
    42   20   21 2    
    43   20   22 1    
    44   22   23 1    
    45   22   24 1    
    46   22  145 1    
    47   23  146 1    
    48   23  147 1    
    49   23  148 1    
    50   24   25 am   BACKBONE|DICT|INTERRES
    51   24  149 1    
    52   25   26 2    
    53   25   27 1    
    54   27   28 1    
    55   27   29 1    
    56   27  150 1    
    57   28  151 1    
    58   28  152 1    
    59   28  153 1    
    60   29   30 am   BACKBONE|DICT|INTERRES
    61   29  154 1    
    62   30   31 2    
    63   30   32 1    
    64   32   33 1    
    65   32   34 1    
    66   32  155 1    
    67   33  156 1    
    68   33  157 1    
    69   33  158 1    
    70   34   35 am   BACKBONE|DICT|INTERRES
    71   34  159 1    
    72   35   36 2    
    73   35   37 1    
    74   37   38 1    
    75   37   39 1    
    76   37  160 1    
    77   38  161 1    
    78   38  162 1    
    79   38  163 1    
    80   39   40 am   BACKBONE|DICT|INTERRES
    81   39  164 1    
    82   40   41 2    
    83   40   42 1    
    84   42   43 1    
    85   42   44 1    
    86   42  165 1    
    87   43  166 1    
    88   43  167 1    
    89   43  168 1    
    90   44   45 am   BACKBONE|DICT|INTERRES
    91   44  169 1    
    92   45   46 2    
    93   45   47 1    
    94   47   48 1    
    95   47   49 1    
    96   47  170 1    
    97   48  171 1    
    98   48  172 1    
    99   48  173 1    
   100   49   50 am   BACKBONE|DICT|INTERRES
   101   49  174 1    
   102   50   51 2    
   103   50   52 1    
   104   52   53 1    
   105   52   54 1    
   106   52  175 1    
   107   53  176 1    
   108   53  177 1    
   109   53  178 1    
   110   54   55 am   BACKBONE|DICT|INTERRES
   111   54  179 1    
   112   55   56 2    
   113   55   57 1    
   114   57   58 1    
   115   57   59 1    
   116   57  180 1    
   117   58  181 1    
   118   58  182 1    
   119   58  183 1    
   120   59   60 am   BACKBONE|DICT|INTERRES
   121   59  184 1    
   122   60   61 2    
   123   60   62 1    
   124   62   63 1    
   125   62   64 1    
   126   62  185 1    
   127   63  186 1    
   128   63  187 1    
   129   63  188 1    
   130   64   65 am   BACKBONE|DICT|INTERRES
   131   64  189 1    
   132   65   66 2    
   133   67   68 2    
   134   67   69 am   BACKBONE|DICT|INTERRES
   135   69   70 1    
   136   69  190 1    
   137   70   71 1    
   138   70   72 1    
   139   70  191 1    
   140   71  192 1    
   141   71  193 1    
   142   71  194 1    
   143   72   73 2    
   144   72   74 am   BACKBONE|DICT|INTERRES
   145   74   75 1    
   146   74  195 1    
   147   75   76 1    
   148   75   77 1    
   149   75  196 1    
   150   76  197 1    
   151   76  198 1    
   152   76  199 1    
   153   77   78 2    
   154   77   79 am   BACKBONE|DICT|INTERRES
   155   79   80 1    
   156   79  200 1    
   157   80   81 1    
   158   80   82 1    
   159   80  201 1    
   160   81  202 1    
   161   81  203 1    
   162   81  204 1    
   163   82   83 2    
   164   82   84 am   BACKBONE|DICT|INTERRES
   165   84   85 1    
   166   84  205 1    
   167   85   86 1    
   168   85   87 1    
   169   85  206 1    
   170   86  207 1    
   171   86  208 1    
   172   86  209 1    
   173   87   88 2    
   174   87   89 am   BACKBONE|DICT|INTERRES
   175   89   90 1    
   176   89  210 1    
   177   90   91 1    
   178   90   92 1    
   179   90  211 1    
   180   91  212 1    
   181   91  213 1    
   182   91  214 1    
   183   92   93 2    
   184   92   94 am   BACKBONE|DICT|INTERRES
   185   94   95 1    
   186   94  215 1    
   187   95   96 1    
   188   95   97 1    
   189   95  216 1    
   190   96  217 1    
   191   96  218 1    
   192   96  219 1    
   193   97   98 2    
   194   97   99 am   BACKBONE|DICT|INTERRES
   195   99  100 1    
   196   99  220 1    
   197  100  101 1    
   198  100  102 1    
   199  100  221 1    
   200  101  222 1    
   201  101  223 1    
   202  101  224 1    
   203  102  103 2    
   204  102  104 am   BACKBONE|DICT|INTERRES
   205  104  105 1    
   206  104  225 1    
   207  105  106 1    
   208  105  107 1    
   209  105  226 1    
   210  106  227 1    
   211  106  228 1    
   212  106  229 1    
   213  107  108 2    
   214  107  109 am   BACKBONE|DICT|INTERRES
   215  109  110 1    
   216  109  230 1    
   217  110  111 1    
   218  110  112 1    
   219  110  231 1    
   220  111  232 1    
   221  111  233 1    
   222  111  234 1    
   223  112  113 2    
   224  112  114 am   BACKBONE|DICT|INTERRES
   225  114  115 1    
   226  114  235 1    
   227  115  116 1    
   228  115  117 1    
   229  115  236 1    
   230  116  237 1    
   231  116  238 1    
   232  116  239 1    
   233  117  118 2    
   234  117  119 am   BACKBONE|DICT|INTERRES
   235  119  120 1    
   236  119  240 1    
   237  120  121 1    
   238  120  124 1    
   239  120  241 1    
   240  121  122 am   BACKBONE|DICT|INTERRES
   241  121  123 2    
   242  122  242 1    
   243  122  243 1    
   244  124  125 1    
   245  124  244 1    
   246  124  245 1    
   247  125  126 1    
   248  126  246 1    
   249  126  247 1    
@<TRIPOS>SUBSTRUCTURE
     1 UNK         1 GROUP             0       ****    0 ROOT    
