@<TRIPOS>MOLECULE
3R540
247   249    1
SMALL
USER_CHARGES


@<TRIPOS>ATOM
      1 CA         -1.3400  -13.3136  -41.7026 C.3       0 UNK        -0.1800 
      2 C          -0.8968  -12.8989  -43.0980 C.2       0 UNK         0.5000 
      3 O          -1.3309  -11.8604  -43.5964 O.2       0 UNK        -0.5000 
      4 N          -0.0273  -13.6998  -43.7195 N.am      1 UNK        -0.5000 
      5 CA          0.5743  -13.4495  -45.0257 C.3       1 UNK         0.1400 
      6 C6          0.5008  -14.6975  -45.9385 C.3       23 UNK        -0.0398 
      7 S7         -1.1989  -14.9741  -46.5452 S.3       23 UNK        -0.2404 
      8 C8         -1.0142  -14.6735  -48.3381 C.3       23 UNK        -0.0205 
      9 C9         -0.6513  -15.9151  -49.1534 C.ar      23 UNK        -0.0193 
     10 C10        -1.1664  -16.0559  -50.4455 C.ar      23 UNK        -0.1150 
     11 C11        -0.8424  -17.1674  -51.2280 C.ar      23 UNK        -0.0193 
     12 C12        -0.0182  -18.1627  -50.6972 C.ar      23 UNK        -0.1150 
     13 C13         0.5059  -18.0477  -49.4060 C.ar      23 UNK        -0.0193 
     14 C14         0.2037  -16.9049  -48.6546 C.ar      23 UNK        -0.1150 
     15 C15         1.4017  -19.1757  -48.8888 C.3       23 UNK        -0.0205 
     16 S16         1.9154  -19.0880  -47.1350 S.3       23 UNK        -0.2404 
     17 C17         0.3466  -19.2984  -46.2256 C.3       23 UNK        -0.0398 
     18 CA          0.0062  -20.7890  -45.9702 C.3       11 UNK         0.1400 
     19 N          -0.4674  -21.0363  -44.6078 N.am      11 UNK        -0.5000 
     20 C          -0.6468  -22.2535  -44.0755 C.2       10 UNK         0.5000 
     21 O          -0.3961  -23.3053  -44.6641 O.2       10 UNK        -0.5000 
     22 CA         -1.2569  -22.3018  -42.6660 C.3       10 UNK         0.1400 
     23 CB         -0.1885  -22.0307  -41.5960 C.3       10 UNK        -0.1800 
     24 N          -2.3600  -21.3519  -42.5200 N.am      10 UNK        -0.5000 
     25 C          -3.5454  -21.4733  -43.1346 C.2       9 UNK         0.5000 
     26 O          -3.8407  -22.4137  -43.8718 O.2       9 UNK        -0.5000 
     27 CA         -4.5569  -20.3334  -42.9165 C.3       9 UNK         0.1400 
     28 CB         -5.3216  -20.5317  -41.5994 C.3       9 UNK        -0.1800 
     29 N          -3.9293  -19.0111  -42.9202 N.am      9 UNK        -0.5000 
     30 C          -3.3515  -18.4541  -43.9934 C.2       8 UNK         0.5000 
     31 O          -3.2915  -18.9926  -45.0977 O.2       8 UNK        -0.5000 
     32 CA         -2.6722  -17.0910  -43.7809 C.3       8 UNK         0.1400 
     33 CB         -3.6937  -15.9472  -43.8607 C.3       8 UNK        -0.1800 
     34 N          -1.9174  -16.9909  -42.5286 N.am      8 UNK        -0.5000 
     35 C          -0.8859  -17.7825  -42.2114 C.2       7 UNK         0.5000 
     36 O          -0.5483  -18.7671  -42.8723 O.2       7 UNK        -0.5000 
     37 CA         -0.0869  -17.4209  -40.9485 C.3       7 UNK         0.1400 
     38 CB         -0.4806  -18.3341  -39.7781 C.3       7 UNK        -0.1800 
     39 N           1.3449  -17.5576  -41.2138 N.am      7 UNK        -0.5000 
     40 C           2.0258  -16.7710  -42.0565 C.2       6 UNK         0.5000 
     41 O           1.5618  -15.7441  -42.5594 O.2       6 UNK        -0.5000 
     42 CA          3.4352  -17.2438  -42.4322 C.3       6 UNK         0.1400 
     43 CB          3.3630  -18.3388  -43.5109 C.3       6 UNK        -0.1800 
     44 N           4.2172  -16.1253  -42.9488 N.am      6 UNK        -0.5000 
     45 C           5.5246  -15.9360  -42.7329 C.2       5 UNK         0.5000 
     46 O           6.2178  -16.6800  -42.0360 O.2       5 UNK        -0.5000 
     47 CA          6.1541  -14.7164  -43.4360 C.3       5 UNK         0.1400 
     48 CB          7.6913  -14.6558  -43.3173 C.3       5 UNK        -0.1800 
     49 N           5.7246  -14.6208  -44.8323 N.am      5 UNK        -0.5000 
     50 C           5.9509  -15.4842  -45.8341 C.2       4 UNK         0.5000 
     51 O           6.6752  -16.4759  -45.7458 O.2       4 UNK        -0.5000 
     52 CA          5.2272  -15.1959  -47.1643 C.3       4 UNK         0.1400 
     53 CB          4.0031  -16.1135  -47.3112 C.3       4 UNK        -0.1800 
     54 N           4.7864  -13.8025  -47.2606 N.am      4 UNK        -0.5000 
     55 C           5.5327  -12.7983  -47.7412 C.2       3 UNK         0.5000 
     56 O           6.6509  -12.9507  -48.2342 O.2       3 UNK        -0.5000 
     57 CA          4.9348  -11.3803  -47.6412 C.3       3 UNK         0.1400 
     58 CB          4.1161  -11.0526  -48.8992 C.3       3 UNK        -0.1800 
     59 N           4.0890  -11.1975  -46.4591 N.am      3 UNK        -0.5000 
     60 C           4.5372  -11.1681  -45.1957 C.2       2 UNK         0.5000 
     61 O           5.7278  -11.2309  -44.8911 O.2       2 UNK        -0.5000 
     62 CA          3.4757  -11.1012  -44.0793 C.3       2 UNK         0.1400 
     63 CB          3.2306   -9.6453  -43.6562 C.3       2 UNK        -0.1800 
     64 N           2.1932  -11.7211  -44.4300 N.am      2 UNK        -0.5000 
     65 C           2.0202  -13.0085  -44.7586 C.2       1 UNK         0.5000 
     66 O           2.9411  -13.8244  -44.8273 O.2       1 UNK        -0.5000 
     67 C          -0.9866  -21.3310  -47.0166 C.2       11 UNK         0.5000 
     68 O          -0.5661  -22.0162  -47.9470 O.2       11 UNK        -0.5000 
     69 N          -2.2878  -21.0681  -46.8184 N.am      12 UNK        -0.5000 
     70 CA         -3.3694  -21.5886  -47.6537 C.3       12 UNK         0.1400 
     71 CB         -4.7135  -20.9861  -47.2222 C.3       12 UNK        -0.1800 
     72 C          -3.4366  -23.1241  -47.6487 C.2       12 UNK         0.5000 
     73 O          -3.5917  -23.7144  -48.7166 O.2       12 UNK        -0.5000 
     74 N          -3.2816  -23.7444  -46.4702 N.am      13 UNK        -0.5000 
     75 CA         -3.2140  -25.1973  -46.3057 C.3       13 UNK         0.1400 
     76 CB         -3.2177  -25.5576  -44.8128 C.3       13 UNK        -0.1800 
     77 C          -2.0009  -25.8175  -47.0228 C.2       13 UNK         0.5000 
     78 O          -2.1665  -26.7997  -47.7474 O.2       13 UNK        -0.5000 
     79 N          -0.8192  -25.2043  -46.8582 N.am      14 UNK        -0.5000 
     80 CA          0.4233  -25.5875  -47.5370 C.3       14 UNK         0.1400 
     81 CB          1.5896  -24.7619  -46.9734 C.3       14 UNK        -0.1800 
     82 C           0.3436  -25.4437  -49.0701 C.2       14 UNK         0.5000 
     83 O           0.8955  -26.2743  -49.7919 O.2       14 UNK        -0.5000 
     84 N          -0.3839  -24.4205  -49.5336 N.am      15 UNK        -0.5000 
     85 CA         -0.6980  -24.1517  -50.9363 C.3       15 UNK         0.1400 
     86 CB         -0.9597  -22.6442  -51.0967 C.3       15 UNK        -0.1800 
     87 C          -1.8743  -24.9906  -51.4852 C.2       15 UNK         0.5000 
     88 O          -2.3250  -24.7158  -52.5967 O.2       15 UNK        -0.5000 
     89 N          -2.3581  -25.9839  -50.7223 N.am      16 UNK        -0.5000 
     90 CA         -3.4363  -26.9190  -51.0621 C.3       16 UNK         0.1400 
     91 CB         -3.0245  -27.8292  -52.2385 C.3       16 UNK        -0.1800 
     92 C          -4.7783  -26.1973  -51.2932 C.2       16 UNK         0.5000 
     93 O          -5.3369  -26.2459  -52.3907 O.2       16 UNK        -0.5000 
     94 N          -5.2417  -25.5137  -50.2384 N.am      17 UNK        -0.5000 
     95 CA         -6.4295  -24.6564  -50.1780 C.3       17 UNK         0.1400 
     96 CB         -7.7214  -25.4539  -50.4564 C.3       17 UNK        -0.1800 
     97 C          -6.2715  -23.4098  -51.0686 C.2       17 UNK         0.5000 
     98 O          -7.1693  -23.0805  -51.8460 O.2       17 UNK        -0.5000 
     99 N          -5.1041  -22.7569  -50.9491 N.am      18 UNK        -0.5000 
    100 CA        -4.6850  -21.5529  -51.6792 C.3       18 UNK         0.1400 
    101 CB        -5.5127  -20.3376  -51.2094 C.3       18 UNK        -0.1800 
    102 C         -4.7251  -21.7465  -53.2098 C.2       18 UNK         0.5000 
    103 O         -5.1676  -20.8567  -53.9373 O.2       18 UNK        -0.5000 
    104 N         -4.3550  -22.9510  -53.6708 N.am      19 UNK        -0.5000 
    105 CA        -4.4446  -23.4493  -55.0501 C.3       19 UNK         0.1400 
    106 CB        -3.4108  -22.7227  -55.9348 C.3       19 UNK        -0.1800 
    107 C         -5.8661  -23.3939  -55.6629 C.2       19 UNK         0.5000 
    108 O         -6.0038  -23.5081  -56.8818 O.2       19 UNK        -0.5000 
    109 N         -6.8876  -23.1792  -54.8176 N.am      20 UNK        -0.5000 
    110 CA        -8.2725  -22.8341  -55.1413 C.3       20 UNK         0.1400 
    111 CB        -8.9928  -24.0376  -55.7842 C.3       20 UNK        -0.1800 
    112 C         -8.4129  -21.5340  -55.9702 C.2       20 UNK         0.5000 
    113 O         -9.4054  -21.3884  -56.6876 O.2       20 UNK        -0.5000 
    114 N         -7.4353  -20.6148  -55.8814 N.am      21 UNK        -0.5000 
    115 CA        -7.3707  -19.4280  -56.7419 C.3       21 UNK         0.1400 
    116 CB        -6.8640  -19.8315  -58.1412 C.3       21 UNK        -0.1800 
    117 C         -6.5203  -18.2663  -56.1963 C.2       21 UNK         0.5000 
    118 O         -6.7625  -17.1286  -56.6032 O.2       21 UNK        -0.5000 
    119 N         -5.5304  -18.5356  -55.3335 N.am      22 UNK        -0.5000 
    120 CA        -4.5617  -17.5337  -54.8495 C.3       22 UNK         0.1400 
    121 C         -5.0929  -16.6045  -53.7157 C.2       22 UNK         0.5000 
    122 N         -6.2271  -16.9016  -53.0924 N.am      22 UNK        -0.7600 
    123 O         -4.4813  -15.5813  -53.4203 O.2       22 UNK        -0.5000 
    124 C124       -3.1564  -18.1698  -54.5937 C.3       23 UNK        -0.0398 
    125 S125       -2.6571  -18.5073  -52.8615 S.3       23 UNK        -0.2404 
    126 C126       -1.3416  -17.2661  -52.6617 C.3       23 UNK        -0.0205 
    127 H127       -1.2451  -12.4745  -41.0134 H         1 UNK         0.0600 
    128 H128       -2.3832  -13.6286  -41.7168 H         1 UNK         0.0600 
    129 H129       -0.7351  -14.1339  -41.3175 H         1 UNK         0.0600 
    130 H130        0.3736  -14.4955  -43.2255 H         1 UNK         0.3000 
    131 H131        0.0723  -12.6269  -45.5398 H         1 UNK         0.0600 
    132 H132        1.1699  -14.5890  -46.7936 H         1 UNK         0.0800 
    133 H133        0.8340  -15.5900  -45.4049 H         1 UNK         0.0800 
    134 H134       -1.9648  -14.2737  -48.6944 H         1 UNK         0.0800 
    135 H135       -0.2737  -13.8930  -48.5168 H         1 UNK         0.0800 
    136 H136       -1.8093  -15.2877  -50.8525 H         1 UNK         0.1150 
    137 H137        0.2240  -19.0274  -51.2996 H         1 UNK         0.1150 
    138 H138        0.6247  -16.7863  -47.6702 H         1 UNK         0.1150 
    139 H139        0.9101  -20.1327  -49.0634 H         1 UNK         0.0800 
    140 H140        2.3078  -19.1882  -49.4956 H         1 UNK         0.0800 
    141 H141       -0.4670  -18.7651  -46.7201 H         1 UNK         0.0800 
    142 H142        0.4886  -18.7765  -45.2792 H         1 UNK         0.0800 
    143 H143        0.9219  -21.3762  -46.0705 H         1 UNK         0.0600 
    144 H144       -0.6604  -20.2198  -44.0322 H         1 UNK         0.3000 
    145 H145       -1.6509  -23.3075  -42.5045 H         1 UNK         0.0600 
    146 H146        0.2743  -21.0518  -41.7221 H         1 UNK         0.0600 
    147 H147       -0.6123  -22.0768  -40.5928 H         1 UNK         0.0600 
    148 H148        0.6072  -22.7749  -41.6472 H         1 UNK         0.0600 
    149 H149       -2.1744  -20.5177  -41.9838 H         1 UNK         0.3000 
    150 H150       -5.2771  -20.3680  -43.7368 H         1 UNK         0.0600 
    151 H151       -5.8135  -21.5051  -41.5771 H         1 UNK         0.0600 
    152 H152       -6.0964  -19.7747  -41.4758 H         1 UNK         0.0600 
    153 H153       -4.6588  -20.4788  -40.7348 H         1 UNK         0.0600 
    154 H154       -3.9207  -18.5032  -42.0481 H         1 UNK         0.3000 
    155 H155       -1.9573  -16.9667  -44.5955 H         1 UNK         0.0600 
    156 H156       -4.2656  -16.0002  -44.7881 H         1 UNK         0.0600 
    157 H157       -3.1985  -14.9763  -43.8456 H         1 UNK         0.0600 
    158 H158       -4.4030  -15.9787  -43.0330 H         1 UNK         0.0600 
    159 H159       -2.1545  -16.2211  -41.9211 H         1 UNK         0.3000 
    160 H160       -0.2938  -16.3865  -40.6693 H         1 UNK         0.0600 
    161 H161        0.0660  -18.0701  -38.8726 H         1 UNK         0.0600 
    162 H162       -0.2792  -19.3832  -39.9958 H         1 UNK         0.0600 
    163 H163       -1.5439  -18.2439  -39.5525 H         1 UNK         0.0600 
    164 H164        1.7821  -18.4007  -40.8723 H         1 UNK         0.3000 
    165 H165        3.9033  -17.6486  -41.5325 H         1 UNK         0.0600 
    166 H166        4.3558  -18.7142  -43.7593 H         1 UNK         0.0600 
    167 H167        2.7664  -19.1890  -43.1773 H         1 UNK         0.0600 
    168 H168        2.9110  -17.9616  -44.4290 H         1 UNK         0.0600 
    169 H169        3.6928  -15.4460  -43.4913 H         1 UNK         0.3000 
    170 H170        5.7526  -13.8347  -42.9346 H         1 UNK         0.0600 
    171 H171        7.9981  -14.5940  -42.2727 H         1 UNK         0.0600 
    172 H172        8.1698  -15.5368  -43.7454 H         1 UNK         0.0600 
    173 H173        8.0894  -13.7770  -43.8248 H         1 UNK         0.0600 
    174 H174        5.0479  -13.8919  -45.0164 H         1 UNK         0.3000 
    175 H175        5.9192  -15.4191  -47.9791 H         1 UNK         0.0600 
    176 H176        3.4682  -15.9216  -48.2416 H         1 UNK         0.0600 
    177 H177        4.3067  -17.1609  -47.3226 H         1 UNK         0.0600 
    178 H178        3.3006  -15.9894  -46.4866 H         1 UNK         0.0600 
    179 H179        3.8959  -13.5868  -46.8346 H         1 UNK         0.3000 
    180 H180        5.7651  -10.6734  -47.5796 H         1 UNK         0.0600 
    181 H181        3.2573  -11.7164  -49.0063 H         1 UNK         0.0600 
    182 H182        4.7248  -11.1559  -49.7986 H         1 UNK         0.0600 
    183 H183        3.7477  -10.0269  -48.8742 H         1 UNK         0.0600 
    184 H184        3.0952  -11.1207  -46.6169 H         1 UNK         0.3000 
    185 H185        3.8763  -11.6430  -43.2199 H         1 UNK         0.0600 
    186 H186        2.5550   -9.5907  -42.8023 H         1 UNK         0.0600 
    187 H187        4.1628   -9.1610  -43.3621 H         1 UNK         0.0600 
    188 H188        2.7969   -9.0583  -44.4667 H         1 UNK         0.0600 
    189 H189        1.3776  -11.1278  -44.3672 H         1 UNK         0.3000 
    190 H190       -2.5638  -20.4594  -46.0518 H         1 UNK         0.3000 
    191 H191       -3.1736  -21.2700  -48.6793 H         1 UNK         0.0600 
    192 H192       -4.9432  -21.2168  -46.1817 H         1 UNK         0.0600 
    193 H193       -5.5303  -21.3723  -47.8334 H         1 UNK         0.0600 
    194 H194       -4.7109  -19.9016  -47.3320 H         1 UNK         0.0600 
    195 H195       -3.2099  -23.1872  -45.6247 H         1 UNK         0.3000 
    196 H196       -4.1143  -25.6221  -46.7544 H         1 UNK         0.0600 
    197 H197       -2.3630  -25.1286  -44.2899 H         1 UNK         0.0600 
    198 H198       -3.1808  -26.6385  -44.6716 H         1 UNK         0.0600 
    199 H199       -4.1227  -25.1969  -44.3239 H         1 UNK         0.0600 
    200 H200       -0.7616  -24.4158  -46.2191 H         1 UNK         0.3000 
    201 H201        0.6117  -26.6396  -47.3137 H         1 UNK         0.0600 
    202 H202        1.4483  -23.6947  -47.1464 H         1 UNK         0.0600 
    203 H203        2.5330  -25.0485  -47.4397 H         1 UNK         0.0600 
    204 H204        1.6974  -24.9142  -45.8994 H         1 UNK         0.0600 
    205 H205       -0.7391  -23.7450  -48.8631 H         1 UNK         0.3000 
    206 H206        0.1737  -24.4039  -51.5431 H         1 UNK         0.0600 
    207 H207       -0.0830  -22.0622  -50.8118 H         1 UNK         0.0600 
    208 H208       -1.1990  -22.3817  -52.1280 H         1 UNK         0.0600 
    209 H209       -1.7876  -22.3196  -50.4682 H         1 UNK         0.0600 
    210 H210       -1.9612  -26.1052  -49.7984 H         1 UNK         0.3000 
    211 H211       -3.5738  -27.5595  -50.1896 H         1 UNK         0.0600 
    212 H212       -2.8886  -27.2685  -53.1638 H         1 UNK         0.0600 
    213 H213       -3.7857  -28.5870  -52.4270 H         1 UNK         0.0600 
    214 H214       -2.0923  -28.3515  -52.0237 H         1 UNK         0.0600 
    215 H215       -4.6341  -25.4455  -49.4309 H         1 UNK         0.3000 
    216 H216       -6.4881  -24.2901  -49.1520 H         1 UNK         0.0600 
    217 H217       -7.7935  -26.3268  -49.8077 H         1 UNK         0.0600 
    218 H218       -8.6029  -24.8389  -50.2725 H         1 UNK         0.0600 
    219 H219       -7.7772  -25.7972  -51.4897 H         1 UNK         0.0600 
    220 H220       -4.4349  -23.1312  -50.2808 H         1 UNK         0.3000 
    221 H221       -3.6442  -21.3621  -51.4219 H         1 UNK         0.0600 
    222 H222       -6.5688  -20.4452  -51.4578 H         1 UNK         0.0600 
    223 H223       -5.4338  -20.2002  -50.1315 H         1 UNK         0.0600 
    224 H224       -5.1656  -19.4162  -51.6758 H         1 UNK         0.0600 
    225 H225       -3.9705  -23.6211  -53.0124 H         1 UNK         0.3000 
    226 H226       -4.1706  -24.5044  -55.0078 H         1 UNK         0.0600 
    227 H227       -2.4139  -22.7742  -55.4968 H         1 UNK         0.0600 
    228 H228       -3.3518  -23.1761  -56.9248 H         1 UNK         0.0600 
    229 H229       -3.6636  -21.6707  -56.0714 H         1 UNK         0.0600 
    230 H230       -6.6714  -23.1232  -53.8274 H         1 UNK         0.3000 
    231 H231       -8.7596  -22.6318  -54.1866 H         1 UNK         0.0600 
    232 H232       -8.8801  -24.9346  -55.1751 H         1 UNK         0.0600 
    233 H233       -8.6057  -24.2565  -56.7796 H         1 UNK         0.0600 
    234 H234      -10.0621  -23.8481  -55.8836 H         1 UNK         0.0600 
    235 H235       -6.6620  -20.7768  -55.2444 H         1 UNK         0.3000 
    236 H236       -8.3808  -19.0262  -56.8477 H         1 UNK         0.0600 
    237 H237       -6.7776  -18.9640  -58.7968 H         1 UNK         0.0600 
    238 H238       -5.8819  -20.3031  -58.0867 H         1 UNK         0.0600 
    239 H239       -7.5432  -20.5321  -58.6268 H         1 UNK         0.0600 
    240 H240       -5.4002  -19.4736  -54.9592 H         1 UNK         0.3000 
    241 H241       -4.4064  -16.8492  -55.6862 H         1 UNK         0.0600 
    242 H242       -6.5724  -16.2908  -52.3695 H         1 UNK         0.3800 
    243 H243       -6.7375  -17.7345  -53.3370 H         1 UNK         0.3800 
    244 H244       -3.0593  -19.1048  -55.1473 H         1 UNK         0.0800 
    245 H245       -2.4016  -17.5190  -55.0370 H         1 UNK         0.0800 
    246 H246       -0.5068  -17.5185  -53.3173 H         1 UNK         0.0800 
    247 H247       -1.7128  -16.2959  -52.9962 H         1 UNK         0.0800 
@<TRIPOS>BOND
     1    1    2 1    
     2    1  127 1    
     3    1  128 1    
     4    1  129 1    
     5    2    3 2    
     6    2    4 am   BACKBONE|DICT|INTERRES
     7    4    5 1    
     8    4  130 1    
     9    5    6 1    
    10    5   65 1    
    11    5  131 1    
    12    6    7 1    
    13    6  132 1    
    14    6  133 1    
    15    7    8 1    
    16    8    9 1    
    17    8  134 1    
    18    8  135 1    
    19    9   10 ar   
    20    9   14 ar   
    21   10   11 ar   
    22   10  136 1    
    23   11   12 ar   
    24   11  126 1    
    25   12   13 ar   
    26   12  137 1    
    27   13   14 ar   
    28   13   15 1    
    29   14  138 1    
    30   15   16 1    
    31   15  139 1    
    32   15  140 1    
    33   16   17 1    
    34   17   18 1    
    35   17  141 1    
    36   17  142 1    
    37   18   19 1    
    38   18   67 1    
    39   18  143 1    
    40   19   20 am   BACKBONE|DICT|INTERRES
    41   19  144 1    
    42   20   21 2    
    43   20   22 1    
    44   22   23 1    
    45   22   24 1    
    46   22  145 1    
    47   23  146 1    
    48   23  147 1    
    49   23  148 1    
    50   24   25 am   BACKBONE|DICT|INTERRES
    51   24  149 1    
    52   25   26 2    
    53   25   27 1    
    54   27   28 1    
    55   27   29 1    
    56   27  150 1    
    57   28  151 1    
    58   28  152 1    
    59   28  153 1    
    60   29   30 am   BACKBONE|DICT|INTERRES
    61   29  154 1    
    62   30   31 2    
    63   30   32 1    
    64   32   33 1    
    65   32   34 1    
    66   32  155 1    
    67   33  156 1    
    68   33  157 1    
    69   33  158 1    
    70   34   35 am   BACKBONE|DICT|INTERRES
    71   34  159 1    
    72   35   36 2    
    73   35   37 1    
    74   37   38 1    
    75   37   39 1    
    76   37  160 1    
    77   38  161 1    
    78   38  162 1    
    79   38  163 1    
    80   39   40 am   BACKBONE|DICT|INTERRES
    81   39  164 1    
    82   40   41 2    
    83   40   42 1    
    84   42   43 1    
    85   42   44 1    
    86   42  165 1    
    87   43  166 1    
    88   43  167 1    
    89   43  168 1    
    90   44   45 am   BACKBONE|DICT|INTERRES
    91   44  169 1    
    92   45   46 2    
    93   45   47 1    
    94   47   48 1    
    95   47   49 1    
    96   47  170 1    
    97   48  171 1    
    98   48  172 1    
    99   48  173 1    
   100   49   50 am   BACKBONE|DICT|INTERRES
   101   49  174 1    
   102   50   51 2    
   103   50   52 1    
   104   52   53 1    
   105   52   54 1    
   106   52  175 1    
   107   53  176 1    
   108   53  177 1    
   109   53  178 1    
   110   54   55 am   BACKBONE|DICT|INTERRES
   111   54  179 1    
   112   55   56 2    
   113   55   57 1    
   114   57   58 1    
   115   57   59 1    
   116   57  180 1    
   117   58  181 1    
   118   58  182 1    
   119   58  183 1    
   120   59   60 am   BACKBONE|DICT|INTERRES
   121   59  184 1    
   122   60   61 2    
   123   60   62 1    
   124   62   63 1    
   125   62   64 1    
   126   62  185 1    
   127   63  186 1    
   128   63  187 1    
   129   63  188 1    
   130   64   65 am   BACKBONE|DICT|INTERRES
   131   64  189 1    
   132   65   66 2    
   133   67   68 2    
   134   67   69 am   BACKBONE|DICT|INTERRES
   135   69   70 1    
   136   69  190 1    
   137   70   71 1    
   138   70   72 1    
   139   70  191 1    
   140   71  192 1    
   141   71  193 1    
   142   71  194 1    
   143   72   73 2    
   144   72   74 am   BACKBONE|DICT|INTERRES
   145   74   75 1    
   146   74  195 1    
   147   75   76 1    
   148   75   77 1    
   149   75  196 1    
   150   76  197 1    
   151   76  198 1    
   152   76  199 1    
   153   77   78 2    
   154   77   79 am   BACKBONE|DICT|INTERRES
   155   79   80 1    
   156   79  200 1    
   157   80   81 1    
   158   80   82 1    
   159   80  201 1    
   160   81  202 1    
   161   81  203 1    
   162   81  204 1    
   163   82   83 2    
   164   82   84 am   BACKBONE|DICT|INTERRES
   165   84   85 1    
   166   84  205 1    
   167   85   86 1    
   168   85   87 1    
   169   85  206 1    
   170   86  207 1    
   171   86  208 1    
   172   86  209 1    
   173   87   88 2    
   174   87   89 am   BACKBONE|DICT|INTERRES
   175   89   90 1    
   176   89  210 1    
   177   90   91 1    
   178   90   92 1    
   179   90  211 1    
   180   91  212 1    
   181   91  213 1    
   182   91  214 1    
   183   92   93 2    
   184   92   94 am   BACKBONE|DICT|INTERRES
   185   94   95 1    
   186   94  215 1    
   187   95   96 1    
   188   95   97 1    
   189   95  216 1    
   190   96  217 1    
   191   96  218 1    
   192   96  219 1    
   193   97   98 2    
   194   97   99 am   BACKBONE|DICT|INTERRES
   195   99  100 1    
   196   99  220 1    
   197  100  101 1    
   198  100  102 1    
   199  100  221 1    
   200  101  222 1    
   201  101  223 1    
   202  101  224 1    
   203  102  103 2    
   204  102  104 am   BACKBONE|DICT|INTERRES
   205  104  105 1    
   206  104  225 1    
   207  105  106 1    
   208  105  107 1    
   209  105  226 1    
   210  106  227 1    
   211  106  228 1    
   212  106  229 1    
   213  107  108 2    
   214  107  109 am   BACKBONE|DICT|INTERRES
   215  109  110 1    
   216  109  230 1    
   217  110  111 1    
   218  110  112 1    
   219  110  231 1    
   220  111  232 1    
   221  111  233 1    
   222  111  234 1    
   223  112  113 2    
   224  112  114 am   BACKBONE|DICT|INTERRES
   225  114  115 1    
   226  114  235 1    
   227  115  116 1    
   228  115  117 1    
   229  115  236 1    
   230  116  237 1    
   231  116  238 1    
   232  116  239 1    
   233  117  118 2    
   234  117  119 am   BACKBONE|DICT|INTERRES
   235  119  120 1    
   236  119  240 1    
   237  120  121 1    
   238  120  124 1    
   239  120  241 1    
   240  121  122 am   BACKBONE|DICT|INTERRES
   241  121  123 2    
   242  122  242 1    
   243  122  243 1    
   244  124  125 1    
   245  124  244 1    
   246  124  245 1    
   247  125  126 1    
   248  126  246 1    
   249  126  247 1    
@<TRIPOS>SUBSTRUCTURE
     1 UNK         1 GROUP             0       ****    0 ROOT    
