@<TRIPOS>MOLECULE
3R540
247   249    1
SMALL
USER_CHARGES


@<TRIPOS>ATOM
      1 CA          4.7685  -15.1666  -47.1973 C.3       0 UNK        -0.1800 
      2 C           3.3119  -15.5667  -47.0149 C.2       0 UNK         0.5000 
      3 O           2.9056  -15.9055  -45.9047 O.2       0 UNK        -0.5000 
      4 N           2.5231  -15.5241  -48.0974 N.am      1 UNK        -0.5000 
      5 CA          1.0871  -15.8334  -48.0931 C.3       1 UNK         0.1400 
      6 C6          0.5714  -16.2435  -49.4950 C.3       23 UNK        -0.0398 
      7 S7          0.7337  -14.9673  -50.8037 S.3       23 UNK        -0.2404 
      8 C8         -0.9089  -14.1622  -50.8481 C.3       23 UNK        -0.0205 
      9 C9         -2.0451  -15.1552  -51.0428 C.ar      23 UNK        -0.0193 
     10 C10        -2.2863  -15.7278  -52.2954 C.ar      23 UNK        -0.1150 
     11 C11        -3.2676  -16.7130  -52.4445 C.ar      23 UNK        -0.0193 
     12 C12        -4.0026  -17.1209  -51.3287 C.ar      23 UNK        -0.1150 
     13 C13        -3.7712  -16.5592  -50.0726 C.ar      23 UNK        -0.0193 
     14 C14        -2.8211  -15.5445  -49.9477 C.ar      23 UNK        -0.1150 
     15 C15        -4.4946  -17.0957  -48.8443 C.3       23 UNK        -0.0205 
     16 S16        -3.3061  -17.7698  -47.6321 S.3       23 UNK        -0.2404 
     17 C17        -4.1852  -19.1997  -46.9139 C.3       23 UNK        -0.0398 
     18 CA         -3.4015  -20.5135  -47.1505 C.3       11 UNK         0.1400 
     19 N          -2.0957  -20.5097  -46.4794 N.am      11 UNK        -0.5000 
     20 C          -1.1161  -21.3793  -46.7544 C.2       10 UNK         0.5000 
     21 O          -1.2261  -22.2921  -47.5728 O.2       10 UNK        -0.5000 
     22 CA          0.1938  -21.2283  -45.9687 C.3       10 UNK         0.1400 
     23 CB          0.9762  -19.9970  -46.4528 C.3       10 UNK        -0.1800 
     24 N          -0.0053  -21.1529  -44.5225 N.am      10 UNK        -0.5000 
     25 C          -0.5956  -22.0888  -43.7656 C.2       9 UNK         0.5000 
     26 O          -1.1084  -23.1135  -44.2138 O.2       9 UNK        -0.5000 
     27 CA         -0.6410  -21.8242  -42.2535 C.3       9 UNK         0.1400 
     28 CB          0.7222  -22.1075  -41.6038 C.3       9 UNK        -0.1800 
     29 N          -1.0446  -20.4495  -41.9726 N.am      9 UNK        -0.5000 
     30 C          -2.3141  -20.0225  -41.9932 C.2       8 UNK         0.5000 
     31 O          -3.2817  -20.7594  -42.1800 O.2       8 UNK        -0.5000 
     32 CA         -2.5437  -18.5142  -41.7889 C.3       8 UNK         0.1400 
     33 CB         -2.7048  -18.1897  -40.2962 C.3       8 UNK        -0.1800 
     34 N          -1.4759  -17.6843  -42.3462 N.am      8 UNK        -0.5000 
     35 C          -1.1827  -17.5917  -43.6506 C.2       7 UNK         0.5000 
     36 O          -1.7586  -18.2275  -44.5349 O.2       7 UNK        -0.5000 
     37 CA         -0.0132  -16.6587  -44.0117 C.3       7 UNK         0.1400 
     38 CB         -0.4719  -15.1943  -43.9483 C.3       7 UNK        -0.1800 
     39 N           1.1702  -16.8168  -43.1607 N.am      7 UNK        -0.5000 
     40 C           1.8046  -17.9682  -42.8887 C.2       6 UNK         0.5000 
     41 O           1.4180  -19.0688  -43.2786 O.2       6 UNK        -0.5000 
     42 CA          3.0821  -17.9030  -42.0287 C.3       6 UNK         0.1400 
     43 CB          4.3240  -18.0629  -42.9189 C.3       6 UNK        -0.1800 
     44 N           3.2191  -16.6724  -41.2511 N.am      6 UNK        -0.5000 
     45 C           2.4219  -16.2854  -40.2455 C.2       5 UNK         0.5000 
     46 O           1.4899  -16.9635  -39.8119 O.2       5 UNK        -0.5000 
     47 CA          2.6968  -14.8899  -39.6457 C.3       5 UNK         0.1400 
     48 CB          3.4699  -15.0162  -38.3241 C.3       5 UNK        -0.1800 
     49 N           3.4328  -13.9919  -40.5458 N.am      5 UNK        -0.5000 
     50 C           2.9678  -13.5379  -41.7173 C.2       4 UNK         0.5000 
     51 O           1.8633  -13.8409  -42.1736 O.2       4 UNK        -0.5000 
     52 CA          3.9277  -12.6623  -42.5424 C.3       4 UNK         0.1400 
     53 CB          4.8184  -13.5475  -43.4285 C.3       4 UNK        -0.1800 
     54 N           3.1981  -11.7319  -43.3990 N.am      4 UNK        -0.5000 
     55 C           2.5125  -10.6642  -42.9785 C.2       3 UNK         0.5000 
     56 O           2.5092  -10.2762  -41.8092 O.2       3 UNK        -0.5000 
     57 CA          1.6758   -9.9046  -44.0285 C.3       3 UNK         0.1400 
     58 CB          2.5450   -8.9112  -44.8237 C.3       3 UNK        -0.1800 
     59 N           0.8805  -10.7637  -44.9205 N.am      3 UNK        -0.5000 
     60 C           1.2992  -11.6158  -45.8661 C.2       2 UNK         0.5000 
     61 O           2.4855  -11.8203  -46.1419 O.2       2 UNK        -0.5000 
     62 CA          0.2004  -12.3694  -46.6277 C.3       2 UNK         0.1400 
     63 CB         -0.4743  -11.4707  -47.6776 C.3       2 UNK        -0.1800 
     64 N           0.8019  -13.5211  -47.2860 N.am      2 UNK        -0.5000 
     65 C           0.2270  -14.7148  -47.4624 C.2       1 UNK         0.5000 
     66 O          -0.9347  -14.9568  -47.1427 O.2       1 UNK        -0.5000 
     67 C          -4.2532  -21.7461  -46.7786 C.2       11 UNK         0.5000 
     68 O          -5.0785  -22.1663  -47.5889 O.2       11 UNK        -0.5000 
     69 N          -4.0385  -22.3061  -45.5804 N.am      12 UNK        -0.5000 
     70 CA         -4.7715  -23.4607  -45.0701 C.3       12 UNK         0.1400 
     71 CB         -4.8265  -23.3925  -43.5351 C.3       12 UNK        -0.1800 
     72 C          -4.1644  -24.7932  -45.5394 C.2       12 UNK         0.5000 
     73 O          -4.8585  -25.5857  -46.1769 O.2       12 UNK        -0.5000 
     74 N          -2.8973  -25.0369  -45.1816 N.am      13 UNK        -0.5000 
     75 CA         -2.2488  -26.3415  -45.3104 C.3       13 UNK         0.1400 
     76 CB         -1.2117  -26.5030  -44.1875 C.3       13 UNK        -0.1800 
     77 C          -1.5892  -26.5475  -46.6804 C.2       13 UNK         0.5000 
     78 O          -1.6870  -27.6411  -47.2384 O.2       13 UNK        -0.5000 
     79 N          -0.9252  -25.5047  -47.1953 N.am      14 UNK        -0.5000 
     80 CA         -0.1910  -25.5498  -48.4634 C.3       14 UNK         0.1400 
     81 CB          1.0927  -24.7121  -48.3309 C.3       14 UNK        -0.1800 
     82 C          -1.0362  -25.0685  -49.6560 C.2       14 UNK         0.5000 
     83 O          -0.5446  -25.0970  -50.7849 O.2       14 UNK        -0.5000 
     84 N          -2.2625  -24.5917  -49.3903 N.am      15 UNK        -0.5000 
     85 CA         -3.1985  -23.9759  -50.3383 C.3       15 UNK         0.1400 
     86 CB         -3.7428  -25.0283  -51.3255 C.3       15 UNK        -0.1800 
     87 C          -2.5908  -22.7471  -51.0475 C.2       15 UNK         0.5000 
     88 O          -2.8115  -22.5518  -52.2451 O.2       15 UNK        -0.5000 
     89 N          -1.8099  -21.9652  -50.2877 N.am      16 UNK        -0.5000 
     90 CA         -1.0111  -20.8136  -50.7113 C.3       16 UNK         0.1400 
     91 CB         -1.9176  -19.6490  -51.1406 C.3       16 UNK        -0.1800 
     92 C           0.0546  -21.1966  -51.7575 C.2       16 UNK         0.5000 
     93 O           0.2039  -20.5187  -52.7738 O.2       16 UNK        -0.5000 
     94 N           0.7656  -22.2971  -51.4687 N.am      17 UNK        -0.5000 
     95 CA          1.7857  -22.9463  -52.2974 C.3       17 UNK         0.1400 
     96 CB          2.9998  -22.0207  -52.5248 C.3       17 UNK        -0.1800 
     97 C           1.1875  -23.5144  -53.5996 C.2       17 UNK         0.5000 
     98 O           1.6686  -23.2125  -54.6934 O.2       17 UNK        -0.5000 
     99 N           0.1395  -24.3354  -53.4350 N.am      18 UNK        -0.5000 
    100 CA        -0.6141  -25.0389  -54.4779 C.3       18 UNK         0.1400 
    101 CB         0.2649  -26.1098  -55.1573 C.3       18 UNK        -0.1800 
    102 C         -1.3020  -24.0910  -55.4840 C.2       18 UNK         0.5000 
    103 O         -1.3596  -24.3887  -56.6783 O.2       18 UNK        -0.5000 
    104 N         -1.8357  -22.9746  -54.9742 N.am      19 UNK        -0.5000 
    105 CA        -2.5728  -21.9610  -55.7317 C.3       19 UNK         0.1400 
    106 CB        -2.0504  -20.5731  -55.3254 C.3       19 UNK        -0.1800 
    107 C         -4.0930  -22.0786  -55.5013 C.2       19 UNK         0.5000 
    108 O         -4.8232  -21.1205  -55.7613 O.2       19 UNK        -0.5000 
    109 N         -4.5427  -23.2292  -54.9717 N.am      20 UNK        -0.5000 
    110 CA        -5.9247  -23.5643  -54.5989 C.3       20 UNK         0.1400 
    111 CB        -6.8017  -23.7087  -55.8596 C.3       20 UNK        -0.1800 
    112 C         -6.5248  -22.5837  -53.5675 C.2       20 UNK         0.5000 
    113 O         -7.7299  -22.3231  -53.5860 O.2       20 UNK        -0.5000 
    114 N         -5.6505  -22.0094  -52.7249 N.am      21 UNK        -0.5000 
    115 CA        -5.9162  -20.9418  -51.7566 C.3       21 UNK         0.1400 
    116 CB        -6.7581  -21.4781  -50.5822 C.3       21 UNK        -0.1800 
    117 C         -6.5180  -19.6692  -52.3944 C.2       21 UNK         0.5000 
    118 O         -7.2034  -18.9124  -51.7055 O.2       21 UNK        -0.5000 
    119 N         -6.2477  -19.4522  -53.6922 N.am      22 UNK        -0.5000 
    120 CA        -6.8044  -18.3755  -54.5284 C.3       22 UNK         0.1400 
    121 C         -8.3536  -18.4596  -54.7222 C.2       22 UNK         0.5000 
    122 N         -8.9903  -19.6034  -54.4898 N.am      22 UNK        -0.7600 
    123 O         -8.9909  -17.4915  -55.1284 O.2       22 UNK        -0.5000 
    124 C124       -6.2846  -16.9630  -54.1125 C.3       23 UNK        -0.0398 
    125 S125       -4.6656  -16.5566  -54.8583 S.3       23 UNK        -0.2404 
    126 C126       -3.4670  -17.4060  -53.7841 C.3       23 UNK        -0.0205 
    127 H127        5.0096  -14.9792  -48.2439 H         1 UNK         0.0600 
    128 H128        5.4236  -15.9580  -46.8333 H         1 UNK         0.0600 
    129 H129        4.9799  -14.2596  -46.6308 H         1 UNK         0.0600 
    130 H130        2.9041  -15.2351  -48.9877 H         1 UNK         0.3000 
    131 H131        0.9495  -16.7062  -47.4509 H         1 UNK         0.0600 
    132 H132       -0.4545  -16.6015  -49.4263 H         1 UNK         0.0800 
    133 H133        1.1368  -17.1131  -49.8323 H         1 UNK         0.0800 
    134 H134       -0.9228  -13.4340  -51.6601 H         1 UNK         0.0800 
    135 H135       -1.0540  -13.5926  -49.9302 H         1 UNK         0.0800 
    136 H136       -1.6832  -15.4354  -53.1435 H         1 UNK         0.1150 
    137 H137       -4.7248  -17.9124  -51.4267 H         1 UNK         0.1150 
    138 H138       -2.6371  -15.1125  -48.9754 H         1 UNK         0.1150 
    139 H139       -5.0700  -16.2945  -48.3792 H         1 UNK         0.0800 
    140 H140       -5.2099  -17.8650  -49.1385 H         1 UNK         0.0800 
    141 H141       -5.1877  -19.2625  -47.3402 H         1 UNK         0.0800 
    142 H142       -4.3187  -19.0212  -45.8455 H         1 UNK         0.0800 
    143 H143       -3.2167  -20.5900  -48.2238 H         1 UNK         0.0600 
    144 H144       -1.9348  -19.7701  -45.8003 H         1 UNK         0.3000 
    145 H145        0.8002  -22.1142  -46.1666 H         1 UNK         0.0600 
    146 H146        1.9509  -19.9341  -45.9685 H         1 UNK         0.0600 
    147 H147        1.1498  -20.0394  -47.5288 H         1 UNK         0.0600 
    148 H148        0.4408  -19.0708  -46.2419 H         1 UNK         0.0600 
    149 H149        0.4083  -20.3468  -44.0575 H         1 UNK         0.3000 
    150 H150       -1.3700  -22.5083  -41.8135 H         1 UNK         0.0600 
    151 H151        1.0322  -23.1373  -41.7856 H         1 UNK         0.0600 
    152 H152        0.6793  -21.9671  -40.5237 H         1 UNK         0.0600 
    153 H153        1.5046  -21.4563  -41.9946 H         1 UNK         0.0600 
    154 H154       -0.3048  -19.7671  -41.8806 H         1 UNK         0.3000 
    155 H155       -3.4725  -18.2511  -42.2994 H         1 UNK         0.0600 
    156 H156       -1.7912  -18.3994  -39.7380 H         1 UNK         0.0600 
    157 H157       -3.5055  -18.7823  -39.8516 H         1 UNK         0.0600 
    158 H158       -2.9568  -17.1398  -40.1456 H         1 UNK         0.0600 
    159 H159       -0.9229  -17.1507  -41.6905 H         1 UNK         0.3000 
    160 H160        0.2859  -16.8842  -45.0362 H         1 UNK         0.0600 
    161 H161       -0.6842  -14.8808  -42.9256 H         1 UNK         0.0600 
    162 H162       -1.3797  -15.0381  -44.5319 H         1 UNK         0.0600 
    163 H163        0.2937  -14.5293  -44.3478 H         1 UNK         0.0600 
    164 H164        1.5637  -15.9578  -42.7964 H         1 UNK         0.3000 
    165 H165        3.0473  -18.7414  -41.3300 H         1 UNK         0.0600 
    166 H166        5.2368  -18.0959  -42.3240 H         1 UNK         0.0600 
    167 H167        4.2774  -18.9900  -43.4921 H         1 UNK         0.0600 
    168 H168        4.4144  -17.2420  -43.6320 H         1 UNK         0.0600 
    169 H169        3.9576  -16.0456  -41.5322 H         1 UNK         0.3000 
    170 H170        1.7283  -14.4320  -39.4340 H         1 UNK         0.0600 
    171 H171        2.9367  -15.6549  -37.6186 H         1 UNK         0.0600 
    172 H172        4.4591  -15.4498  -38.4764 H         1 UNK         0.0600 
    173 H173        3.5977  -14.0445  -37.8468 H         1 UNK         0.0600 
    174 H174        4.3542  -13.7110  -40.2417 H         1 UNK         0.3000 
    175 H175        4.5601  -12.0872  -41.8631 H         1 UNK         0.0600 
    176 H176        4.2242  -14.1539  -44.1137 H         1 UNK         0.0600 
    177 H177        5.5053  -12.9463  -44.0245 H         1 UNK         0.0600 
    178 H178        5.4217  -14.2281  -42.8267 H         1 UNK         0.0600 
    179 H179        3.1180  -11.9754  -44.3821 H         1 UNK         0.3000 
    180 H180        0.9460   -9.3155  -43.4707 H         1 UNK         0.0600 
    181 H181        3.3266   -9.4142  -45.3935 H         1 UNK         0.0600 
    182 H182        3.0372   -8.2052  -44.1537 H         1 UNK         0.0600 
    183 H183        1.9418   -8.3304  -45.5215 H         1 UNK         0.0600 
    184 H184       -0.1165  -10.7017  -44.7663 H         1 UNK         0.3000 
    185 H185       -0.5442  -12.7026  -45.9016 H         1 UNK         0.0600 
    186 H186       -0.8871  -10.5702  -47.2216 H         1 UNK         0.0600 
    187 H187        0.2296  -11.1566  -48.4493 H         1 UNK         0.0600 
    188 H188       -1.2991  -11.9896  -48.1654 H         1 UNK         0.0600 
    189 H189        1.7842  -13.4113  -47.5030 H         1 UNK         0.3000 
    190 H190       -3.3125  -21.9279  -44.9885 H         1 UNK         0.3000 
    191 H191       -5.8008  -23.4194  -45.4336 H         1 UNK         0.0600 
    192 H192       -3.8306  -23.3810  -43.0905 H         1 UNK         0.0600 
    193 H193       -5.3605  -24.2500  -43.1237 H         1 UNK         0.0600 
    194 H194       -5.3480  -22.4952  -43.2015 H         1 UNK         0.0600 
    195 H195       -2.3567  -24.3094  -44.7165 H         1 UNK         0.3000 
    196 H196       -2.9979  -27.1260  -45.1805 H         1 UNK         0.0600 
    197 H197       -0.7441  -27.4876  -44.2269 H         1 UNK         0.0600 
    198 H198       -1.6751  -26.4022  -43.2059 H         1 UNK         0.0600 
    199 H199       -0.4167  -25.7599  -44.2595 H         1 UNK         0.0600 
    200 H200       -0.9172  -24.6266  -46.6930 H         1 UNK         0.3000 
    201 H201        0.1101  -26.5766  -48.6810 H         1 UNK         0.0600 
    202 H202        1.6962  -25.0484  -47.4878 H         1 UNK         0.0600 
    203 H203        0.8803  -23.6536  -48.1882 H         1 UNK         0.0600 
    204 H204        1.7114  -24.8020  -49.2246 H         1 UNK         0.0600 
    205 H205       -2.5482  -24.5835  -48.4217 H         1 UNK         0.3000 
    206 H206       -4.0386  -23.6057  -49.7497 H         1 UNK         0.0600 
    207 H207       -4.5430  -24.6139  -51.9376 H         1 UNK         0.0600 
    208 H208       -4.1554  -25.8867  -50.7956 H         1 UNK         0.0600 
    209 H209       -2.9677  -25.3926  -51.9997 H         1 UNK         0.0600 
    210 H210       -1.6803  -22.2350  -49.3137 H         1 UNK         0.3000 
    211 H211       -0.4601  -20.4825  -49.8299 H         1 UNK         0.0600 
    212 H212       -1.3298  -18.7621  -51.3805 H         1 UNK         0.0600 
    213 H213       -2.5996  -19.3764  -50.3363 H         1 UNK         0.0600 
    214 H214       -2.5151  -19.8960  -52.0163 H         1 UNK         0.0600 
    215 H215        0.5122  -22.8024  -50.6324 H         1 UNK         0.3000 
    216 H216        2.1389  -23.8062  -51.7262 H         1 UNK         0.0600 
    217 H217        3.8030  -22.5539  -53.0344 H         1 UNK         0.0600 
    218 H218        3.4008  -21.6574  -51.5786 H         1 UNK         0.0600 
    219 H219        2.7468  -21.1547  -53.1368 H         1 UNK         0.0600 
    220 H220       -0.1615  -24.5294  -52.4809 H         1 UNK         0.3000 
    221 H221       -1.4200  -25.5620  -53.9619 H         1 UNK         0.0600 
    222 H222        1.0686  -25.6631  -55.7433 H         1 UNK         0.0600 
    223 H223        0.7161  -26.7741  -54.4203 H         1 UNK         0.0600 
    224 H224       -0.3255  -26.7305  -55.8323 H         1 UNK         0.0600 
    225 H225       -1.7953  -22.8233  -53.9708 H         1 UNK         0.3000 
    226 H226       -2.4015  -22.0847  -56.8026 H         1 UNK         0.0600 
    227 H227       -2.2402  -20.3706  -54.2721 H         1 UNK         0.0600 
    228 H228       -0.9755  -20.4941  -55.4893 H         1 UNK         0.0600 
    229 H229       -2.5261  -19.7819  -55.9061 H         1 UNK         0.0600 
    230 H230       -3.8512  -23.9353  -54.7669 H         1 UNK         0.3000 
    231 H231       -5.8870  -24.5374  -54.1079 H         1 UNK         0.0600 
    232 H232       -6.3591  -24.4071  -56.5698 H         1 UNK         0.0600 
    233 H233       -6.9387  -22.7542  -56.3689 H         1 UNK         0.0600 
    234 H234       -7.7921  -24.0894  -55.6071 H         1 UNK         0.0600 
    235 H235       -4.6729  -22.2729  -52.8099 H         1 UNK         0.3000 
    236 H236       -4.9456  -20.6454  -51.3567 H         1 UNK         0.0600 
    237 H237       -6.8248  -20.7430  -49.7792 H         1 UNK         0.0600 
    238 H238       -6.3138  -22.3778  -50.1568 H         1 UNK         0.0600 
    239 H239       -7.7751  -21.7203  -50.8916 H         1 UNK         0.0600 
    240 H240       -5.6995  -20.1388  -54.1997 H         1 UNK         0.3000 
    241 H241       -6.4274  -18.5782  -55.5315 H         1 UNK         0.0600 
    242 H242       -9.9868  -19.6508  -54.6315 H         1 UNK         0.3800 
    243 H243       -8.4914  -20.4249  -54.1684 H         1 UNK         0.3800 
    244 H244       -6.9599  -16.1780  -54.4542 H         1 UNK         0.0800 
    245 H245       -6.2428  -16.8442  -53.0308 H         1 UNK         0.0800 
    246 H246       -2.5113  -17.4546  -54.3083 H         1 UNK         0.0800 
    247 H247       -3.7696  -18.4419  -53.6363 H         1 UNK         0.0800 
@<TRIPOS>BOND
     1    1    2 1    
     2    1  127 1    
     3    1  128 1    
     4    1  129 1    
     5    2    3 2    
     6    2    4 am   BACKBONE|DICT|INTERRES
     7    4    5 1    
     8    4  130 1    
     9    5    6 1    
    10    5   65 1    
    11    5  131 1    
    12    6    7 1    
    13    6  132 1    
    14    6  133 1    
    15    7    8 1    
    16    8    9 1    
    17    8  134 1    
    18    8  135 1    
    19    9   10 ar   
    20    9   14 ar   
    21   10   11 ar   
    22   10  136 1    
    23   11   12 ar   
    24   11  126 1    
    25   12   13 ar   
    26   12  137 1    
    27   13   14 ar   
    28   13   15 1    
    29   14  138 1    
    30   15   16 1    
    31   15  139 1    
    32   15  140 1    
    33   16   17 1    
    34   17   18 1    
    35   17  141 1    
    36   17  142 1    
    37   18   19 1    
    38   18   67 1    
    39   18  143 1    
    40   19   20 am   BACKBONE|DICT|INTERRES
    41   19  144 1    
    42   20   21 2    
    43   20   22 1    
    44   22   23 1    
    45   22   24 1    
    46   22  145 1    
    47   23  146 1    
    48   23  147 1    
    49   23  148 1    
    50   24   25 am   BACKBONE|DICT|INTERRES
    51   24  149 1    
    52   25   26 2    
    53   25   27 1    
    54   27   28 1    
    55   27   29 1    
    56   27  150 1    
    57   28  151 1    
    58   28  152 1    
    59   28  153 1    
    60   29   30 am   BACKBONE|DICT|INTERRES
    61   29  154 1    
    62   30   31 2    
    63   30   32 1    
    64   32   33 1    
    65   32   34 1    
    66   32  155 1    
    67   33  156 1    
    68   33  157 1    
    69   33  158 1    
    70   34   35 am   BACKBONE|DICT|INTERRES
    71   34  159 1    
    72   35   36 2    
    73   35   37 1    
    74   37   38 1    
    75   37   39 1    
    76   37  160 1    
    77   38  161 1    
    78   38  162 1    
    79   38  163 1    
    80   39   40 am   BACKBONE|DICT|INTERRES
    81   39  164 1    
    82   40   41 2    
    83   40   42 1    
    84   42   43 1    
    85   42   44 1    
    86   42  165 1    
    87   43  166 1    
    88   43  167 1    
    89   43  168 1    
    90   44   45 am   BACKBONE|DICT|INTERRES
    91   44  169 1    
    92   45   46 2    
    93   45   47 1    
    94   47   48 1    
    95   47   49 1    
    96   47  170 1    
    97   48  171 1    
    98   48  172 1    
    99   48  173 1    
   100   49   50 am   BACKBONE|DICT|INTERRES
   101   49  174 1    
   102   50   51 2    
   103   50   52 1    
   104   52   53 1    
   105   52   54 1    
   106   52  175 1    
   107   53  176 1    
   108   53  177 1    
   109   53  178 1    
   110   54   55 am   BACKBONE|DICT|INTERRES
   111   54  179 1    
   112   55   56 2    
   113   55   57 1    
   114   57   58 1    
   115   57   59 1    
   116   57  180 1    
   117   58  181 1    
   118   58  182 1    
   119   58  183 1    
   120   59   60 am   BACKBONE|DICT|INTERRES
   121   59  184 1    
   122   60   61 2    
   123   60   62 1    
   124   62   63 1    
   125   62   64 1    
   126   62  185 1    
   127   63  186 1    
   128   63  187 1    
   129   63  188 1    
   130   64   65 am   BACKBONE|DICT|INTERRES
   131   64  189 1    
   132   65   66 2    
   133   67   68 2    
   134   67   69 am   BACKBONE|DICT|INTERRES
   135   69   70 1    
   136   69  190 1    
   137   70   71 1    
   138   70   72 1    
   139   70  191 1    
   140   71  192 1    
   141   71  193 1    
   142   71  194 1    
   143   72   73 2    
   144   72   74 am   BACKBONE|DICT|INTERRES
   145   74   75 1    
   146   74  195 1    
   147   75   76 1    
   148   75   77 1    
   149   75  196 1    
   150   76  197 1    
   151   76  198 1    
   152   76  199 1    
   153   77   78 2    
   154   77   79 am   BACKBONE|DICT|INTERRES
   155   79   80 1    
   156   79  200 1    
   157   80   81 1    
   158   80   82 1    
   159   80  201 1    
   160   81  202 1    
   161   81  203 1    
   162   81  204 1    
   163   82   83 2    
   164   82   84 am   BACKBONE|DICT|INTERRES
   165   84   85 1    
   166   84  205 1    
   167   85   86 1    
   168   85   87 1    
   169   85  206 1    
   170   86  207 1    
   171   86  208 1    
   172   86  209 1    
   173   87   88 2    
   174   87   89 am   BACKBONE|DICT|INTERRES
   175   89   90 1    
   176   89  210 1    
   177   90   91 1    
   178   90   92 1    
   179   90  211 1    
   180   91  212 1    
   181   91  213 1    
   182   91  214 1    
   183   92   93 2    
   184   92   94 am   BACKBONE|DICT|INTERRES
   185   94   95 1    
   186   94  215 1    
   187   95   96 1    
   188   95   97 1    
   189   95  216 1    
   190   96  217 1    
   191   96  218 1    
   192   96  219 1    
   193   97   98 2    
   194   97   99 am   BACKBONE|DICT|INTERRES
   195   99  100 1    
   196   99  220 1    
   197  100  101 1    
   198  100  102 1    
   199  100  221 1    
   200  101  222 1    
   201  101  223 1    
   202  101  224 1    
   203  102  103 2    
   204  102  104 am   BACKBONE|DICT|INTERRES
   205  104  105 1    
   206  104  225 1    
   207  105  106 1    
   208  105  107 1    
   209  105  226 1    
   210  106  227 1    
   211  106  228 1    
   212  106  229 1    
   213  107  108 2    
   214  107  109 am   BACKBONE|DICT|INTERRES
   215  109  110 1    
   216  109  230 1    
   217  110  111 1    
   218  110  112 1    
   219  110  231 1    
   220  111  232 1    
   221  111  233 1    
   222  111  234 1    
   223  112  113 2    
   224  112  114 am   BACKBONE|DICT|INTERRES
   225  114  115 1    
   226  114  235 1    
   227  115  116 1    
   228  115  117 1    
   229  115  236 1    
   230  116  237 1    
   231  116  238 1    
   232  116  239 1    
   233  117  118 2    
   234  117  119 am   BACKBONE|DICT|INTERRES
   235  119  120 1    
   236  119  240 1    
   237  120  121 1    
   238  120  124 1    
   239  120  241 1    
   240  121  122 am   BACKBONE|DICT|INTERRES
   241  121  123 2    
   242  122  242 1    
   243  122  243 1    
   244  124  125 1    
   245  124  244 1    
   246  124  245 1    
   247  125  126 1    
   248  126  246 1    
   249  126  247 1    
@<TRIPOS>SUBSTRUCTURE
     1 UNK         1 GROUP             0       ****    0 ROOT    
