@<TRIPOS>MOLECULE
3R540
247   249    1
SMALL
USER_CHARGES


@<TRIPOS>ATOM
      1 CA          4.0377  -10.9644  -46.0712 C.3       0 UNK        -0.1800 
      2 C           3.1064  -12.1587  -45.9292 C.2       0 UNK         0.5000 
      3 O           2.6201  -12.4397  -44.8317 O.2       0 UNK        -0.5000 
      4 N           2.8642  -12.8771  -47.0312 N.am      1 UNK        -0.5000 
      5 CA          2.0392  -14.0893  -47.0734 C.3       1 UNK         0.1400 
      6 C6          2.2318  -14.8991  -48.3775 C.3       23 UNK        -0.0398 
      7 S7          3.9845  -15.2669  -48.7277 S.3       23 UNK        -0.2404 
      8 C8          3.8674  -16.0012  -50.3884 C.3       23 UNK        -0.0205 
      9 C9          3.2040  -17.3676  -50.3439 C.ar      23 UNK        -0.0193 
     10 C10         1.8603  -17.5152  -50.7050 C.ar      23 UNK        -0.1150 
     11 C11         1.2447  -18.7672  -50.6305 C.ar      23 UNK        -0.0193 
     12 C12         1.9828  -19.8700  -50.1990 C.ar      23 UNK        -0.1150 
     13 C13         3.3249  -19.7375  -49.8412 C.ar      23 UNK        -0.0193 
     14 C14         3.9343  -18.4834  -49.9222 C.ar      23 UNK        -0.1150 
     15 C15         4.0998  -20.9519  -49.3523 C.3       23 UNK        -0.0205 
     16 S16         4.3896  -20.9238  -47.5526 S.3       23 UNK        -0.2404 
     17 C17         2.7093  -20.7359  -46.8615 C.3       23 UNK        -0.0398 
     18 CA          2.0802  -22.0534  -46.3502 C.3       11 UNK         0.1400 
     19 N           1.0718  -21.7731  -45.3273 N.am      11 UNK        -0.5000 
     20 C           0.4657  -22.6763  -44.5463 C.2       10 UNK         0.5000 
     21 O           0.6579  -23.8896  -44.6224 O.2       10 UNK        -0.5000 
     22 CA         -0.5358  -22.1218  -43.5208 C.3       10 UNK         0.1400 
     23 CB          0.1984  -21.5608  -42.2929 C.3       10 UNK        -0.1800 
     24 N          -1.3568  -21.0694  -44.1177 N.am      10 UNK        -0.5000 
     25 C          -2.5278  -21.2848  -44.7309 C.2       9 UNK         0.5000 
     26 O          -3.0785  -22.3830  -44.7857 O.2       9 UNK        -0.5000 
     27 CA         -3.2088  -20.0739  -45.3981 C.3       9 UNK         0.1400 
     28 CB         -4.2048  -19.4224  -44.4266 C.3       9 UNK        -0.1800 
     29 N          -2.2792  -19.0493  -45.8726 N.am      9 UNK        -0.5000 
     30 C          -1.3658  -19.2162  -46.8386 C.2       8 UNK         0.5000 
     31 O          -1.1897  -20.2712  -47.4471 O.2       8 UNK        -0.5000 
     32 CA         -0.4629  -18.0010  -47.1312 C.3       8 UNK         0.1400 
     33 CB         -1.2070  -17.0206  -48.0540 C.3       8 UNK        -0.1800 
     34 N          -0.0148  -17.2806  -45.9303 N.am      8 UNK        -0.5000 
     35 C           0.5346  -17.8273  -44.8362 C.2       7 UNK         0.5000 
     36 O           0.7562  -19.0326  -44.7124 O.2       7 UNK        -0.5000 
     37 CA          0.8150  -16.8658  -43.6675 C.3       7 UNK         0.1400 
     38 CB          0.7134  -17.5690  -42.2991 C.3       7 UNK        -0.1800 
     39 N           2.0876  -16.1446  -43.7722 N.am      7 UNK        -0.5000 
     40 C           3.3279  -16.6543  -43.8618 C.2       6 UNK         0.5000 
     41 O           3.5797  -17.8515  -43.9910 O.2       6 UNK        -0.5000 
     42 CA          4.4990  -15.6574  -43.7348 C.3       6 UNK         0.1400 
     43 CB          5.1860  -15.4090  -45.0862 C.3       6 UNK        -0.1800 
     44 N           4.0751  -14.3774  -43.1570 N.am      6 UNK        -0.5000 
     45 C           4.1447  -14.0769  -41.8521 C.2       5 UNK         0.5000 
     46 O           4.6615  -14.8030  -41.0024 O.2       5 UNK        -0.5000 
     47 CA          3.4758  -12.7613  -41.4226 C.3       5 UNK         0.1400 
     48 CB          4.2828  -11.5397  -41.8902 C.3       5 UNK        -0.1800 
     49 N           2.1169  -12.6907  -41.9568 N.am      5 UNK        -0.5000 
     50 C           1.0483  -13.2601  -41.3814 C.2       4 UNK         0.5000 
     51 O           1.0908  -13.8313  -40.2910 O.2       4 UNK        -0.5000 
     52 CA         -0.2788  -13.2240  -42.1686 C.3       4 UNK         0.1400 
     53 CB         -1.5218  -13.1553  -41.2567 C.3       4 UNK        -0.1800 
     54 N          -0.3163  -12.2010  -43.2176 N.am      4 UNK        -0.5000 
     55 C          -0.3712  -10.8690  -43.0642 C.2       3 UNK         0.5000 
     56 O          -0.4195  -10.3042  -41.9712 O.2       3 UNK        -0.5000 
     57 CA         -0.3403  -10.0144  -44.3483 C.3       3 UNK         0.1400 
     58 CB          0.9253   -9.1424  -44.3766 C.3       3 UNK        -0.1800 
     59 N          -0.3877  -10.8151  -45.5754 N.am      3 UNK        -0.5000 
     60 C          -1.4961  -11.3498  -46.1080 C.2       2 UNK         0.5000 
     61 O          -2.6224  -11.1934  -45.6369 O.2       2 UNK        -0.5000 
     62 CA         -1.3143  -12.2192  -47.3681 C.3       2 UNK         0.1400 
     63 CB         -1.6842  -11.4226  -48.6285 C.3       2 UNK        -0.1800 
     64 N           0.0510  -12.7312  -47.5145 N.am      2 UNK        -0.5000 
     65 C           0.5544  -13.7651  -46.8265 C.2       1 UNK         0.5000 
     66 O          -0.0818  -14.4165  -45.9961 O.2       1 UNK        -0.5000 
     67 C           1.5345  -22.9363  -47.4968 C.2       11 UNK         0.5000 
     68 O           2.2486  -23.8241  -47.9645 O.2       11 UNK        -0.5000 
     69 N           0.2708  -22.7201  -47.8891 N.am      12 UNK        -0.5000 
     70 CA         -0.4659  -23.5408  -48.8505 C.3       12 UNK         0.1400 
     71 CB         -0.7697  -22.7236  -50.1168 C.3       12 UNK        -0.1800 
     72 C          -1.7293  -24.1307  -48.1996 C.2       12 UNK         0.5000 
     73 O          -2.8063  -24.1211  -48.8028 O.2       12 UNK        -0.5000 
     74 N          -1.5749  -24.6808  -46.9856 N.am      13 UNK        -0.5000 
     75 CA         -2.6211  -25.4118  -46.2594 C.3       13 UNK         0.1400 
     76 CB         -2.0956  -25.8395  -44.8821 C.3       13 UNK        -0.1800 
     77 C          -3.1510  -26.6342  -47.0329 C.2       13 UNK         0.5000 
     78 O          -4.3526  -26.9004  -47.0027 O.2       13 UNK        -0.5000 
     79 N          -2.2508  -27.3087  -47.7633 N.am      14 UNK        -0.5000 
     80 CA         -2.5405  -28.4433  -48.6436 C.3       14 UNK         0.1400 
     81 CB         -1.2123  -29.0600  -49.1081 C.3       14 UNK        -0.1800 
     82 C          -3.4214  -28.0866  -49.8591 C.2       14 UNK         0.5000 
     83 O          -4.0686  -28.9759  -50.4117 O.2       14 UNK        -0.5000 
     84 N          -3.4632  -26.8001  -50.2336 N.am      15 UNK        -0.5000 
     85 CA         -4.3285  -26.2486  -51.2777 C.3       15 UNK         0.1400 
     86 CB         -3.5411  -25.1952  -52.0778 C.3       15 UNK        -0.1800 
     87 C          -5.6210  -25.6647  -50.6710 C.2       15 UNK         0.5000 
     88 O          -6.1355  -24.6692  -51.1795 O.2       15 UNK        -0.5000 
     89 N          -6.1030  -26.2699  -49.5739 N.am      16 UNK        -0.5000 
     90 CA         -7.2834  -25.8892  -48.7904 C.3       16 UNK         0.1400 
     91 CB         -8.5753  -26.1711  -49.5845 C.3       16 UNK        -0.1800 
     92 C          -7.1950  -24.4444  -48.2572 C.2       16 UNK         0.5000 
     93 O          -8.1622  -23.6875  -48.3490 O.2       16 UNK        -0.5000 
     94 N          -6.0122  -24.0998  -47.7270 N.am      17 UNK        -0.5000 
     95 CA         -5.6090  -22.7733  -47.2523 C.3       17 UNK         0.1400 
     96 CB         -6.4490  -22.3345  -46.0344 C.3       17 UNK        -0.1800 
     97 C          -5.5824  -21.7375  -48.3932 C.2       17 UNK         0.5000 
     98 O          -6.2276  -20.6916  -48.3034 O.2       17 UNK        -0.5000 
     99 N          -4.8147  -22.0669  -49.4419 N.am      18 UNK        -0.5000 
    100 CA        -4.5517  -21.2629  -50.6396 C.3       18 UNK         0.1400 
    101 CB        -3.7522  -19.9955  -50.2673 C.3       18 UNK        -0.1800 
    102 C         -5.8162  -20.9345  -51.4660 C.2       18 UNK         0.5000 
    103 O         -5.9287  -19.8281  -51.9988 O.2       18 UNK        -0.5000 
    104 N         -6.7517  -21.8891  -51.5641 N.am      19 UNK        -0.5000 
    105 CA        -8.0225  -21.7449  -52.2745 C.3       19 UNK         0.1400 
    106 CB        -8.9562  -22.9044  -51.8920 C.3       19 UNK        -0.1800 
    107 C         -7.8057  -21.6706  -53.7972 C.2       19 UNK         0.5000 
    108 O         -7.5992  -22.7037  -54.4370 O.2       19 UNK        -0.5000 
    109 N         -7.8261  -20.4406  -54.3327 N.am      20 UNK        -0.5000 
    110 CA        -7.5656  -20.0769  -55.7323 C.3       20 UNK         0.1400 
    111 CB        -8.6881  -20.6028  -56.6518 C.3       20 UNK        -0.1800 
    112 C         -6.1523  -20.4825  -56.2092 C.2       20 UNK         0.5000 
    113 O         -5.9704  -20.8459  -57.3731 O.2       20 UNK        -0.5000 
    114 N         -5.1816  -20.4185  -55.2909 N.am      21 UNK        -0.5000 
    115 CA        -3.7837  -20.7835  -55.5000 C.3       21 UNK         0.1400 
    116 CB        -3.4394  -21.9321  -54.5345 C.3       21 UNK        -0.1800 
    117 C         -2.8738  -19.5691  -55.2501 C.2       21 UNK         0.5000 
    118 O         -3.3472  -18.5109  -54.8274 O.2       21 UNK        -0.5000 
    119 N         -1.5729  -19.7643  -55.4982 N.am      22 UNK        -0.5000 
    120 CA        -0.4759  -18.8161  -55.2190 C.3       22 UNK         0.1400 
    121 C         -0.4056  -17.5906  -56.1810 C.2       22 UNK         0.5000 
    122 N         -1.1220  -17.5829  -57.2985 N.am      22 UNK        -0.7600 
    123 O          0.3338  -16.6422  -55.9313 O.2       22 UNK        -0.5000 
    124 C124       -0.3802  -18.3940  -53.7229 C.3       23 UNK        -0.0398 
    125 S125       -0.4397  -19.8032  -52.5637 S.3       23 UNK        -0.2404 
    126 C126       -0.2227  -18.9412  -50.9796 C.3       23 UNK        -0.0205 
    127 H127        3.4911  -10.0348  -45.9195 H         1 UNK         0.0600 
    128 H128        4.4982  -10.9290  -47.0586 H         1 UNK         0.0600 
    129 H129        4.8350  -11.0196  -45.3307 H         1 UNK         0.0600 
    130 H130        3.3142  -12.6222  -47.8992 H         1 UNK         0.3000 
    131 H131        2.3517  -14.7310  -46.2492 H         1 UNK         0.0600 
    132 H132        1.7056  -15.8510  -48.3046 H         1 UNK         0.0800 
    133 H133        1.8104  -14.3688  -49.2335 H         1 UNK         0.0800 
    134 H134        3.3271  -15.3264  -51.0541 H         1 UNK         0.0800 
    135 H135        4.8717  -16.0994  -50.8030 H         1 UNK         0.0800 
    136 H136        1.2917  -16.6549  -51.0289 H         1 UNK         0.1150 
    137 H137        1.5060  -20.8343  -50.1259 H         1 UNK         0.1150 
    138 H138        4.9702  -18.3712  -49.6339 H         1 UNK         0.1150 
    139 H139        3.5789  -21.8736  -49.6159 H         1 UNK         0.0800 
    140 H140        5.0627  -20.9928  -49.8632 H         1 UNK         0.0800 
    141 H141        2.0388  -20.2219  -47.5474 H         1 UNK         0.0800 
    142 H142        2.8315  -20.0468  -46.0244 H         1 UNK         0.0800 
    143 H143        2.8632  -22.6278  -45.8504 H         1 UNK         0.0600 
    144 H144        0.8769  -20.7884  -45.1590 H         1 UNK         0.3000 
    145 H145       -1.1709  -22.9427  -43.1824 H         1 UNK         0.0600 
    146 H146       -0.5059  -21.1801  -41.5531 H         1 UNK         0.0600 
    147 H147        0.7929  -22.3360  -41.8080 H         1 UNK         0.0600 
    148 H148        0.8751  -20.7483  -42.5593 H         1 UNK         0.0600 
    149 H149       -0.9401  -20.1483  -44.1676 H         1 UNK         0.3000 
    150 H150       -3.7609  -20.4455  -46.2629 H         1 UNK         0.0600 
    151 H151       -4.8957  -20.1585  -44.0142 H         1 UNK         0.0600 
    152 H152       -4.8030  -18.6612  -44.9276 H         1 UNK         0.0600 
    153 H153       -3.6950  -18.9511  -43.5853 H         1 UNK         0.0600 
    154 H154       -2.3406  -18.1456  -45.4278 H         1 UNK         0.3000 
    155 H155        0.4234  -18.3669  -47.6525 H         1 UNK         0.0600 
    156 H156       -1.6895  -17.5409  -48.8814 H         1 UNK         0.0600 
    157 H157       -0.5335  -16.2836  -48.4872 H         1 UNK         0.0600 
    158 H158       -1.9886  -16.4806  -47.5182 H         1 UNK         0.0600 
    159 H159       -0.1623  -16.2742  -45.9344 H         1 UNK         0.3000 
    160 H160        0.0258  -16.1162  -43.6989 H         1 UNK         0.0600 
    161 H161        1.4983  -18.3141  -42.1653 H         1 UNK         0.0600 
    162 H162       -0.2439  -18.0804  -42.1906 H         1 UNK         0.0600 
    163 H163        0.7932  -16.8513  -41.4823 H         1 UNK         0.0600 
    164 H164        2.0204  -15.1419  -43.6918 H         1 UNK         0.3000 
    165 H165        5.2374  -16.1284  -43.0825 H         1 UNK         0.0600 
    166 H166        6.1070  -14.8409  -44.9551 H         1 UNK         0.0600 
    167 H167        5.4514  -16.3484  -45.5732 H         1 UNK         0.0600 
    168 H168        4.5537  -14.8519  -45.7721 H         1 UNK         0.0600 
    169 H169        3.6409  -13.7067  -43.7837 H         1 UNK         0.3000 
    170 H170        3.4386  -12.7375  -40.3312 H         1 UNK         0.0600 
    171 H171        4.3675  -11.4950  -42.9752 H         1 UNK         0.0600 
    172 H172        3.8189  -10.6121  -41.5545 H         1 UNK         0.0600 
    173 H173        5.2945  -11.5638  -41.4835 H         1 UNK         0.0600 
    174 H174        2.0170  -12.2882  -42.8821 H         1 UNK         0.3000 
    175 H175       -0.3319  -14.1735  -42.6960 H         1 UNK         0.0600 
    176 H176       -2.4402  -13.1207  -41.8429 H         1 UNK         0.0600 
    177 H177       -1.5036  -12.2804  -40.6067 H         1 UNK         0.0600 
    178 H178       -1.5826  -14.0340  -40.6137 H         1 UNK         0.0600 
    179 H179       -0.2605  -12.5511  -44.1641 H         1 UNK         0.3000 
    180 H180       -1.2097   -9.3541  -44.3263 H         1 UNK         0.0600 
    181 H181        0.9958   -8.5689  -45.3009 H         1 UNK         0.0600 
    182 H182        1.8285   -9.7444  -44.2786 H         1 UNK         0.0600 
    183 H183        0.9232   -8.4282  -43.5522 H         1 UNK         0.0600 
    184 H184        0.4962  -11.0056  -46.0222 H         1 UNK         0.3000 
    185 H185       -1.9995  -13.0659  -47.2863 H         1 UNK         0.0600 
    186 H186       -2.7075  -11.0494  -48.5689 H         1 UNK         0.0600 
    187 H187       -1.0286  -10.5622  -48.7688 H         1 UNK         0.0600 
    188 H188       -1.6186  -12.0448  -49.5213 H         1 UNK         0.0600 
    189 H189        0.6496  -12.2404  -48.1631 H         1 UNK         0.3000 
    190 H190       -0.2510  -21.9467  -47.4825 H         1 UNK         0.3000 
    191 H191        0.1311  -24.4015  -49.1571 H         1 UNK         0.0600 
    192 H192       -1.3688  -23.2923  -50.8264 H         1 UNK         0.0600 
    193 H193       -1.3119  -21.8103  -49.8818 H         1 UNK         0.0600 
    194 H194        0.1458  -22.4545  -50.6391 H         1 UNK         0.0600 
    195 H195       -0.6716  -24.6193  -46.5346 H         1 UNK         0.3000 
    196 H196       -3.4610  -24.7348  -46.1030 H         1 UNK         0.0600 
    197 H197       -2.8409  -26.4247  -44.3416 H         1 UNK         0.0600 
    198 H198       -1.8637  -24.9719  -44.2662 H         1 UNK         0.0600 
    199 H199       -1.1931  -26.4464  -44.9629 H         1 UNK         0.0600 
    200 H200       -1.2881  -27.0080  -47.7234 H         1 UNK         0.3000 
    201 H201       -3.0803  -29.1908  -48.0586 H         1 UNK         0.0600 
    202 H202       -0.6133  -29.3928  -48.2603 H         1 UNK         0.0600 
    203 H203       -0.6176  -28.3485  -49.6824 H         1 UNK         0.0600 
    204 H204       -1.3855  -29.9304  -49.7425 H         1 UNK         0.0600 
    205 H205       -2.9520  -26.1182  -49.6880 H         1 UNK         0.3000 
    206 H206       -4.6267  -27.0373  -51.9710 H         1 UNK         0.0600 
    207 H207       -2.5968  -25.5973  -52.4448 H         1 UNK         0.0600 
    208 H208       -4.1094  -24.8585  -52.9458 H         1 UNK         0.0600 
    209 H209       -3.3224  -24.3165  -51.4730 H         1 UNK         0.0600 
    210 H210       -5.5770  -27.0503  -49.2055 H         1 UNK         0.3000 
    211 H211       -7.2905  -26.5357  -47.9116 H         1 UNK         0.0600 
    212 H212       -8.6491  -25.5463  -50.4738 H         1 UNK         0.0600 
    213 H213       -9.4594  -25.9796  -48.9754 H         1 UNK         0.0600 
    214 H214       -8.6213  -27.2123  -49.9034 H         1 UNK         0.0600 
    215 H215       -5.2882  -24.8056  -47.7257 H         1 UNK         0.3000 
    216 H216       -4.5769  -22.8671  -46.9170 H         1 UNK         0.0600 
    217 H217       -6.1005  -21.3780  -45.6476 H         1 UNK         0.0600 
    218 H218       -6.3728  -23.0591  -45.2238 H         1 UNK         0.0600 
    219 H219       -7.5035  -22.2139  -46.2819 H         1 UNK         0.0600 
    220 H220       -4.3030  -22.9424  -49.3875 H         1 UNK         0.3000 
    221 H221       -3.9157  -21.8818  -51.2716 H         1 UNK         0.0600 
    222 H222       -4.3749  -19.2610  -49.7554 H         1 UNK         0.0600 
    223 H223       -2.9183  -20.2285  -49.6083 H         1 UNK         0.0600 
    224 H224       -3.3450  -19.5155  -51.1580 H         1 UNK         0.0600 
    225 H225       -6.5544  -22.8132  -51.1873 H         1 UNK         0.3000 
    226 H226       -8.4958  -20.8191  -51.9403 H         1 UNK         0.0600 
    227 H227       -9.1347  -22.9292  -50.8171 H         1 UNK         0.0600 
    228 H228       -9.9253  -22.8017  -52.3815 H         1 UNK         0.0600 
    229 H229       -8.5417  -23.8690  -52.1858 H         1 UNK         0.0600 
    230 H230       -7.9461  -19.6596  -53.7016 H         1 UNK         0.3000 
    231 H231       -7.5933  -18.9871  -55.7734 H         1 UNK         0.0600 
    232 H232       -8.6846  -21.6914  -56.7145 H         1 UNK         0.0600 
    233 H233       -8.5762  -20.2172  -57.6659 H         1 UNK         0.0600 
    234 H234       -9.6693  -20.2905  -56.2945 H         1 UNK         0.0600 
    235 H235       -5.4032  -20.0416  -54.3780 H         1 UNK         0.3000 
    236 H236       -3.6206  -21.1218  -56.5251 H         1 UNK         0.0600 
    237 H237       -4.1498  -22.7543  -54.6260 H         1 UNK         0.0600 
    238 H238       -2.4478  -22.3380  -54.7363 H         1 UNK         0.0600 
    239 H239       -3.4475  -21.5955  -53.4988 H         1 UNK         0.0600 
    240 H240       -1.2791  -20.6623  -55.8545 H         1 UNK         0.3000 
    241 H241        0.4332  -19.3767  -55.4386 H         1 UNK         0.0600 
    242 H242       -1.7275  -18.3559  -57.5238 H         1 UNK         0.3800 
    243 H243       -1.0633  -16.7925  -57.9214 H         1 UNK         0.3800 
    244 H244        0.5505  -17.8527  -53.5442 H         1 UNK         0.0800 
    245 H245       -1.1870  -17.7047  -53.4698 H         1 UNK         0.0800 
    246 H246       -0.7372  -17.9801  -51.0092 H         1 UNK         0.0800 
    247 H247       -0.7025  -19.5221  -50.1924 H         1 UNK         0.0800 
@<TRIPOS>BOND
     1    1    2 1    
     2    1  127 1    
     3    1  128 1    
     4    1  129 1    
     5    2    3 2    
     6    2    4 am   BACKBONE|DICT|INTERRES
     7    4    5 1    
     8    4  130 1    
     9    5    6 1    
    10    5   65 1    
    11    5  131 1    
    12    6    7 1    
    13    6  132 1    
    14    6  133 1    
    15    7    8 1    
    16    8    9 1    
    17    8  134 1    
    18    8  135 1    
    19    9   10 ar   
    20    9   14 ar   
    21   10   11 ar   
    22   10  136 1    
    23   11   12 ar   
    24   11  126 1    
    25   12   13 ar   
    26   12  137 1    
    27   13   14 ar   
    28   13   15 1    
    29   14  138 1    
    30   15   16 1    
    31   15  139 1    
    32   15  140 1    
    33   16   17 1    
    34   17   18 1    
    35   17  141 1    
    36   17  142 1    
    37   18   19 1    
    38   18   67 1    
    39   18  143 1    
    40   19   20 am   BACKBONE|DICT|INTERRES
    41   19  144 1    
    42   20   21 2    
    43   20   22 1    
    44   22   23 1    
    45   22   24 1    
    46   22  145 1    
    47   23  146 1    
    48   23  147 1    
    49   23  148 1    
    50   24   25 am   BACKBONE|DICT|INTERRES
    51   24  149 1    
    52   25   26 2    
    53   25   27 1    
    54   27   28 1    
    55   27   29 1    
    56   27  150 1    
    57   28  151 1    
    58   28  152 1    
    59   28  153 1    
    60   29   30 am   BACKBONE|DICT|INTERRES
    61   29  154 1    
    62   30   31 2    
    63   30   32 1    
    64   32   33 1    
    65   32   34 1    
    66   32  155 1    
    67   33  156 1    
    68   33  157 1    
    69   33  158 1    
    70   34   35 am   BACKBONE|DICT|INTERRES
    71   34  159 1    
    72   35   36 2    
    73   35   37 1    
    74   37   38 1    
    75   37   39 1    
    76   37  160 1    
    77   38  161 1    
    78   38  162 1    
    79   38  163 1    
    80   39   40 am   BACKBONE|DICT|INTERRES
    81   39  164 1    
    82   40   41 2    
    83   40   42 1    
    84   42   43 1    
    85   42   44 1    
    86   42  165 1    
    87   43  166 1    
    88   43  167 1    
    89   43  168 1    
    90   44   45 am   BACKBONE|DICT|INTERRES
    91   44  169 1    
    92   45   46 2    
    93   45   47 1    
    94   47   48 1    
    95   47   49 1    
    96   47  170 1    
    97   48  171 1    
    98   48  172 1    
    99   48  173 1    
   100   49   50 am   BACKBONE|DICT|INTERRES
   101   49  174 1    
   102   50   51 2    
   103   50   52 1    
   104   52   53 1    
   105   52   54 1    
   106   52  175 1    
   107   53  176 1    
   108   53  177 1    
   109   53  178 1    
   110   54   55 am   BACKBONE|DICT|INTERRES
   111   54  179 1    
   112   55   56 2    
   113   55   57 1    
   114   57   58 1    
   115   57   59 1    
   116   57  180 1    
   117   58  181 1    
   118   58  182 1    
   119   58  183 1    
   120   59   60 am   BACKBONE|DICT|INTERRES
   121   59  184 1    
   122   60   61 2    
   123   60   62 1    
   124   62   63 1    
   125   62   64 1    
   126   62  185 1    
   127   63  186 1    
   128   63  187 1    
   129   63  188 1    
   130   64   65 am   BACKBONE|DICT|INTERRES
   131   64  189 1    
   132   65   66 2    
   133   67   68 2    
   134   67   69 am   BACKBONE|DICT|INTERRES
   135   69   70 1    
   136   69  190 1    
   137   70   71 1    
   138   70   72 1    
   139   70  191 1    
   140   71  192 1    
   141   71  193 1    
   142   71  194 1    
   143   72   73 2    
   144   72   74 am   BACKBONE|DICT|INTERRES
   145   74   75 1    
   146   74  195 1    
   147   75   76 1    
   148   75   77 1    
   149   75  196 1    
   150   76  197 1    
   151   76  198 1    
   152   76  199 1    
   153   77   78 2    
   154   77   79 am   BACKBONE|DICT|INTERRES
   155   79   80 1    
   156   79  200 1    
   157   80   81 1    
   158   80   82 1    
   159   80  201 1    
   160   81  202 1    
   161   81  203 1    
   162   81  204 1    
   163   82   83 2    
   164   82   84 am   BACKBONE|DICT|INTERRES
   165   84   85 1    
   166   84  205 1    
   167   85   86 1    
   168   85   87 1    
   169   85  206 1    
   170   86  207 1    
   171   86  208 1    
   172   86  209 1    
   173   87   88 2    
   174   87   89 am   BACKBONE|DICT|INTERRES
   175   89   90 1    
   176   89  210 1    
   177   90   91 1    
   178   90   92 1    
   179   90  211 1    
   180   91  212 1    
   181   91  213 1    
   182   91  214 1    
   183   92   93 2    
   184   92   94 am   BACKBONE|DICT|INTERRES
   185   94   95 1    
   186   94  215 1    
   187   95   96 1    
   188   95   97 1    
   189   95  216 1    
   190   96  217 1    
   191   96  218 1    
   192   96  219 1    
   193   97   98 2    
   194   97   99 am   BACKBONE|DICT|INTERRES
   195   99  100 1    
   196   99  220 1    
   197  100  101 1    
   198  100  102 1    
   199  100  221 1    
   200  101  222 1    
   201  101  223 1    
   202  101  224 1    
   203  102  103 2    
   204  102  104 am   BACKBONE|DICT|INTERRES
   205  104  105 1    
   206  104  225 1    
   207  105  106 1    
   208  105  107 1    
   209  105  226 1    
   210  106  227 1    
   211  106  228 1    
   212  106  229 1    
   213  107  108 2    
   214  107  109 am   BACKBONE|DICT|INTERRES
   215  109  110 1    
   216  109  230 1    
   217  110  111 1    
   218  110  112 1    
   219  110  231 1    
   220  111  232 1    
   221  111  233 1    
   222  111  234 1    
   223  112  113 2    
   224  112  114 am   BACKBONE|DICT|INTERRES
   225  114  115 1    
   226  114  235 1    
   227  115  116 1    
   228  115  117 1    
   229  115  236 1    
   230  116  237 1    
   231  116  238 1    
   232  116  239 1    
   233  117  118 2    
   234  117  119 am   BACKBONE|DICT|INTERRES
   235  119  120 1    
   236  119  240 1    
   237  120  121 1    
   238  120  124 1    
   239  120  241 1    
   240  121  122 am   BACKBONE|DICT|INTERRES
   241  121  123 2    
   242  122  242 1    
   243  122  243 1    
   244  124  125 1    
   245  124  244 1    
   246  124  245 1    
   247  125  126 1    
   248  126  246 1    
   249  126  247 1    
@<TRIPOS>SUBSTRUCTURE
     1 UNK         1 GROUP             0       ****    0 ROOT    
