@<TRIPOS>MOLECULE
3R540
247   249    1
SMALL
USER_CHARGES


@<TRIPOS>ATOM
      1 CA         -4.7739  -10.4608  -45.8319 C.3       0 UNK        -0.1800 
      2 C          -3.6816  -11.3259  -46.4430 C.2       0 UNK         0.5000 
      3 O          -2.5505  -10.8659  -46.5986 O.2       0 UNK        -0.5000 
      4 N          -4.0089  -12.5833  -46.7735 N.am      1 UNK        -0.5000 
      5 CA         -3.1201  -13.5618  -47.4240 C.3       1 UNK         0.1400 
      6 C6         -3.8573  -14.8691  -47.8059 C.3       23 UNK        -0.0398 
      7 S7         -5.3677  -14.5535  -48.7815 S.3       23 UNK        -0.2404 
      8 C8         -6.3205  -16.0704  -48.4677 C.3       23 UNK        -0.0205 
      9 C9         -5.8837  -17.1916  -49.3945 C.ar      23 UNK        -0.0193 
     10 C10        -6.4451  -17.2938  -50.6698 C.ar      23 UNK        -0.1150 
     11 C11        -6.0454  -18.3087  -51.5422 C.ar      23 UNK        -0.0193 
     12 C12        -5.0916  -19.2378  -51.1212 C.ar      23 UNK        -0.1150 
     13 C13        -4.5166  -19.1422  -49.8509 C.ar      23 UNK        -0.0193 
     14 C14        -4.9188  -18.1180  -48.9889 C.ar      23 UNK        -0.1150 
     15 C15        -3.4426  -20.1316  -49.4333 C.3       23 UNK        -0.0205 
     16 S16        -4.1543  -21.7019  -48.8609 S.3       23 UNK        -0.2404 
     17 C17        -4.3675  -21.4138  -47.0703 C.3       23 UNK        -0.0398 
     18 CA         -3.4177  -22.2907  -46.2140 C.3       11 UNK         0.1400 
     19 N          -3.2294  -21.7249  -44.8691 N.am      11 UNK        -0.5000 
     20 C          -2.4199  -22.2168  -43.9187 C.2       10 UNK         0.5000 
     21 O          -1.7920  -23.2703  -44.0392 O.2       10 UNK        -0.5000 
     22 CA         -2.3044  -21.3922  -42.6224 C.3       10 UNK         0.1400 
     23 CB         -1.3125  -22.0008  -41.6157 C.3       10 UNK        -0.1800 
     24 N          -1.8764  -20.0298  -42.9236 N.am      10 UNK        -0.5000 
     25 C          -2.6832  -18.9709  -43.0621 C.2       9 UNK         0.5000 
     26 O          -3.9086  -19.0217  -42.9559 O.2       9 UNK        -0.5000 
     27 CA         -1.9937  -17.6438  -43.4277 C.3       9 UNK         0.1400 
     28 CB         -1.1951  -17.1005  -42.2281 C.3       9 UNK        -0.1800 
     29 N          -1.1105  -17.8170  -44.5819 N.am      9 UNK        -0.5000 
     30 C          -1.5343  -18.1069  -45.8217 C.2       8 UNK         0.5000 
     31 O          -2.7195  -18.1188  -46.1509 O.2       8 UNK        -0.5000 
     32 CA         -0.4657  -18.4874  -46.8602 C.3       8 UNK         0.1400 
     33 CB         -0.0359  -17.2760  -47.6929 C.3       8 UNK        -0.1800 
     34 N           0.7056  -19.1040  -46.2407 N.am      8 UNK        -0.5000 
     35 C           0.7648  -20.3968  -45.8907 C.2       7 UNK         0.5000 
     36 O          -0.1271  -21.2035  -46.1356 O.2       7 UNK        -0.5000 
     37 CA          2.0193  -20.8711  -45.1331 C.3       7 UNK         0.1400 
     38 CB          3.0526  -21.4400  -46.1172 C.3       7 UNK        -0.1800 
     39 N           2.6442  -19.8090  -44.3437 N.am      7 UNK        -0.5000 
     40 C           2.0878  -19.2282  -43.2710 C.2       6 UNK         0.5000 
     41 O           1.0183  -19.5899  -42.7823 O.2       6 UNK        -0.5000 
     42 CA          2.8134  -17.9909  -42.7023 C.3       6 UNK         0.1400 
     43 CB          3.8141  -18.4036  -41.6135 C.3       6 UNK        -0.1800 
     44 N           3.5097  -17.2217  -43.7413 N.am      6 UNK        -0.5000 
     45 C           2.8911  -16.5940  -44.7503 C.2       5 UNK         0.5000 
     46 O           1.6645  -16.5260  -44.8564 O.2       5 UNK        -0.5000 
     47 CA          3.7859  -16.0638  -45.8786 C.3       5 UNK         0.1400 
     48 CB          4.2227  -17.2449  -46.7738 C.3       5 UNK        -0.1800 
     49 N           3.0459  -15.0745  -46.6595 N.am      5 UNK        -0.5000 
     50 C           3.5404  -14.3293  -47.6572 C.2       4 UNK         0.5000 
     51 O           4.7155  -14.3640  -48.0245 O.2       4 UNK        -0.5000 
     52 CA          2.5645  -13.3654  -48.3549 C.3       4 UNK         0.1400 
     53 CB          1.6724  -14.1140  -49.3583 C.3       4 UNK        -0.1800 
     54 N           1.7349  -12.6370  -47.3956 N.am      4 UNK        -0.5000 
     55 C           2.1813  -11.6129  -46.6502 C.2       3 UNK         0.5000 
     56 O           3.3232  -11.1587  -46.7353 O.2       3 UNK        -0.5000 
     57 CA          1.2027  -10.9769  -45.6416 C.3       3 UNK         0.1400 
     58 CB          0.5866   -9.6972  -46.2265 C.3       3 UNK        -0.1800 
     59 N           0.1291  -11.8795  -45.2291 N.am      3 UNK        -0.5000 
     60 C           0.3093  -12.9781  -44.4812 C.2       2 UNK         0.5000 
     61 O           1.3898  -13.2833  -43.9764 O.2       2 UNK        -0.5000 
     62 CA         -0.9066  -13.9039  -44.2725 C.3       2 UNK         0.1400 
     63 CB         -1.5017  -13.6840  -42.8729 C.3       2 UNK        -0.1800 
     64 N          -1.9779  -13.7446  -45.2572 N.am      2 UNK        -0.5000 
     65 C          -1.8656  -13.8852  -46.5860 C.2       1 UNK         0.5000 
     66 O          -0.8185  -14.1933  -47.1523 O.2       1 UNK        -0.5000 
     67 C          -3.8637  -23.7729  -46.2032 C.2       11 UNK         0.5000 
     68 O          -3.4188  -24.5531  -47.0476 O.2       11 UNK        -0.5000 
     69 N          -4.6997  -24.1421  -45.2214 N.am      12 UNK        -0.5000 
     70 CA         -5.1706  -25.5101  -45.0028 C.3       12 UNK         0.1400 
     71 CB         -6.3260  -25.4931  -43.9910 C.3       12 UNK        -0.1800 
     72 C          -4.0548  -26.4639  -44.5357 C.2       12 UNK         0.5000 
     73 O          -4.0168  -27.6107  -44.9810 O.2       12 UNK        -0.5000 
     74 N          -3.1483  -25.9714  -43.6785 N.am      13 UNK        -0.5000 
     75 CA         -1.9838  -26.7165  -43.1894 C.3       13 UNK         0.1400 
     76 CB         -1.4090  -26.0246  -41.9448 C.3       13 UNK        -0.1800 
     77 C          -0.9042  -26.8673  -44.2754 C.2       13 UNK         0.5000 
     78 O          -0.2454  -27.9051  -44.3430 O.2       13 UNK        -0.5000 
     79 N          -0.7834  -25.8479  -45.1365 N.am      14 UNK        -0.5000 
     80 CA          0.0472  -25.8518  -46.3415 C.3       14 UNK         0.1400 
     81 CB          0.2760  -24.3992  -46.7863 C.3       14 UNK        -0.1800 
     82 C          -0.5469  -26.6861  -47.4966 C.2       14 UNK         0.5000 
     83 O           0.0981  -26.8014  -48.5381 O.2       14 UNK        -0.5000 
     84 N          -1.7638  -27.2251  -47.3193 N.am      15 UNK        -0.5000 
     85 CA         -2.5247  -28.0456  -48.2686 C.3       15 UNK         0.1400 
     86 CB         -1.8562  -29.4251  -48.4404 C.3       15 UNK        -0.1800 
     87 C          -2.7844  -27.3305  -49.6119 C.2       15 UNK         0.5000 
     88 O          -2.7575  -27.9646  -50.6680 O.2       15 UNK        -0.5000 
     89 N          -3.0070  -26.0102  -49.5369 N.am      16 UNK        -0.5000 
     90 CA         -3.2147  -25.0757  -50.6456 C.3       16 UNK         0.1400 
     91 CB         -4.5132  -25.3993  -51.4127 C.3       16 UNK        -0.1800 
     92 C          -1.9974  -24.8987  -51.5801 C.2       16 UNK         0.5000 
     93 O          -2.1565  -24.3689  -52.6799 O.2       16 UNK        -0.5000 
     94 N          -0.7904  -25.2838  -51.1344 N.am      17 UNK        -0.5000 
     95 CA          0.4584  -25.0773  -51.8802 C.3       17 UNK         0.1400 
     96 CB          1.5802  -25.9095  -51.2428 C.3       17 UNK        -0.1800 
     97 C           0.8740  -23.5938  -51.9626 C.2       17 UNK         0.5000 
     98 O           1.6010  -23.2115  -52.8792 O.2       17 UNK        -0.5000 
     99 N           0.3855  -22.7831  -51.0152 N.am      18 UNK        -0.5000 
    100 CA         0.6292  -21.3454  -50.9027 C.3       18 UNK         0.1400 
    101 CB         0.5588  -20.9656  -49.4167 C.3       18 UNK        -0.1800 
    102 C         -0.3372  -20.4865  -51.7473 C.2       18 UNK         0.5000 
    103 O         -0.3866  -19.2713  -51.5529 O.2       18 UNK        -0.5000 
    104 N         -1.0912  -21.1061  -52.6696 N.am      19 UNK        -0.5000 
    105 CA        -2.1049  -20.4769  -53.5286 C.3       19 UNK         0.1400 
    106 CB        -2.8595  -21.5642  -54.3074 C.3       19 UNK        -0.1800 
    107 C         -1.5988  -19.3667  -54.4742 C.2       19 UNK         0.5000 
    108 O         -2.4155  -18.6659  -55.0695 O.2       19 UNK        -0.5000 
    109 N         -0.2767  -19.1673  -54.5583 N.am      20 UNK        -0.5000 
    110 CA         0.3502  -17.9887  -55.1603 C.3       20 UNK         0.1400 
    111 CB         1.8760  -18.1594  -55.1205 C.3       20 UNK        -0.1800 
    112 C         -0.0643  -16.6652  -54.4781 C.2       20 UNK         0.5000 
    113 O         -0.0845  -15.6285  -55.1425 O.2       20 UNK        -0.5000 
    114 N         -0.4359  -16.7275  -53.1884 N.am      21 UNK        -0.5000 
    115 CA        -0.9259  -15.6044  -52.3840 C.3       21 UNK         0.1400 
    116 CB        -1.1194  -16.0774  -50.9365 C.3       21 UNK        -0.1800 
    117 C         -2.2220  -14.9533  -52.9105 C.2       21 UNK         0.5000 
    118 O         -2.4419  -13.7712  -52.6438 O.2       21 UNK        -0.5000 
    119 N         -3.0358  -15.7124  -53.6561 N.am      22 UNK        -0.5000 
    120 CA        -4.2363  -15.2309  -54.3589 C.3       22 UNK         0.1400 
    121 C         -4.0573  -15.1557  -55.9049 C.2       22 UNK         0.5000 
    122 N         -2.8488  -15.2755  -56.4445 N.am      22 UNK        -0.7600 
    123 O         -5.0247  -14.9494  -56.6331 O.2       22 UNK        -0.5000 
    124 C124       -5.5184  -15.9866  -53.9155 C.3       23 UNK        -0.0398 
    125 S125       -5.4915  -17.7902  -54.2125 S.3       23 UNK        -0.2404 
    126 C126       -6.6401  -18.4030  -52.9388 C.3       23 UNK        -0.0205 
    127 H127       -4.4787  -10.1332  -44.8351 H         1 UNK         0.0600 
    128 H128       -5.7184  -10.9989  -45.7481 H         1 UNK         0.0600 
    129 H129       -4.9394   -9.5767  -46.4476 H         1 UNK         0.0600 
    130 H130       -4.9604  -12.8945  -46.6368 H         1 UNK         0.3000 
    131 H131       -2.7660  -13.0991  -48.3478 H         1 UNK         0.0600 
    132 H132       -3.2057  -15.5210  -48.3909 H         1 UNK         0.0800 
    133 H133       -4.1239  -15.4293  -46.9075 H         1 UNK         0.0800 
    134 H134       -7.3787  -15.8576  -48.6268 H         1 UNK         0.0800 
    135 H135       -6.2283  -16.3723  -47.4233 H         1 UNK         0.0800 
    136 H136       -7.1849  -16.5722  -50.9870 H         1 UNK         0.1150 
    137 H137       -4.7931  -20.0333  -51.7880 H         1 UNK         0.1150 
    138 H138       -4.4776  -18.0361  -48.0065 H         1 UNK         0.1150 
    139 H139       -2.7998  -19.7032  -48.6660 H         1 UNK         0.0800 
    140 H140       -2.7989  -20.3369  -50.2870 H         1 UNK         0.0800 
    141 H141       -5.4118  -21.5878  -46.8052 H         1 UNK         0.0800 
    142 H142       -4.1868  -20.3578  -46.8668 H         1 UNK         0.0800 
    143 H143       -2.4332  -22.2679  -46.6833 H         1 UNK         0.0600 
    144 H144       -3.6976  -20.8495  -44.6799 H         1 UNK         0.3000 
    145 H145       -3.2896  -21.3814  -42.1520 H         1 UNK         0.0600 
    146 H146       -1.2214  -21.3768  -40.7266 H         1 UNK         0.0600 
    147 H147       -1.6467  -22.9840  -41.2852 H         1 UNK         0.0600 
    148 H148       -0.3166  -22.1127  -42.0471 H         1 UNK         0.0600 
    149 H149       -0.8742  -19.8926  -43.0279 H         1 UNK         0.3000 
    150 H150       -2.7575  -16.9107  -43.6961 H         1 UNK         0.0600 
    151 H151       -0.6028  -17.8722  -41.7375 H         1 UNK         0.0600 
    152 H152       -1.8686  -16.6912  -41.4747 H         1 UNK         0.0600 
    153 H153       -0.5070  -16.3094  -42.5189 H         1 UNK         0.0600 
    154 H154       -0.1146  -17.7727  -44.4119 H         1 UNK         0.3000 
    155 H155       -0.9189  -19.2062  -47.5422 H         1 UNK         0.0600 
    156 H156        0.4368  -16.5103  -47.0817 H         1 UNK         0.0600 
    157 H157       -0.8989  -16.8180  -48.1759 H         1 UNK         0.0600 
    158 H158        0.6671  -17.5609  -48.4752 H         1 UNK         0.0600 
    159 H159        1.4518  -18.4811  -45.9686 H         1 UNK         0.3000 
    160 H160        1.7124  -21.6690  -44.4532 H         1 UNK         0.0600 
    161 H161        3.4046  -20.6803  -46.8164 H         1 UNK         0.0600 
    162 H162        2.6259  -22.2534  -46.7054 H         1 UNK         0.0600 
    163 H163        3.9190  -21.8418  -45.5916 H         1 UNK         0.0600 
    164 H164        3.5337  -19.4635  -44.6706 H         1 UNK         0.3000 
    165 H165        2.0593  -17.3441  -42.2487 H         1 UNK         0.0600 
    166 H166        4.2804  -17.5310  -41.1556 H         1 UNK         0.0600 
    167 H167        4.6064  -19.0384  -42.0122 H         1 UNK         0.0600 
    168 H168        3.3165  -18.9598  -40.8178 H         1 UNK         0.0600 
    169 H169        4.5193  -17.2407  -43.7162 H         1 UNK         0.3000 
    170 H170        4.6606  -15.5829  -45.4369 H         1 UNK         0.0600 
    171 H171        4.7190  -18.0233  -46.1934 H         1 UNK         0.0600 
    172 H172        3.3703  -17.7029  -47.2775 H         1 UNK         0.0600 
    173 H173        4.9307  -16.9326  -47.5406 H         1 UNK         0.0600 
    174 H174        2.0767  -14.9699  -46.3853 H         1 UNK         0.3000 
    175 H175        3.1559  -12.6405  -48.9187 H         1 UNK         0.0600 
    176 H176        1.0712  -14.8813  -48.8725 H         1 UNK         0.0600 
    177 H177        0.9927  -13.4325  -49.8700 H         1 UNK         0.0600 
    178 H178        2.2744  -14.6084  -50.1216 H         1 UNK         0.0600 
    179 H179        0.7903  -12.9821  -47.2582 H         1 UNK         0.3000 
    180 H180        1.7759  -10.7035  -44.7533 H         1 UNK         0.0600 
    181 H181        0.0111   -9.9059  -47.1293 H         1 UNK         0.0600 
    182 H182        1.3607   -8.9756  -46.4903 H         1 UNK         0.0600 
    183 H183       -0.0779   -9.2144  -45.5097 H         1 UNK         0.0600 
    184 H184       -0.7907  -11.6897  -45.6108 H         1 UNK         0.3000 
    185 H185       -0.5444  -14.9293  -44.3533 H         1 UNK         0.0600 
    186 H186       -2.3223  -14.3740  -42.6768 H         1 UNK         0.0600 
    187 H187       -0.7508  -13.8425  -42.0977 H         1 UNK         0.0600 
    188 H188       -1.8834  -12.6690  -42.7554 H         1 UNK         0.0600 
    189 H189       -2.8743  -13.4545  -44.8952 H         1 UNK         0.3000 
    190 H190       -5.0117  -23.4421  -44.5648 H         1 UNK         0.3000 
    191 H191       -5.5553  -25.8905  -45.9516 H         1 UNK         0.0600 
    192 H192       -6.7121  -26.4995  -43.8230 H         1 UNK         0.0600 
    193 H193       -7.1558  -24.8842  -44.3502 H         1 UNK         0.0600 
    194 H194       -6.0114  -25.0967  -43.0247 H         1 UNK         0.0600 
    195 H195       -3.1978  -24.9954  -43.4222 H         1 UNK         0.3000 
    196 H196       -2.3133  -27.7167  -42.8994 H         1 UNK         0.0600 
    197 H197       -0.9786  -25.0534  -42.1873 H         1 UNK         0.0600 
    198 H198       -2.1735  -25.8767  -41.1819 H         1 UNK         0.0600 
    199 H199       -0.6165  -26.6272  -41.4996 H         1 UNK         0.0600 
    200 H200       -1.3182  -25.0033  -44.9576 H         1 UNK         0.3000 
    201 H201        1.0165  -26.2879  -46.0924 H         1 UNK         0.0600 
    202 H202       -0.6569  -23.9144  -47.0743 H         1 UNK         0.0600 
    203 H203        0.9511  -24.3467  -47.6413 H         1 UNK         0.0600 
    204 H204        0.7221  -23.8117  -45.9840 H         1 UNK         0.0600 
    205 H205       -2.2302  -27.0401  -46.4419 H         1 UNK         0.3000 
    206 H206       -3.5042  -28.2060  -47.8163 H         1 UNK         0.0600 
    207 H207       -1.6993  -29.9086  -47.4761 H         1 UNK         0.0600 
    208 H208       -2.4793  -30.0911  -49.0383 H         1 UNK         0.0600 
    209 H209       -0.8890  -29.3467  -48.9378 H         1 UNK         0.0600 
    210 H210       -3.0252  -25.5856  -48.6114 H         1 UNK         0.3000 
    211 H211       -3.3548  -24.1039  -50.1763 H         1 UNK         0.0600 
    212 H212       -4.7565  -24.6073  -52.1220 H         1 UNK         0.0600 
    213 H213       -5.3596  -25.4920  -50.7321 H         1 UNK         0.0600 
    214 H214       -4.4310  -26.3281  -51.9776 H         1 UNK         0.0600 
    215 H215       -0.7128  -25.7476  -50.2360 H         1 UNK         0.3000 
    216 H216        0.3087  -25.4359  -52.9008 H         1 UNK         0.0600 
    217 H217        1.8079  -25.5696  -50.2317 H         1 UNK         0.0600 
    218 H218        2.4989  -25.8381  -51.8263 H         1 UNK         0.0600 
    219 H219        1.3094  -26.9643  -51.1899 H         1 UNK         0.0600 
    220 H220       -0.2140  -23.1912  -50.3137 H         1 UNK         0.3000 
    221 H221        1.6389  -21.1275  -51.2565 H         1 UNK         0.0600 
    222 H222        1.2611  -21.5536  -48.8260 H         1 UNK         0.0600 
    223 H223       -0.4389  -21.1281  -49.0070 H         1 UNK         0.0600 
    224 H224        0.8144  -19.9167  -49.2657 H         1 UNK         0.0600 
    225 H225       -0.9928  -22.1073  -52.7665 H         1 UNK         0.3000 
    226 H226       -2.8177  -19.9863  -52.8663 H         1 UNK         0.0600 
    227 H227       -2.1821  -22.1724  -54.9077 H         1 UNK         0.0600 
    228 H228       -3.3996  -22.2257  -53.6306 H         1 UNK         0.0600 
    229 H229       -3.5990  -21.1292  -54.9814 H         1 UNK         0.0600 
    230 H230        0.3268  -19.7855  -54.0373 H         1 UNK         0.3000 
    231 H231        0.0341  -17.9363  -56.2041 H         1 UNK         0.0600 
    232 H232        2.2449  -18.2398  -54.0971 H         1 UNK         0.0600 
    233 H233        2.3761  -17.3080  -55.5843 H         1 UNK         0.0600 
    234 H234        2.1879  -19.0526  -55.6621 H         1 UNK         0.0600 
    235 H235       -0.3947  -17.6250  -52.7144 H         1 UNK         0.3000 
    236 H236       -0.1499  -14.8364  -52.3901 H         1 UNK         0.0600 
    237 H237       -0.1923  -16.4867  -50.5367 H         1 UNK         0.0600 
    238 H238       -1.4173  -15.2517  -50.2887 H         1 UNK         0.0600 
    239 H239       -1.8863  -16.8502  -50.8631 H         1 UNK         0.0600 
    240 H240       -2.7788  -16.6715  -53.8526 H         1 UNK         0.3000 
    241 H241       -4.4065  -14.1895  -54.0817 H         1 UNK         0.0600 
    242 H242       -2.7502  -15.2145  -57.4454 H         1 UNK         0.3800 
    243 H243       -2.0252  -15.3983  -55.8685 H         1 UNK         0.3800 
    244 H244       -6.3992  -15.5701  -54.4065 H         1 UNK         0.0800 
    245 H245       -5.6676  -15.8049  -52.8520 H         1 UNK         0.0800 
    246 H246       -6.8825  -19.4442  -53.1561 H         1 UNK         0.0800 
    247 H247       -7.5798  -17.8520  -53.0003 H         1 UNK         0.0800 
@<TRIPOS>BOND
     1    1    2 1    
     2    1  127 1    
     3    1  128 1    
     4    1  129 1    
     5    2    3 2    
     6    2    4 am   BACKBONE|DICT|INTERRES
     7    4    5 1    
     8    4  130 1    
     9    5    6 1    
    10    5   65 1    
    11    5  131 1    
    12    6    7 1    
    13    6  132 1    
    14    6  133 1    
    15    7    8 1    
    16    8    9 1    
    17    8  134 1    
    18    8  135 1    
    19    9   10 ar   
    20    9   14 ar   
    21   10   11 ar   
    22   10  136 1    
    23   11   12 ar   
    24   11  126 1    
    25   12   13 ar   
    26   12  137 1    
    27   13   14 ar   
    28   13   15 1    
    29   14  138 1    
    30   15   16 1    
    31   15  139 1    
    32   15  140 1    
    33   16   17 1    
    34   17   18 1    
    35   17  141 1    
    36   17  142 1    
    37   18   19 1    
    38   18   67 1    
    39   18  143 1    
    40   19   20 am   BACKBONE|DICT|INTERRES
    41   19  144 1    
    42   20   21 2    
    43   20   22 1    
    44   22   23 1    
    45   22   24 1    
    46   22  145 1    
    47   23  146 1    
    48   23  147 1    
    49   23  148 1    
    50   24   25 am   BACKBONE|DICT|INTERRES
    51   24  149 1    
    52   25   26 2    
    53   25   27 1    
    54   27   28 1    
    55   27   29 1    
    56   27  150 1    
    57   28  151 1    
    58   28  152 1    
    59   28  153 1    
    60   29   30 am   BACKBONE|DICT|INTERRES
    61   29  154 1    
    62   30   31 2    
    63   30   32 1    
    64   32   33 1    
    65   32   34 1    
    66   32  155 1    
    67   33  156 1    
    68   33  157 1    
    69   33  158 1    
    70   34   35 am   BACKBONE|DICT|INTERRES
    71   34  159 1    
    72   35   36 2    
    73   35   37 1    
    74   37   38 1    
    75   37   39 1    
    76   37  160 1    
    77   38  161 1    
    78   38  162 1    
    79   38  163 1    
    80   39   40 am   BACKBONE|DICT|INTERRES
    81   39  164 1    
    82   40   41 2    
    83   40   42 1    
    84   42   43 1    
    85   42   44 1    
    86   42  165 1    
    87   43  166 1    
    88   43  167 1    
    89   43  168 1    
    90   44   45 am   BACKBONE|DICT|INTERRES
    91   44  169 1    
    92   45   46 2    
    93   45   47 1    
    94   47   48 1    
    95   47   49 1    
    96   47  170 1    
    97   48  171 1    
    98   48  172 1    
    99   48  173 1    
   100   49   50 am   BACKBONE|DICT|INTERRES
   101   49  174 1    
   102   50   51 2    
   103   50   52 1    
   104   52   53 1    
   105   52   54 1    
   106   52  175 1    
   107   53  176 1    
   108   53  177 1    
   109   53  178 1    
   110   54   55 am   BACKBONE|DICT|INTERRES
   111   54  179 1    
   112   55   56 2    
   113   55   57 1    
   114   57   58 1    
   115   57   59 1    
   116   57  180 1    
   117   58  181 1    
   118   58  182 1    
   119   58  183 1    
   120   59   60 am   BACKBONE|DICT|INTERRES
   121   59  184 1    
   122   60   61 2    
   123   60   62 1    
   124   62   63 1    
   125   62   64 1    
   126   62  185 1    
   127   63  186 1    
   128   63  187 1    
   129   63  188 1    
   130   64   65 am   BACKBONE|DICT|INTERRES
   131   64  189 1    
   132   65   66 2    
   133   67   68 2    
   134   67   69 am   BACKBONE|DICT|INTERRES
   135   69   70 1    
   136   69  190 1    
   137   70   71 1    
   138   70   72 1    
   139   70  191 1    
   140   71  192 1    
   141   71  193 1    
   142   71  194 1    
   143   72   73 2    
   144   72   74 am   BACKBONE|DICT|INTERRES
   145   74   75 1    
   146   74  195 1    
   147   75   76 1    
   148   75   77 1    
   149   75  196 1    
   150   76  197 1    
   151   76  198 1    
   152   76  199 1    
   153   77   78 2    
   154   77   79 am   BACKBONE|DICT|INTERRES
   155   79   80 1    
   156   79  200 1    
   157   80   81 1    
   158   80   82 1    
   159   80  201 1    
   160   81  202 1    
   161   81  203 1    
   162   81  204 1    
   163   82   83 2    
   164   82   84 am   BACKBONE|DICT|INTERRES
   165   84   85 1    
   166   84  205 1    
   167   85   86 1    
   168   85   87 1    
   169   85  206 1    
   170   86  207 1    
   171   86  208 1    
   172   86  209 1    
   173   87   88 2    
   174   87   89 am   BACKBONE|DICT|INTERRES
   175   89   90 1    
   176   89  210 1    
   177   90   91 1    
   178   90   92 1    
   179   90  211 1    
   180   91  212 1    
   181   91  213 1    
   182   91  214 1    
   183   92   93 2    
   184   92   94 am   BACKBONE|DICT|INTERRES
   185   94   95 1    
   186   94  215 1    
   187   95   96 1    
   188   95   97 1    
   189   95  216 1    
   190   96  217 1    
   191   96  218 1    
   192   96  219 1    
   193   97   98 2    
   194   97   99 am   BACKBONE|DICT|INTERRES
   195   99  100 1    
   196   99  220 1    
   197  100  101 1    
   198  100  102 1    
   199  100  221 1    
   200  101  222 1    
   201  101  223 1    
   202  101  224 1    
   203  102  103 2    
   204  102  104 am   BACKBONE|DICT|INTERRES
   205  104  105 1    
   206  104  225 1    
   207  105  106 1    
   208  105  107 1    
   209  105  226 1    
   210  106  227 1    
   211  106  228 1    
   212  106  229 1    
   213  107  108 2    
   214  107  109 am   BACKBONE|DICT|INTERRES
   215  109  110 1    
   216  109  230 1    
   217  110  111 1    
   218  110  112 1    
   219  110  231 1    
   220  111  232 1    
   221  111  233 1    
   222  111  234 1    
   223  112  113 2    
   224  112  114 am   BACKBONE|DICT|INTERRES
   225  114  115 1    
   226  114  235 1    
   227  115  116 1    
   228  115  117 1    
   229  115  236 1    
   230  116  237 1    
   231  116  238 1    
   232  116  239 1    
   233  117  118 2    
   234  117  119 am   BACKBONE|DICT|INTERRES
   235  119  120 1    
   236  119  240 1    
   237  120  121 1    
   238  120  124 1    
   239  120  241 1    
   240  121  122 am   BACKBONE|DICT|INTERRES
   241  121  123 2    
   242  122  242 1    
   243  122  243 1    
   244  124  125 1    
   245  124  244 1    
   246  124  245 1    
   247  125  126 1    
   248  126  246 1    
   249  126  247 1    
@<TRIPOS>SUBSTRUCTURE
     1 UNK         1 GROUP             0       ****    0 ROOT    
