@<TRIPOS>MOLECULE
3R540
247   249    1
SMALL
USER_CHARGES


@<TRIPOS>ATOM
      1 CA         -5.5594  -15.8843  -45.3307 C.3       0 UNK        -0.1800 
      2 C          -4.8844  -14.5668  -45.6846 C.2       0 UNK         0.5000 
      3 O          -5.1278  -13.5562  -45.0240 O.2       0 UNK        -0.5000 
      4 N          -4.0412  -14.5742  -46.7234 N.am      1 UNK        -0.5000 
      5 CA         -3.1913  -13.4511  -47.1326 C.3       1 UNK         0.1400 
      6 C6         -2.6145  -13.6699  -48.5592 C.3       23 UNK        -0.0398 
      7 S7         -1.6503  -15.2102  -48.7200 S.3       23 UNK        -0.2404 
      8 C8         -1.0357  -15.1386  -50.4353 C.3       23 UNK        -0.0205 
      9 C9         -0.1040  -16.3006  -50.7864 C.ar      23 UNK        -0.0193 
     10 C10        -0.1593  -16.8816  -52.0580 C.ar      23 UNK        -0.1150 
     11 C11         0.6976  -17.9335  -52.4007 C.ar      23 UNK        -0.0193 
     12 C12         1.6286  -18.3967  -51.4663 C.ar      23 UNK        -0.1150 
     13 C13         1.6970  -17.8301  -50.1920 C.ar      23 UNK        -0.0193 
     14 C14         0.8308  -16.7860  -49.8640 C.ar      23 UNK        -0.1150 
     15 C15         2.7034  -18.3372  -49.1650 C.3       23 UNK        -0.0205 
     16 S16         2.4444  -20.0855  -48.7177 S.3       23 UNK        -0.2404 
     17 C17         0.6722  -20.0913  -48.2959 C.3       23 UNK        -0.0398 
     18 CA          0.2178  -21.4194  -47.6518 C.3       11 UNK         0.1400 
     19 N           0.9119  -21.7006  -46.3892 N.am      11 UNK        -0.5000 
     20 C           1.0013  -22.9179  -45.8348 C.2       10 UNK         0.5000 
     21 O           0.5058  -23.9313  -46.3274 O.2       10 UNK        -0.5000 
     22 CA          1.7248  -23.0015  -44.4778 C.3       10 UNK         0.1400 
     23 CB          3.2477  -22.9758  -44.6716 C.3       10 UNK        -0.1800 
     24 N           1.3231  -21.9300  -43.5614 N.am      10 UNK        -0.5000 
     25 C           0.0851  -21.7948  -43.0610 C.2       9 UNK         0.5000 
     26 O          -0.8291  -22.5791  -43.3167 O.2       9 UNK        -0.5000 
     27 CA         -0.2074  -20.5617  -42.1817 C.3       9 UNK         0.1400 
     28 CB         -1.2150  -20.8550  -41.0501 C.3       9 UNK        -0.1800 
     29 N           0.9903  -19.8868  -41.6754 N.am      9 UNK        -0.5000 
     30 C           1.8544  -20.3218  -40.7475 C.2       8 UNK         0.5000 
     31 O           1.7631  -21.4104  -40.1778 O.2       8 UNK        -0.5000 
     32 CA          3.0150  -19.3619  -40.4115 C.3       8 UNK         0.1400 
     33 CB          4.1507  -20.0356  -39.6128 C.3       8 UNK        -0.1800 
     34 N           3.5463  -18.6667  -41.5891 N.am      8 UNK        -0.5000 
     35 C           4.1332  -19.2186  -42.6627 C.2       7 UNK         0.5000 
     36 O           4.2658  -20.4339  -42.8063 O.2       7 UNK        -0.5000 
     37 CA          4.6432  -18.2764  -43.7768 C.3       7 UNK         0.1400 
     38 CB          4.1508  -18.7403  -45.1593 C.3       7 UNK        -0.1800 
     39 N           4.2632  -16.8750  -43.5810 N.am      7 UNK        -0.5000 
     40 C           4.8724  -16.0064  -42.7625 C.2       6 UNK         0.5000 
     41 O           5.8843  -16.2742  -42.1146 O.2       6 UNK        -0.5000 
     42 CA          4.2093  -14.6229  -42.5997 C.3       6 UNK         0.1400 
     43 CB          4.7445  -13.6381  -43.6495 C.3       6 UNK        -0.1800 
     44 N           2.7455  -14.6707  -42.6761 N.am      6 UNK        -0.5000 
     45 C           1.9538  -15.3184  -41.8077 C.2       5 UNK         0.5000 
     46 O           2.3732  -15.9128  -40.8141 O.2       5 UNK        -0.5000 
     47 CA          0.4521  -15.3790  -42.1481 C.3       5 UNK         0.1400 
     48 CB         -0.2615  -14.0709  -41.7762 C.3       5 UNK        -0.1800 
     49 N           0.2215  -15.6874  -43.5599 N.am      5 UNK        -0.5000 
     50 C           0.5883  -16.8342  -44.1486 C.2       4 UNK         0.5000 
     51 O           1.0819  -17.7872  -43.5477 O.2       4 UNK        -0.5000 
     52 CA          0.4286  -16.9149  -45.6716 C.3       4 UNK         0.1400 
     53 CB         -0.9868  -17.3815  -46.0453 C.3       4 UNK        -0.1800 
     54 N           0.7531  -15.6398  -46.3141 N.am      4 UNK        -0.5000 
     55 C           2.0043  -15.1691  -46.4380 C.2       3 UNK         0.5000 
     56 O           2.9977  -15.7951  -46.0743 O.2       3 UNK        -0.5000 
     57 CA          2.1872  -13.7574  -47.0280 C.3       3 UNK         0.1400 
     58 CB          2.3359  -13.8050  -48.5549 C.3       3 UNK        -0.1800 
     59 N           1.1015  -12.8457  -46.6753 N.am      3 UNK        -0.5000 
     60 C           0.8686  -12.3918  -45.4365 C.2       2 UNK         0.5000 
     61 O           1.5829  -12.6545  -44.4692 O.2       2 UNK        -0.5000 
     62 CA         -0.4090  -11.5515  -45.2388 C.3       2 UNK         0.1400 
     63 CB         -0.1134  -10.0610  -45.4602 C.3       2 UNK        -0.1800 
     64 N          -1.5177  -11.9631  -46.1093 N.am      2 UNK        -0.5000 
     65 C          -2.0756  -13.1821  -46.0937 C.2       1 UNK         0.5000 
     66 O          -1.7003  -14.0809  -45.3343 O.2       1 UNK        -0.5000 
     67 C          -1.3151  -21.4243  -47.4870 C.2       11 UNK         0.5000 
     68 O          -2.0238  -21.6735  -48.4622 O.2       11 UNK        -0.5000 
     69 N          -1.8080  -21.1748  -46.2631 N.am      12 UNK        -0.5000 
     70 CA         -3.2362  -21.1248  -45.9356 C.3       12 UNK         0.1400 
     71 CB         -3.4317  -20.5577  -44.5220 C.3       12 UNK        -0.1800 
     72 C          -3.9588  -22.4779  -46.0912 C.2       12 UNK         0.5000 
     73 O          -5.1831  -22.4928  -46.2242 O.2       12 UNK        -0.5000 
     74 N          -3.1935  -23.5789  -46.1282 N.am      13 UNK        -0.5000 
     75 CA         -3.6646  -24.9246  -46.4562 C.3       13 UNK         0.1400 
     76 CB         -2.5090  -25.9187  -46.2665 C.3       13 UNK        -0.1800 
     77 C          -4.2465  -25.0376  -47.8812 C.2       13 UNK         0.5000 
     78 O          -5.1395  -25.8560  -48.1026 O.2       13 UNK        -0.5000 
     79 N          -3.7836  -24.1875  -48.8113 N.am      14 UNK        -0.5000 
     80 CA         -4.3022  -24.0636  -50.1753 C.3       14 UNK         0.1400 
     81 CB         -3.1684  -23.5799  -51.0999 C.3       14 UNK        -0.1800 
     82 C          -5.5456  -23.1483  -50.2160 C.2       14 UNK         0.5000 
     83 O          -5.5766  -22.1818  -50.9794 O.2       14 UNK        -0.5000 
     84 N          -6.5383  -23.4568  -49.3675 N.am      15 UNK        -0.5000 
     85 CA         -7.8288  -22.7755  -49.2067 C.3       15 UNK         0.1400 
     86 CB         -8.7272  -23.0518  -50.4304 C.3       15 UNK        -0.1800 
     87 C          -7.6703  -21.2684  -48.9201 C.2       15 UNK         0.5000 
     88 O          -8.1252  -20.4394  -49.7078 O.2       15 UNK        -0.5000 
     89 N          -6.9575  -20.9405  -47.8320 N.am      16 UNK        -0.5000 
     90 CA         -6.5629  -19.5826  -47.4241 C.3       16 UNK         0.1400 
     91 CB         -7.7974  -18.7165  -47.0952 C.3       16 UNK        -0.1800 
     92 C          -5.6053  -18.9092  -48.4344 C.2       16 UNK         0.5000 
     93 O          -5.5646  -17.6820  -48.5254 O.2       16 UNK        -0.5000 
     94 N          -4.8614  -19.7456  -49.1740 N.am      17 UNK        -0.5000 
     95 CA         -3.9641  -19.4242  -50.2869 C.3       17 UNK         0.1400 
     96 CB         -2.8088  -18.5172  -49.8261 C.3       17 UNK        -0.1800 
     97 C          -4.6967  -18.8815  -51.5348 C.2       17 UNK         0.5000 
     98 O          -4.0659  -18.2427  -52.3782 O.2       17 UNK        -0.5000 
     99 N          -6.0079  -19.1436  -51.6452 N.am      18 UNK        -0.5000 
    100 CA        -6.8288  -18.7581  -52.7923 C.3       18 UNK         0.1400 
    101 CB        -8.2734  -18.5167  -52.3289 C.3       18 UNK        -0.1800 
    102 C         -6.7972  -19.8065  -53.9193 C.2       18 UNK         0.5000 
    103 O         -7.0758  -19.4515  -55.0666 O.2       18 UNK        -0.5000 
    104 N         -6.4792  -21.0694  -53.5953 N.am      19 UNK        -0.5000 
    105 CA        -6.3392  -22.1467  -54.5758 C.3       19 UNK         0.1400 
    106 CB        -6.4758  -23.5080  -53.8735 C.3       19 UNK        -0.1800 
    107 C         -4.9959  -22.0554  -55.3215 C.2       19 UNK         0.5000 
    108 O         -4.0366  -21.4700  -54.8121 O.2       19 UNK        -0.5000 
    109 N         -4.9509  -22.6630  -56.5132 N.am      20 UNK        -0.5000 
    110 CA        -3.7524  -22.7800  -57.3437 C.3       20 UNK         0.1400 
    111 CB        -4.1485  -23.3695  -58.7062 C.3       20 UNK        -0.1800 
    112 C         -2.6627  -23.6434  -56.6782 C.2       20 UNK         0.5000 
    113 O         -2.9833  -24.5604  -55.9171 O.2       20 UNK        -0.5000 
    114 N         -1.3994  -23.3388  -57.0062 N.am      21 UNK        -0.5000 
    115 CA        -0.1798  -23.9725  -56.4893 C.3       21 UNK         0.1400 
    116 CB        -0.0905  -25.4507  -56.9266 C.3       21 UNK        -0.1800 
    117 C          0.0134  -23.7716  -54.9694 C.2       21 UNK         0.5000 
    118 O          0.5071  -24.6689  -54.2832 O.2       21 UNK        -0.5000 
    119 N         -0.3692  -22.5862  -54.4760 N.am      22 UNK        -0.5000 
    120 CA        -0.1037  -22.1076  -53.1115 C.3       22 UNK         0.1400 
    121 C          1.4126  -21.9854  -52.7819 C.2       22 UNK         0.5000 
    122 N          1.7919  -22.1727  -51.5255 N.am      22 UNK        -0.7600 
    123 O          2.2436  -21.7023  -53.6426 O.2       22 UNK        -0.5000 
    124 C124       -0.8730  -20.7946  -52.7869 C.3       23 UNK        -0.0398 
    125 S125       -0.8724  -19.5166  -54.1002 S.3       23 UNK        -0.2404 
    126 C126        0.6443  -18.5527  -53.7897 C.3       23 UNK        -0.0205 
    127 H127       -6.6391  -15.7952  -45.4498 H         1 UNK         0.0600 
    128 H128       -5.2090  -16.7003  -45.9631 H         1 UNK         0.0600 
    129 H129       -5.3492  -16.1469  -44.2937 H         1 UNK         0.0600 
    130 H130       -3.8740  -15.4380  -47.2205 H         1 UNK         0.3000 
    131 H131       -3.8221  -12.5602  -47.1645 H         1 UNK         0.0600 
    132 H132       -1.9924  -12.8260  -48.8618 H         1 UNK         0.0800 
    133 H133       -3.4330  -13.7081  -49.2794 H         1 UNK         0.0800 
    134 H134       -0.5027  -14.2005  -50.5929 H         1 UNK         0.0800 
    135 H135       -1.8957  -15.1303  -51.1071 H         1 UNK         0.0800 
    136 H136       -0.8739  -16.5210  -52.7847 H         1 UNK         0.1150 
    137 H137        2.2984  -19.2048  -51.7252 H         1 UNK         0.1150 
    138 H138        0.8859  -16.3515  -48.8800 H         1 UNK         0.1150 
    139 H139        3.7107  -18.2211  -49.5668 H         1 UNK         0.0800 
    140 H140        2.6671  -17.7357  -48.2553 H         1 UNK         0.0800 
    141 H141        0.4675  -19.2511  -47.6353 H         1 UNK         0.0800 
    142 H142        0.1124  -19.9058  -49.2149 H         1 UNK         0.0800 
    143 H143        0.4560  -22.2231  -48.3523 H         1 UNK         0.0600 
    144 H144        1.3711  -20.9247  -45.9367 H         1 UNK         0.3000 
    145 H145        1.4585  -23.9551  -44.0169 H         1 UNK         0.0600 
    146 H146        3.7675  -23.1053  -43.7220 H         1 UNK         0.0600 
    147 H147        3.5715  -23.7814  -45.3318 H         1 UNK         0.0600 
    148 H148        3.5839  -22.0361  -45.1109 H         1 UNK         0.0600 
    149 H149        2.0383  -21.2705  -43.2838 H         1 UNK         0.3000 
    150 H150       -0.6823  -19.8405  -42.8481 H         1 UNK         0.0600 
    151 H151       -2.1730  -21.1853  -41.4523 H         1 UNK         0.0600 
    152 H152       -1.4077  -19.9638  -40.4527 H         1 UNK         0.0600 
    153 H153       -0.8598  -21.6390  -40.3811 H         1 UNK         0.0600 
    154 H154        1.1925  -19.0026  -42.1383 H         1 UNK         0.3000 
    155 H155        2.5855  -18.5873  -39.7747 H         1 UNK         0.0600 
    156 H156        3.7816  -20.4288  -38.6649 H         1 UNK         0.0600 
    157 H157        4.9438  -19.3248  -39.3808 H         1 UNK         0.0600 
    158 H158        4.5947  -20.8675  -40.1602 H         1 UNK         0.0600 
    159 H159        3.4320  -17.6606  -41.5774 H         1 UNK         0.3000 
    160 H160        5.7329  -18.3422  -43.7729 H         1 UNK         0.0600 
    161 H161        3.0631  -18.7654  -45.2116 H         1 UNK         0.0600 
    162 H162        4.5126  -19.7424  -45.3911 H         1 UNK         0.0600 
    163 H163        4.5103  -18.0818  -45.9500 H         1 UNK         0.0600 
    164 H164        3.4722  -16.5497  -44.1237 H         1 UNK         0.3000 
    165 H165        4.4763  -14.2436  -41.6113 H         1 UNK         0.0600 
    166 H166        5.8288  -13.5442  -43.5793 H         1 UNK         0.0600 
    167 H167        4.5088  -13.9634  -44.6626 H         1 UNK         0.0600 
    168 H168        4.3216  -12.6431  -43.5099 H         1 UNK         0.0600 
    169 H169        2.3135  -14.1565  -43.4384 H         1 UNK         0.3000 
    170 H170        0.0098  -16.1839  -41.5570 H         1 UNK         0.0600 
    171 H171       -0.1568  -13.8613  -40.7111 H         1 UNK         0.0600 
    172 H172        0.1442  -13.2173  -42.3179 H         1 UNK         0.0600 
    173 H173       -1.3282  -14.1283  -41.9942 H         1 UNK         0.0600 
    174 H174       -0.2228  -14.9732  -44.1264 H         1 UNK         0.3000 
    175 H175        1.1317  -17.6657  -46.0347 H         1 UNK         0.0600 
    176 H176       -1.7494  -16.6647  -45.7414 H         1 UNK         0.0600 
    177 H177       -1.0823  -17.5382  -47.1185 H         1 UNK         0.0600 
    178 H178       -1.2211  -18.3301  -45.5628 H         1 UNK         0.0600 
    179 H179       -0.0284  -15.0579  -46.5848 H         1 UNK         0.3000 
    180 H180        3.1147  -13.3542  -46.6163 H         1 UNK         0.0600 
    181 H181        1.3953  -14.0545  -49.0433 H         1 UNK         0.0600 
    182 H182        2.6651  -12.8420  -48.9452 H         1 UNK         0.0600 
    183 H183        3.0751  -14.5479  -48.8581 H         1 UNK         0.0600 
    184 H184        0.4660  -12.5823  -47.4131 H         1 UNK         0.3000 
    185 H185       -0.7317  -11.6857  -44.2043 H         1 UNK         0.0600 
    186 H186       -0.9864   -9.4478  -45.2359 H         1 UNK         0.0600 
    187 H187        0.6948   -9.7228  -44.8102 H         1 UNK         0.0600 
    188 H188        0.1858   -9.8574  -46.4892 H         1 UNK         0.0600 
    189 H189       -1.8679  -11.2651  -46.7499 H         1 UNK         0.3000 
    190 H190       -1.1619  -21.0483  -45.4995 H         1 UNK         0.3000 
    191 H191       -3.6968  -20.4309  -46.6389 H         1 UNK         0.0600 
    192 H192       -4.4911  -20.4120  -44.3068 H         1 UNK         0.0600 
    193 H193       -2.9438  -19.5903  -44.4056 H         1 UNK         0.0600 
    194 H194       -3.0393  -21.2309  -43.7612 H         1 UNK         0.0600 
    195 H195       -2.1977  -23.4726  -45.9925 H         1 UNK         0.3000 
    196 H196       -4.4596  -25.1806  -45.7525 H         1 UNK         0.0600 
    197 H197       -2.8349  -26.9408  -46.4651 H         1 UNK         0.0600 
    198 H198       -2.1282  -25.8917  -45.2450 H         1 UNK         0.0600 
    199 H199       -1.6781  -25.7017  -46.9398 H         1 UNK         0.0600 
    200 H200       -3.0887  -23.5002  -48.5417 H         1 UNK         0.3000 
    201 H201       -4.6175  -25.0461  -50.5329 H         1 UNK         0.0600 
    202 H202       -2.7960  -22.6000  -50.8044 H         1 UNK         0.0600 
    203 H203       -3.5030  -23.5026  -52.1355 H         1 UNK         0.0600 
    204 H204       -2.3276  -24.2738  -51.0846 H         1 UNK         0.0600 
    205 H205       -6.3918  -24.2637  -48.7713 H         1 UNK         0.3000 
    206 H206       -8.3110  -23.2139  -48.3316 H         1 UNK         0.0600 
    207 H207       -8.8362  -24.1217  -50.6082 H         1 UNK         0.0600 
    208 H208       -9.7269  -22.6425  -50.2792 H         1 UNK         0.0600 
    209 H209       -8.3251  -22.5996  -51.3377 H         1 UNK         0.0600 
    210 H210       -6.5644  -21.6876  -47.2630 H         1 UNK         0.3000 
    211 H211       -5.9970  -19.6965  -46.4991 H         1 UNK         0.0600 
    212 H212       -8.3739  -18.4709  -47.9875 H         1 UNK         0.0600 
    213 H213       -7.5024  -17.7742  -46.6342 H         1 UNK         0.0600 
    214 H214       -8.4605  -19.2246  -46.3950 H         1 UNK         0.0600 
    215 H215       -5.0174  -20.7343  -49.0408 H         1 UNK         0.3000 
    216 H216       -3.5229  -20.3726  -50.5920 H         1 UNK         0.0600 
    217 H217       -3.1498  -17.4964  -49.6598 H         1 UNK         0.0600 
    218 H218       -2.0231  -18.4822  -50.5801 H         1 UNK         0.0600 
    219 H219       -2.3574  -18.8772  -48.9024 H         1 UNK         0.0600 
    220 H220       -6.4671  -19.6853  -50.9217 H         1 UNK         0.3000 
    221 H221       -6.4527  -17.8179  -53.2016 H         1 UNK         0.0600 
    222 H222       -8.7598  -19.4441  -52.0256 H         1 UNK         0.0600 
    223 H223       -8.3113  -17.8246  -51.4872 H         1 UNK         0.0600 
    224 H224       -8.8711  -18.0865  -53.1333 H         1 UNK         0.0600 
    225 H225       -6.2008  -21.2857  -52.6425 H         1 UNK         0.3000 
    226 H226       -7.1484  -22.0597  -55.3051 H         1 UNK         0.0600 
    227 H227       -7.4061  -23.5751  -53.3103 H         1 UNK         0.0600 
    228 H228       -6.4794  -24.3222  -54.5993 H         1 UNK         0.0600 
    229 H229       -5.6490  -23.6931  -53.1883 H         1 UNK         0.0600 
    230 H230       -5.7704  -23.1516  -56.8433 H         1 UNK         0.3000 
    231 H231       -3.3546  -21.7749  -57.4998 H         1 UNK         0.0600 
    232 H232       -4.5684  -24.3710  -58.6041 H         1 UNK         0.0600 
    233 H233       -4.8874  -22.7443  -59.2078 H         1 UNK         0.0600 
    234 H234       -3.2845  -23.4429  -59.3680 H         1 UNK         0.0600 
    235 H235       -1.2457  -22.5746  -57.6499 H         1 UNK         0.3000 
    236 H236        0.6523  -23.4483  -56.9617 H         1 UNK         0.0600 
    237 H237       -0.2223  -25.5521  -58.0038 H         1 UNK         0.0600 
    238 H238        0.8846  -25.8722  -56.6796 H         1 UNK         0.0600 
    239 H239       -0.8441  -26.0673  -56.4361 H         1 UNK         0.0600 
    240 H240       -0.7708  -21.9035  -55.1021 H         1 UNK         0.3000 
    241 H241       -0.4977  -22.8775  -52.4448 H         1 UNK         0.0600 
    242 H242        2.7688  -22.0829  -51.2943 H         1 UNK         0.3800 
    243 H243        1.1370  -22.4243  -50.8044 H         1 UNK         0.3800 
    244 H244       -0.5446  -20.3608  -51.8412 H         1 UNK         0.0800 
    245 H245       -1.9218  -21.0481  -52.6259 H         1 UNK         0.0800 
    246 H246        1.5153  -19.1837  -53.9667 H         1 UNK         0.0800 
    247 H247        0.7023  -17.7543  -54.5307 H         1 UNK         0.0800 
@<TRIPOS>BOND
     1    1    2 1    
     2    1  127 1    
     3    1  128 1    
     4    1  129 1    
     5    2    3 2    
     6    2    4 am   BACKBONE|DICT|INTERRES
     7    4    5 1    
     8    4  130 1    
     9    5    6 1    
    10    5   65 1    
    11    5  131 1    
    12    6    7 1    
    13    6  132 1    
    14    6  133 1    
    15    7    8 1    
    16    8    9 1    
    17    8  134 1    
    18    8  135 1    
    19    9   10 ar   
    20    9   14 ar   
    21   10   11 ar   
    22   10  136 1    
    23   11   12 ar   
    24   11  126 1    
    25   12   13 ar   
    26   12  137 1    
    27   13   14 ar   
    28   13   15 1    
    29   14  138 1    
    30   15   16 1    
    31   15  139 1    
    32   15  140 1    
    33   16   17 1    
    34   17   18 1    
    35   17  141 1    
    36   17  142 1    
    37   18   19 1    
    38   18   67 1    
    39   18  143 1    
    40   19   20 am   BACKBONE|DICT|INTERRES
    41   19  144 1    
    42   20   21 2    
    43   20   22 1    
    44   22   23 1    
    45   22   24 1    
    46   22  145 1    
    47   23  146 1    
    48   23  147 1    
    49   23  148 1    
    50   24   25 am   BACKBONE|DICT|INTERRES
    51   24  149 1    
    52   25   26 2    
    53   25   27 1    
    54   27   28 1    
    55   27   29 1    
    56   27  150 1    
    57   28  151 1    
    58   28  152 1    
    59   28  153 1    
    60   29   30 am   BACKBONE|DICT|INTERRES
    61   29  154 1    
    62   30   31 2    
    63   30   32 1    
    64   32   33 1    
    65   32   34 1    
    66   32  155 1    
    67   33  156 1    
    68   33  157 1    
    69   33  158 1    
    70   34   35 am   BACKBONE|DICT|INTERRES
    71   34  159 1    
    72   35   36 2    
    73   35   37 1    
    74   37   38 1    
    75   37   39 1    
    76   37  160 1    
    77   38  161 1    
    78   38  162 1    
    79   38  163 1    
    80   39   40 am   BACKBONE|DICT|INTERRES
    81   39  164 1    
    82   40   41 2    
    83   40   42 1    
    84   42   43 1    
    85   42   44 1    
    86   42  165 1    
    87   43  166 1    
    88   43  167 1    
    89   43  168 1    
    90   44   45 am   BACKBONE|DICT|INTERRES
    91   44  169 1    
    92   45   46 2    
    93   45   47 1    
    94   47   48 1    
    95   47   49 1    
    96   47  170 1    
    97   48  171 1    
    98   48  172 1    
    99   48  173 1    
   100   49   50 am   BACKBONE|DICT|INTERRES
   101   49  174 1    
   102   50   51 2    
   103   50   52 1    
   104   52   53 1    
   105   52   54 1    
   106   52  175 1    
   107   53  176 1    
   108   53  177 1    
   109   53  178 1    
   110   54   55 am   BACKBONE|DICT|INTERRES
   111   54  179 1    
   112   55   56 2    
   113   55   57 1    
   114   57   58 1    
   115   57   59 1    
   116   57  180 1    
   117   58  181 1    
   118   58  182 1    
   119   58  183 1    
   120   59   60 am   BACKBONE|DICT|INTERRES
   121   59  184 1    
   122   60   61 2    
   123   60   62 1    
   124   62   63 1    
   125   62   64 1    
   126   62  185 1    
   127   63  186 1    
   128   63  187 1    
   129   63  188 1    
   130   64   65 am   BACKBONE|DICT|INTERRES
   131   64  189 1    
   132   65   66 2    
   133   67   68 2    
   134   67   69 am   BACKBONE|DICT|INTERRES
   135   69   70 1    
   136   69  190 1    
   137   70   71 1    
   138   70   72 1    
   139   70  191 1    
   140   71  192 1    
   141   71  193 1    
   142   71  194 1    
   143   72   73 2    
   144   72   74 am   BACKBONE|DICT|INTERRES
   145   74   75 1    
   146   74  195 1    
   147   75   76 1    
   148   75   77 1    
   149   75  196 1    
   150   76  197 1    
   151   76  198 1    
   152   76  199 1    
   153   77   78 2    
   154   77   79 am   BACKBONE|DICT|INTERRES
   155   79   80 1    
   156   79  200 1    
   157   80   81 1    
   158   80   82 1    
   159   80  201 1    
   160   81  202 1    
   161   81  203 1    
   162   81  204 1    
   163   82   83 2    
   164   82   84 am   BACKBONE|DICT|INTERRES
   165   84   85 1    
   166   84  205 1    
   167   85   86 1    
   168   85   87 1    
   169   85  206 1    
   170   86  207 1    
   171   86  208 1    
   172   86  209 1    
   173   87   88 2    
   174   87   89 am   BACKBONE|DICT|INTERRES
   175   89   90 1    
   176   89  210 1    
   177   90   91 1    
   178   90   92 1    
   179   90  211 1    
   180   91  212 1    
   181   91  213 1    
   182   91  214 1    
   183   92   93 2    
   184   92   94 am   BACKBONE|DICT|INTERRES
   185   94   95 1    
   186   94  215 1    
   187   95   96 1    
   188   95   97 1    
   189   95  216 1    
   190   96  217 1    
   191   96  218 1    
   192   96  219 1    
   193   97   98 2    
   194   97   99 am   BACKBONE|DICT|INTERRES
   195   99  100 1    
   196   99  220 1    
   197  100  101 1    
   198  100  102 1    
   199  100  221 1    
   200  101  222 1    
   201  101  223 1    
   202  101  224 1    
   203  102  103 2    
   204  102  104 am   BACKBONE|DICT|INTERRES
   205  104  105 1    
   206  104  225 1    
   207  105  106 1    
   208  105  107 1    
   209  105  226 1    
   210  106  227 1    
   211  106  228 1    
   212  106  229 1    
   213  107  108 2    
   214  107  109 am   BACKBONE|DICT|INTERRES
   215  109  110 1    
   216  109  230 1    
   217  110  111 1    
   218  110  112 1    
   219  110  231 1    
   220  111  232 1    
   221  111  233 1    
   222  111  234 1    
   223  112  113 2    
   224  112  114 am   BACKBONE|DICT|INTERRES
   225  114  115 1    
   226  114  235 1    
   227  115  116 1    
   228  115  117 1    
   229  115  236 1    
   230  116  237 1    
   231  116  238 1    
   232  116  239 1    
   233  117  118 2    
   234  117  119 am   BACKBONE|DICT|INTERRES
   235  119  120 1    
   236  119  240 1    
   237  120  121 1    
   238  120  124 1    
   239  120  241 1    
   240  121  122 am   BACKBONE|DICT|INTERRES
   241  121  123 2    
   242  122  242 1    
   243  122  243 1    
   244  124  125 1    
   245  124  244 1    
   246  124  245 1    
   247  125  126 1    
   248  126  246 1    
   249  126  247 1    
@<TRIPOS>SUBSTRUCTURE
     1 UNK         1 GROUP             0       ****    0 ROOT    
