@<TRIPOS>MOLECULE
3R540
247   249    1
SMALL
USER_CHARGES


@<TRIPOS>ATOM
      1 CA         -3.8473  -17.7234  -46.6901 C.3       0 UNK        -0.1800 
      2 C          -3.3918  -16.5541  -47.5430 C.2       0 UNK         0.5000 
      3 O          -4.0880  -15.5412  -47.6106 O.2       0 UNK        -0.5000 
      4 N          -2.2190  -16.6789  -48.1797 N.am      1 UNK        -0.5000 
      5 CA         -1.6665  -15.6864  -49.1179 C.3       1 UNK         0.1400 
      6 C6         -0.4451  -16.2297  -49.8964 C.3       23 UNK        -0.0398 
      7 S7          1.0399  -16.5474  -48.8784 S.3       23 UNK        -0.2404 
      8 C8          2.3346  -16.4907  -50.1604 C.3       23 UNK        -0.0205 
      9 C9          2.1683  -17.6442  -51.1350 C.ar      23 UNK        -0.0193 
     10 C10         1.5823  -17.4475  -52.3879 C.ar      23 UNK        -0.1150 
     11 C11         1.3375  -18.5345  -53.2329 C.ar      23 UNK        -0.0193 
     12 C12         1.6788  -19.8249  -52.8153 C.ar      23 UNK        -0.1150 
     13 C13         2.2660  -20.0273  -51.5635 C.ar      23 UNK        -0.0193 
     14 C14         2.5402  -18.9305  -50.7476 C.ar      23 UNK        -0.1150 
     15 C15         2.5547  -21.4266  -51.0478 C.3       23 UNK        -0.0205 
     16 S16         1.0490  -22.3025  -50.5024 S.3       23 UNK        -0.2404 
     17 C17         0.1138  -21.0869  -49.5034 C.3       23 UNK        -0.0398 
     18 CA          0.4476  -21.1557  -47.9936 C.3       11 UNK         0.1400 
     19 N           1.7212  -20.5164  -47.6570 N.am      11 UNK        -0.5000 
     20 C           2.4279  -20.7802  -46.5488 C.2       10 UNK         0.5000 
     21 O           2.1548  -21.7060  -45.7799 O.2       10 UNK        -0.5000 
     22 CA          3.6359  -19.8720  -46.2490 C.3       10 UNK         0.1400 
     23 CB          3.4479  -18.4103  -46.7055 C.3       10 UNK        -0.1800 
     24 N           3.9114  -19.8868  -44.8159 N.am      10 UNK        -0.5000 
     25 C           5.1194  -19.7330  -44.2625 C.2       9 UNK         0.5000 
     26 O           6.1555  -19.5974  -44.9153 O.2       9 UNK        -0.5000 
     27 CA          5.1966  -19.7004  -42.7246 C.3       9 UNK         0.1400 
     28 CB          5.1977  -18.2470  -42.2257 C.3       9 UNK        -0.1800 
     29 N           4.1095  -20.4160  -42.0605 N.am      9 UNK        -0.5000 
     30 C           3.9532  -21.7433  -42.0165 C.2       8 UNK         0.5000 
     31 O           4.7283  -22.5335  -42.5564 O.2       8 UNK        -0.5000 
     32 CA          2.7335  -22.2944  -41.2441 C.3       8 UNK         0.1400 
     33 CB          3.1260  -22.7026  -39.8112 C.3       8 UNK        -0.1800 
     34 N           1.5450  -21.4261  -41.2442 N.am      8 UNK        -0.5000 
     35 C           1.3734  -20.2209  -40.6821 C.2       7 UNK         0.5000 
     36 O           2.2327  -19.6333  -40.0229 O.2       7 UNK        -0.5000 
     37 CA          0.0340  -19.5206  -40.9766 C.3       7 UNK         0.1400 
     38 CB         -0.6573  -19.0782  -39.6783 C.3       7 UNK        -0.1800 
     39 N           0.1993  -18.3626  -41.8591 N.am      7 UNK        -0.5000 
     40 C           0.7694  -18.3722  -43.0756 C.2       6 UNK         0.5000 
     41 O           1.2192  -19.3861  -43.6086 O.2       6 UNK        -0.5000 
     42 CA          0.8524  -17.0401  -43.8448 C.3       6 UNK         0.1400 
     43 CB         -0.0013  -17.0923  -45.1205 C.3       6 UNK        -0.1800 
     44 N           0.4478  -15.8842  -43.0433 N.am      6 UNK        -0.5000 
     45 C           1.2670  -15.2141  -42.2191 C.2       5 UNK         0.5000 
     46 O           2.4618  -15.4797  -42.0879 O.2       5 UNK        -0.5000 
     47 CA          0.6601  -14.0658  -41.3878 C.3       5 UNK         0.1400 
     48 CB          1.0996  -12.6997  -41.9351 C.3       5 UNK        -0.1800 
     49 N          -0.8028  -14.1175  -41.3132 N.am      5 UNK        -0.5000 
     50 C          -1.4765  -14.9855  -40.5435 C.2       4 UNK         0.5000 
     51 O          -0.9226  -15.8105  -39.8184 O.2       4 UNK        -0.5000 
     52 CA         -3.0169  -14.9582  -40.6007 C.3       4 UNK         0.1400 
     53 CB         -3.5825  -14.1563  -39.4190 C.3       4 UNK        -0.1800 
     54 N          -3.5640  -14.4177  -41.8462 N.am      4 UNK        -0.5000 
     55 C          -3.4049  -14.9605  -43.0599 C.2       3 UNK         0.5000 
     56 O          -2.7535  -15.9868  -43.2641 O.2       3 UNK        -0.5000 
     57 CA         -4.0417  -14.2233  -44.2576 C.3       3 UNK         0.1400 
     58 CB         -4.8421  -12.9567  -43.8790 C.3       3 UNK        -0.1800 
     59 N          -3.0403  -13.9064  -45.2783 N.am      3 UNK        -0.5000 
     60 C          -1.9048  -13.2088  -45.1091 C.2       2 UNK         0.5000 
     61 O          -1.5872  -12.6775  -44.0439 O.2       2 UNK        -0.5000 
     62 CA         -0.9583  -13.1230  -46.3226 C.3       2 UNK         0.1400 
     63 CB          0.5209  -13.0107  -45.9113 C.3       2 UNK        -0.1800 
     64 N          -1.1266  -14.3013  -47.1691 N.am      2 UNK        -0.5000 
     65 C          -1.3794  -14.3054  -48.4819 C.2       1 UNK         0.5000 
     66 O          -1.4218  -13.2909  -49.1790 O.2       1 UNK        -0.5000 
     67 C          -0.6502  -20.4970  -47.1387 C.2       11 UNK         0.5000 
     68 O          -1.1854  -19.4507  -47.5144 O.2       11 UNK        -0.5000 
     69 N          -0.9106  -21.1120  -45.9803 N.am      12 UNK        -0.5000 
     70 CA         -1.9388  -20.7421  -45.0135 C.3       12 UNK         0.1400 
     71 CB         -1.7115  -21.5858  -43.7495 C.3       12 UNK        -0.1800 
     72 C          -3.3604  -20.9807  -45.5530 C.2       12 UNK         0.5000 
     73 O          -3.5362  -21.6484  -46.5736 O.2       12 UNK        -0.5000 
     74 N          -4.3675  -20.4870  -44.8200 N.am      13 UNK        -0.5000 
     75 CA         -5.7908  -20.6511  -45.1433 C.3       13 UNK         0.1400 
     76 CB         -6.6323  -19.8800  -44.1161 C.3       13 UNK        -0.1800 
     77 C          -6.2467  -22.1237  -45.2292 C.2       13 UNK         0.5000 
     78 O          -7.1499  -22.4353  -46.0046 O.2       13 UNK        -0.5000 
     79 N          -5.5731  -23.0065  -44.4777 N.am      14 UNK        -0.5000 
     80 CA         -5.7442  -24.4596  -44.5213 C.3       14 UNK         0.1400 
     81 CB         -5.0245  -25.0779  -43.3129 C.3       14 UNK        -0.1800 
     82 C          -5.2444  -25.1052  -45.8317 C.2       14 UNK         0.5000 
     83 O          -5.7272  -26.1802  -46.1890 O.2       14 UNK        -0.5000 
     84 N          -4.3029  -24.4500  -46.5290 N.am      15 UNK        -0.5000 
     85 CA         -3.7996  -24.8696  -47.8408 C.3       15 UNK         0.1400 
     86 CB         -2.3723  -24.3299  -48.0335 C.3       15 UNK        -0.1800 
     87 C          -4.7282  -24.4174  -48.9878 C.2       15 UNK         0.5000 
     88 O          -4.6312  -24.9588  -50.0903 O.2       15 UNK        -0.5000 
     89 N          -5.6213  -23.4578  -48.6957 N.am      16 UNK        -0.5000 
     90 CA         -6.7266  -22.9626  -49.5171 C.3       16 UNK         0.1400 
     91 CB         -7.8722  -23.9987  -49.5196 C.3       16 UNK        -0.1800 
     92 C          -6.2759  -22.5244  -50.9243 C.2       16 UNK         0.5000 
     93 O          -5.5971  -21.5043  -51.0500 O.2       16 UNK        -0.5000 
     94 N          -6.6383  -23.3090  -51.9491 N.am      17 UNK        -0.5000 
     95 CA         -6.3467  -23.0770  -53.3652 C.3       17 UNK         0.1400 
     96 CB         -6.9963  -24.1920  -54.1976 C.3       17 UNK        -0.1800 
     97 C          -4.8492  -22.9568  -53.7057 C.2       17 UNK         0.5000 
     98 O          -4.5178  -22.3251  -54.7079 O.2       17 UNK        -0.5000 
     99 N          -3.9662  -23.5078  -52.8597 N.am      18 UNK        -0.5000 
    100 CA        -2.5128  -23.3731  -52.9813 C.3       18 UNK         0.1400 
    101 CB        -1.8338  -24.2278  -51.9049 C.3       18 UNK        -0.1800 
    102 C         -2.0275  -21.9118  -52.8924 C.2       18 UNK         0.5000 
    103 O         -1.0681  -21.5552  -53.5730 O.2       18 UNK        -0.5000 
    104 N         -2.7276  -21.0793  -52.1065 N.am      19 UNK        -0.5000 
    105 CA        -2.4602  -19.6446  -51.9863 C.3       19 UNK         0.1400 
    106 CB        -3.1460  -19.1111  -50.7189 C.3       19 UNK        -0.1800 
    107 C         -2.9108  -18.8396  -53.2225 C.2       19 UNK         0.5000 
    108 O         -2.4140  -17.7335  -53.4314 O.2       19 UNK        -0.5000 
    109 N         -3.8360  -19.3967  -54.0162 N.am      20 UNK        -0.5000 
    110 CA        -4.3564  -18.7976  -55.2469 C.3       20 UNK         0.1400 
    111 CB        -5.8549  -19.1214  -55.3560 C.3       20 UNK        -0.1800 
    112 C         -3.6097  -19.2870  -56.5031 C.2       20 UNK         0.5000 
    113 O         -3.7308  -18.6599  -57.5569 O.2       20 UNK        -0.5000 
    114 N         -2.8471  -20.3844  -56.3806 N.am      21 UNK        -0.5000 
    115 CA        -2.1529  -21.0858  -57.4675 C.3       21 UNK         0.1400 
    116 CB        -1.5203  -22.3682  -56.9060 C.3       21 UNK        -0.1800 
    117 C         -1.0971  -20.2487  -58.2181 C.2       21 UNK         0.5000 
    118 O         -0.7314  -20.6035  -59.3396 O.2       21 UNK        -0.5000 
    119 N         -0.6445  -19.1506  -57.6026 N.am      22 UNK        -0.5000 
    120 CA         0.2186  -18.1318  -58.2179 C.3       22 UNK         0.1400 
    121 C         -0.4936  -17.2688  -59.3038 C.2       22 UNK         0.5000 
    122 N         -1.8195  -17.2644  -59.3972 N.am      22 UNK        -0.7600 
    123 O          0.1736  -16.5907  -60.0803 O.2       22 UNK        -0.5000 
    124 C124        0.8711  -17.2138  -57.1535 C.3       23 UNK        -0.0398 
    125 S125        1.8674  -18.1119  -55.9134 S.3       23 UNK        -0.2404 
    126 C126        0.6562  -18.3128  -54.5712 C.3       23 UNK        -0.0205 
    127 H127       -4.8683  -17.5750  -46.3382 H         1 UNK         0.0600 
    128 H128       -3.1999  -17.8330  -45.8212 H         1 UNK         0.0600 
    129 H129       -3.8205  -18.6449  -47.2715 H         1 UNK         0.0600 
    130 H130       -1.6865  -17.5373  -48.0632 H         1 UNK         0.3000 
    131 H131       -2.4503  -15.5105  -49.8580 H         1 UNK         0.0600 
    132 H132       -0.1838  -15.5305  -50.6926 H         1 UNK         0.0800 
    133 H133       -0.7121  -17.1592  -50.4005 H         1 UNK         0.0800 
    134 H134        3.3144  -16.5489  -49.6844 H         1 UNK         0.0800 
    135 H135        2.3012  -15.5316  -50.6796 H         1 UNK         0.0800 
    136 H136        1.2893  -16.4532  -52.6943 H         1 UNK         0.1150 
    137 H137        1.4588  -20.6728  -53.4489 H         1 UNK         0.1150 
    138 H138        2.9951  -19.0872  -49.7840 H         1 UNK         0.1150 
    139 H139        3.0379  -22.0097  -51.8328 H         1 UNK         0.0800 
    140 H140        3.2610  -21.3927  -50.2169 H         1 UNK         0.0800 
    141 H141        0.2191  -20.0739  -49.8896 H         1 UNK         0.0800 
    142 H142       -0.9368  -21.3391  -49.6585 H         1 UNK         0.0800 
    143 H143        0.4954  -22.2126  -47.7201 H         1 UNK         0.0600 
    144 H144        1.9667  -19.7106  -48.2105 H         1 UNK         0.3000 
    145 H145        4.4855  -20.3018  -46.7832 H         1 UNK         0.0600 
    146 H146        2.5271  -17.9810  -46.3138 H         1 UNK         0.0600 
    147 H147        4.2720  -17.7803  -46.3704 H         1 UNK         0.0600 
    148 H148        3.4195  -18.3268  -47.7885 H         1 UNK         0.0600 
    149 H149        3.0978  -20.0266  -44.2236 H         1 UNK         0.3000 
    150 H150        6.1398  -20.1656  -42.4308 H         1 UNK         0.0600 
    151 H151        6.0126  -17.6781  -42.6752 H         1 UNK         0.0600 
    152 H152        5.3270  -18.2003  -41.1443 H         1 UNK         0.0600 
    153 H153        4.2652  -17.7374  -42.4735 H         1 UNK         0.0600 
    154 H154        3.4462  -19.8570  -41.5348 H         1 UNK         0.3000 
    155 H155        2.4288  -23.2015  -41.7684 H         1 UNK         0.0600 
    156 H156        2.2836  -23.1493  -39.2831 H         1 UNK         0.0600 
    157 H157        3.4776  -21.8526  -39.2260 H         1 UNK         0.0600 
    158 H158        3.9291  -23.4404  -39.8243 H         1 UNK         0.0600 
    159 H159        0.7912  -21.7710  -41.8205 H         1 UNK         0.3000 
    160 H160       -0.6315  -20.2243  -41.4749 H         1 UNK         0.0600 
    161 H161       -0.0608  -18.3446  -39.1344 H         1 UNK         0.0600 
    162 H162       -0.8189  -19.9273  -39.0131 H         1 UNK         0.0600 
    163 H163       -1.6318  -18.6334  -39.8808 H         1 UNK         0.0600 
    164 H164       -0.1093  -17.4758  -41.4865 H         1 UNK         0.3000 
    165 H165        1.8939  -16.9193  -44.1501 H         1 UNK         0.0600 
    166 H166       -1.0662  -17.1335  -44.8976 H         1 UNK         0.0600 
    167 H167        0.1873  -16.2225  -45.7459 H         1 UNK         0.0600 
    168 H168        0.2380  -17.9702  -45.7201 H         1 UNK         0.0600 
    169 H169       -0.5330  -15.6331  -43.0729 H         1 UNK         0.3000 
    170 H170        1.0581  -14.1572  -40.3748 H         1 UNK         0.0600 
    171 H171        2.1859  -12.6044  -41.9163 H         1 UNK         0.0600 
    172 H172        0.7798  -12.5547  -42.9654 H         1 UNK         0.0600 
    173 H173        0.6916  -11.8840  -41.3382 H         1 UNK         0.0600 
    174 H174       -1.3132  -13.4919  -41.9252 H         1 UNK         0.3000 
    175 H175       -3.3611  -15.9905  -40.5085 H         1 UNK         0.0600 
    176 H176       -3.2929  -13.1059  -39.4707 H         1 UNK         0.0600 
    177 H177       -4.6713  -14.2047  -39.3932 H         1 UNK         0.0600 
    178 H178       -3.2190  -14.5505  -38.4689 H         1 UNK         0.0600 
    179 H179       -4.0880  -13.5580  -41.7714 H         1 UNK         0.3000 
    180 H180       -4.7354  -14.9306  -44.7143 H         1 UNK         0.0600 
    181 H181       -4.2160  -12.1951  -43.4127 H         1 UNK         0.0600 
    182 H182       -5.6548  -13.1925  -43.1908 H         1 UNK         0.0600 
    183 H183       -5.2965  -12.5091  -44.7630 H         1 UNK         0.0600 
    184 H184       -3.2236  -14.3078  -46.1917 H         1 UNK         0.3000 
    185 H185       -1.2350  -12.2199  -46.8698 H         1 UNK         0.0600 
    186 H186        0.7048  -12.0874  -45.3613 H         1 UNK         0.0600 
    187 H187        0.8279  -13.8423  -45.2764 H         1 UNK         0.0600 
    188 H188        1.1722  -12.9998  -46.7853 H         1 UNK         0.0600 
    189 H189       -1.1226  -15.1926  -46.6946 H         1 UNK         0.3000 
    190 H190       -0.3570  -21.9230  -45.7446 H         1 UNK         0.3000 
    191 H191       -1.8217  -19.6840  -44.7722 H         1 UNK         0.0600 
    192 H192       -2.3540  -21.2587  -42.9314 H         1 UNK         0.0600 
    193 H193       -0.6796  -21.5063  -43.4098 H         1 UNK         0.0600 
    194 H194       -1.9168  -22.6425  -43.9281 H         1 UNK         0.0600 
    195 H195       -4.1578  -19.9616  -43.9837 H         1 UNK         0.3000 
    196 H196       -5.9577  -20.2038  -46.1256 H         1 UNK         0.0600 
    197 H197       -7.6962  -19.9603  -44.3432 H         1 UNK         0.0600 
    198 H198       -6.3808  -18.8191  -44.1168 H         1 UNK         0.0600 
    199 H199       -6.4824  -20.2614  -43.1053 H         1 UNK         0.0600 
    200 H200       -4.8524  -22.6559  -43.8649 H         1 UNK         0.3000 
    201 H201       -6.8106  -24.6782  -44.4340 H         1 UNK         0.0600 
    202 H202       -5.4212  -24.6884  -42.3751 H         1 UNK         0.0600 
    203 H203       -3.9530  -24.8753  -43.3356 H         1 UNK         0.0600 
    204 H204       -5.1534  -26.1610  -43.2931 H         1 UNK         0.0600 
    205 H205       -3.9879  -23.5398  -46.2106 H         1 UNK         0.3000 
    206 H206       -3.7493  -25.9602  -47.8643 H         1 UNK         0.0600 
    207 H207       -1.7610  -24.4910  -47.1455 H         1 UNK         0.0600 
    208 H208       -1.8774  -24.8432  -48.8575 H         1 UNK         0.0600 
    209 H209       -2.3640  -23.2629  -48.2580 H         1 UNK         0.0600 
    210 H210       -5.5757  -23.0625  -47.7671 H         1 UNK         0.3000 
    211 H211       -7.0981  -22.0630  -49.0241 H         1 UNK         0.0600 
    212 H212       -7.5597  -24.9603  -49.9283 H         1 UNK         0.0600 
    213 H213       -8.7251  -23.6455  -50.1009 H         1 UNK         0.0600 
    214 H214       -8.2303  -24.1770  -48.5052 H         1 UNK         0.0600 
    215 H215       -7.1610  -24.1458  -51.7356 H         1 UNK         0.3000 
    216 H216       -6.8130  -22.1290  -53.6407 H         1 UNK         0.0600 
    217 H217       -6.5929  -25.1720  -53.9398 H         1 UNK         0.0600 
    218 H218       -6.8240  -24.0359  -55.2636 H         1 UNK         0.0600 
    219 H219       -8.0755  -24.2211  -54.0462 H         1 UNK         0.0600 
    220 H220       -4.3137  -24.0023  -52.0455 H         1 UNK         0.3000 
    221 H221       -2.2247  -23.7623  -53.9598 H         1 UNK         0.0600 
    222 H222       -2.0277  -23.8291  -50.9100 H         1 UNK         0.0600 
    223 H223       -2.1843  -25.2596  -51.9316 H         1 UNK         0.0600 
    224 H224       -0.7529  -24.2459  -52.0477 H         1 UNK         0.0600 
    225 H225       -3.5482  -21.4274  -51.6223 H         1 UNK         0.3000 
    226 H226       -1.3829  -19.5004  -51.8770 H         1 UNK         0.0600 
    227 H227       -2.7783  -19.6126  -49.8238 H         1 UNK         0.0600 
    228 H228       -2.9611  -18.0446  -50.5948 H         1 UNK         0.0600 
    229 H229       -4.2270  -19.2455  -50.7583 H         1 UNK         0.0600 
    230 H230       -4.1754  -20.3227  -53.7921 H         1 UNK         0.3000 
    231 H231       -4.2497  -17.7117  -55.2047 H         1 UNK         0.0600 
    232 H232       -6.2932  -18.6479  -56.2355 H         1 UNK         0.0600 
    233 H233       -6.4013  -18.7574  -54.4858 H         1 UNK         0.0600 
    234 H234       -6.0330  -20.1938  -55.4397 H         1 UNK         0.0600 
    235 H235       -2.8341  -20.8464  -55.4819 H         1 UNK         0.3000 
    236 H236       -2.9103  -21.3735  -58.1991 H         1 UNK         0.0600 
    237 H237       -0.7438  -22.1441  -56.1740 H         1 UNK         0.0600 
    238 H238       -2.2669  -23.0000  -56.4246 H         1 UNK         0.0600 
    239 H239       -1.0604  -22.9579  -57.6999 H         1 UNK         0.0600 
    240 H240       -1.0091  -18.9384  -56.6875 H         1 UNK         0.3000 
    241 H241        1.0239  -18.6594  -58.7326 H         1 UNK         0.0600 
    242 H242       -2.3960  -17.8083  -58.7628 H         1 UNK         0.3800 
    243 H243       -2.2613  -16.7029  -60.1079 H         1 UNK         0.3800 
    244 H244        1.5419  -16.5019  -57.6380 H         1 UNK         0.0800 
    245 H245        0.1137  -16.6088  -56.6527 H         1 UNK         0.0800 
    246 H246        0.0201  -17.4292  -54.5083 H         1 UNK         0.0800 
    247 H247       -0.0026  -19.1534  -54.7937 H         1 UNK         0.0800 
@<TRIPOS>BOND
     1    1    2 1    
     2    1  127 1    
     3    1  128 1    
     4    1  129 1    
     5    2    3 2    
     6    2    4 am   BACKBONE|DICT|INTERRES
     7    4    5 1    
     8    4  130 1    
     9    5    6 1    
    10    5   65 1    
    11    5  131 1    
    12    6    7 1    
    13    6  132 1    
    14    6  133 1    
    15    7    8 1    
    16    8    9 1    
    17    8  134 1    
    18    8  135 1    
    19    9   10 ar   
    20    9   14 ar   
    21   10   11 ar   
    22   10  136 1    
    23   11   12 ar   
    24   11  126 1    
    25   12   13 ar   
    26   12  137 1    
    27   13   14 ar   
    28   13   15 1    
    29   14  138 1    
    30   15   16 1    
    31   15  139 1    
    32   15  140 1    
    33   16   17 1    
    34   17   18 1    
    35   17  141 1    
    36   17  142 1    
    37   18   19 1    
    38   18   67 1    
    39   18  143 1    
    40   19   20 am   BACKBONE|DICT|INTERRES
    41   19  144 1    
    42   20   21 2    
    43   20   22 1    
    44   22   23 1    
    45   22   24 1    
    46   22  145 1    
    47   23  146 1    
    48   23  147 1    
    49   23  148 1    
    50   24   25 am   BACKBONE|DICT|INTERRES
    51   24  149 1    
    52   25   26 2    
    53   25   27 1    
    54   27   28 1    
    55   27   29 1    
    56   27  150 1    
    57   28  151 1    
    58   28  152 1    
    59   28  153 1    
    60   29   30 am   BACKBONE|DICT|INTERRES
    61   29  154 1    
    62   30   31 2    
    63   30   32 1    
    64   32   33 1    
    65   32   34 1    
    66   32  155 1    
    67   33  156 1    
    68   33  157 1    
    69   33  158 1    
    70   34   35 am   BACKBONE|DICT|INTERRES
    71   34  159 1    
    72   35   36 2    
    73   35   37 1    
    74   37   38 1    
    75   37   39 1    
    76   37  160 1    
    77   38  161 1    
    78   38  162 1    
    79   38  163 1    
    80   39   40 am   BACKBONE|DICT|INTERRES
    81   39  164 1    
    82   40   41 2    
    83   40   42 1    
    84   42   43 1    
    85   42   44 1    
    86   42  165 1    
    87   43  166 1    
    88   43  167 1    
    89   43  168 1    
    90   44   45 am   BACKBONE|DICT|INTERRES
    91   44  169 1    
    92   45   46 2    
    93   45   47 1    
    94   47   48 1    
    95   47   49 1    
    96   47  170 1    
    97   48  171 1    
    98   48  172 1    
    99   48  173 1    
   100   49   50 am   BACKBONE|DICT|INTERRES
   101   49  174 1    
   102   50   51 2    
   103   50   52 1    
   104   52   53 1    
   105   52   54 1    
   106   52  175 1    
   107   53  176 1    
   108   53  177 1    
   109   53  178 1    
   110   54   55 am   BACKBONE|DICT|INTERRES
   111   54  179 1    
   112   55   56 2    
   113   55   57 1    
   114   57   58 1    
   115   57   59 1    
   116   57  180 1    
   117   58  181 1    
   118   58  182 1    
   119   58  183 1    
   120   59   60 am   BACKBONE|DICT|INTERRES
   121   59  184 1    
   122   60   61 2    
   123   60   62 1    
   124   62   63 1    
   125   62   64 1    
   126   62  185 1    
   127   63  186 1    
   128   63  187 1    
   129   63  188 1    
   130   64   65 am   BACKBONE|DICT|INTERRES
   131   64  189 1    
   132   65   66 2    
   133   67   68 2    
   134   67   69 am   BACKBONE|DICT|INTERRES
   135   69   70 1    
   136   69  190 1    
   137   70   71 1    
   138   70   72 1    
   139   70  191 1    
   140   71  192 1    
   141   71  193 1    
   142   71  194 1    
   143   72   73 2    
   144   72   74 am   BACKBONE|DICT|INTERRES
   145   74   75 1    
   146   74  195 1    
   147   75   76 1    
   148   75   77 1    
   149   75  196 1    
   150   76  197 1    
   151   76  198 1    
   152   76  199 1    
   153   77   78 2    
   154   77   79 am   BACKBONE|DICT|INTERRES
   155   79   80 1    
   156   79  200 1    
   157   80   81 1    
   158   80   82 1    
   159   80  201 1    
   160   81  202 1    
   161   81  203 1    
   162   81  204 1    
   163   82   83 2    
   164   82   84 am   BACKBONE|DICT|INTERRES
   165   84   85 1    
   166   84  205 1    
   167   85   86 1    
   168   85   87 1    
   169   85  206 1    
   170   86  207 1    
   171   86  208 1    
   172   86  209 1    
   173   87   88 2    
   174   87   89 am   BACKBONE|DICT|INTERRES
   175   89   90 1    
   176   89  210 1    
   177   90   91 1    
   178   90   92 1    
   179   90  211 1    
   180   91  212 1    
   181   91  213 1    
   182   91  214 1    
   183   92   93 2    
   184   92   94 am   BACKBONE|DICT|INTERRES
   185   94   95 1    
   186   94  215 1    
   187   95   96 1    
   188   95   97 1    
   189   95  216 1    
   190   96  217 1    
   191   96  218 1    
   192   96  219 1    
   193   97   98 2    
   194   97   99 am   BACKBONE|DICT|INTERRES
   195   99  100 1    
   196   99  220 1    
   197  100  101 1    
   198  100  102 1    
   199  100  221 1    
   200  101  222 1    
   201  101  223 1    
   202  101  224 1    
   203  102  103 2    
   204  102  104 am   BACKBONE|DICT|INTERRES
   205  104  105 1    
   206  104  225 1    
   207  105  106 1    
   208  105  107 1    
   209  105  226 1    
   210  106  227 1    
   211  106  228 1    
   212  106  229 1    
   213  107  108 2    
   214  107  109 am   BACKBONE|DICT|INTERRES
   215  109  110 1    
   216  109  230 1    
   217  110  111 1    
   218  110  112 1    
   219  110  231 1    
   220  111  232 1    
   221  111  233 1    
   222  111  234 1    
   223  112  113 2    
   224  112  114 am   BACKBONE|DICT|INTERRES
   225  114  115 1    
   226  114  235 1    
   227  115  116 1    
   228  115  117 1    
   229  115  236 1    
   230  116  237 1    
   231  116  238 1    
   232  116  239 1    
   233  117  118 2    
   234  117  119 am   BACKBONE|DICT|INTERRES
   235  119  120 1    
   236  119  240 1    
   237  120  121 1    
   238  120  124 1    
   239  120  241 1    
   240  121  122 am   BACKBONE|DICT|INTERRES
   241  121  123 2    
   242  122  242 1    
   243  122  243 1    
   244  124  125 1    
   245  124  244 1    
   246  124  245 1    
   247  125  126 1    
   248  126  246 1    
   249  126  247 1    
@<TRIPOS>SUBSTRUCTURE
     1 UNK         1 GROUP             0       ****    0 ROOT    
