@<TRIPOS>MOLECULE
3R540
247   249    1
SMALL
USER_CHARGES


@<TRIPOS>ATOM
      1 CA          1.4152  -14.0389  -53.7918 C.3       0 UNK        -0.1800 
      2 C           2.3066  -13.2461  -52.8467 C.2       0 UNK         0.5000 
      3 O           3.4185  -12.8706  -53.2197 O.2       0 UNK        -0.5000 
      4 N           1.8239  -12.9902  -51.6293 N.am      1 UNK        -0.5000 
      5 CA          2.5259  -12.2642  -50.5710 C.3       1 UNK         0.1400 
      6 C6          3.6663  -13.1038  -49.9226 C.3       23 UNK        -0.0398 
      7 S7          3.0712  -14.6187  -49.0912 S.3       23 UNK        -0.2404 
      8 C8          3.9609  -15.9244  -49.9884 C.3       23 UNK        -0.0205 
      9 C9          3.2932  -17.2663  -49.7458 C.ar      23 UNK        -0.0193 
     10 C10         2.2724  -17.6884  -50.5996 C.ar      23 UNK        -0.1150 
     11 C11         1.5939  -18.8824  -50.3534 C.ar      23 UNK        -0.0193 
     12 C12         1.9445  -19.6564  -49.2461 C.ar      23 UNK        -0.1150 
     13 C13         2.9908  -19.2688  -48.4011 C.ar      23 UNK        -0.0193 
     14 C14         3.6616  -18.0674  -48.6590 C.ar      23 UNK        -0.1150 
     15 C15         3.3705  -20.1153  -47.1883 C.3       23 UNK        -0.0205 
     16 S16         4.4207  -21.5394  -47.6208 S.3       23 UNK        -0.2404 
     17 C17         3.1882  -22.7819  -48.1494 C.3       23 UNK        -0.0398 
     18 CA          2.9696  -23.9139  -47.1199 C.3       11 UNK         0.1400 
     19 N           2.5001  -23.4280  -45.8195 N.am      11 UNK        -0.5000 
     20 C           2.7080  -24.0703  -44.6614 C.2       10 UNK         0.5000 
     21 O           3.3660  -25.1069  -44.5633 O.2       10 UNK        -0.5000 
     22 CA          2.0718  -23.4657  -43.3966 C.3       10 UNK         0.1400 
     23 CB          3.0716  -22.5464  -42.6779 C.3       10 UNK        -0.1800 
     24 N           0.8405  -22.7283  -43.6856 N.am      10 UNK        -0.5000 
     25 C          -0.3305  -23.3178  -43.9696 C.2       9 UNK         0.5000 
     26 O          -0.4887  -24.5385  -43.9714 O.2       9 UNK        -0.5000 
     27 CA         -1.5358  -22.4168  -44.3086 C.3       9 UNK         0.1400 
     28 CB         -2.4614  -22.2790  -43.0906 C.3       9 UNK        -0.1800 
     29 N          -1.1968  -21.0808  -44.7945 N.am      9 UNK        -0.5000 
     30 C          -0.4900  -20.7957  -45.8969 C.2       8 UNK         0.5000 
     31 O          -0.0155  -21.6432  -46.6562 O.2       8 UNK        -0.5000 
     32 CA         -0.2047  -19.2981  -46.1338 C.3       8 UNK         0.1400 
     33 CB         -1.4011  -18.6293  -46.8212 C.3       8 UNK        -0.1800 
     34 N           0.1459  -18.5350  -44.9271 N.am      8 UNK        -0.5000 
     35 C           1.0144  -18.9018  -43.9730 C.2       7 UNK         0.5000 
     36 O           1.6369  -19.9635  -43.9814 O.2       7 UNK        -0.5000 
     37 CA          1.2062  -17.9004  -42.8220 C.3       7 UNK         0.1400 
     38 CB          1.8613  -18.5294  -41.5742 C.3       7 UNK        -0.1800 
     39 N           1.9400  -16.7182  -43.2700 N.am      7 UNK        -0.5000 
     40 C           3.1985  -16.6488  -43.7306 C.2       6 UNK         0.5000 
     41 O           3.9687  -17.6063  -43.8052 O.2       6 UNK        -0.5000 
     42 CA          3.6857  -15.2629  -44.1934 C.3       6 UNK         0.1400 
     43 CB          3.6663  -15.1829  -45.7251 C.3       6 UNK        -0.1800 
     44 N           2.8855  -14.1601  -43.6605 N.am      6 UNK        -0.5000 
     45 C           2.9042  -13.7318  -42.3915 C.2       5 UNK         0.5000 
     46 O           3.6384  -14.1970  -41.5194 O.2       5 UNK        -0.5000 
     47 CA          1.9135  -12.6110  -42.0386 C.3       5 UNK         0.1400 
     48 CB          2.4779  -11.2400  -42.4425 C.3       5 UNK        -0.1800 
     49 N           0.6227  -12.8168  -42.6973 N.am      5 UNK        -0.5000 
     50 C          -0.3714  -13.5667  -42.2033 C.2       4 UNK         0.5000 
     51 O          -0.3098  -14.1575  -41.1250 O.2       4 UNK        -0.5000 
     52 CA         -1.6528  -13.6789  -43.0518 C.3       4 UNK         0.1400 
     53 CB         -2.6437  -12.5674  -42.6744 C.3       4 UNK        -0.1800 
     54 N          -1.3970  -13.6204  -44.4913 N.am      4 UNK        -0.5000 
     55 C          -0.8719  -14.6234  -45.2067 C.2       3 UNK         0.5000 
     56 O          -0.5672  -15.7178  -44.7299 O.2       3 UNK        -0.5000 
     57 CA         -0.6380  -14.3601  -46.7071 C.3       3 UNK         0.1400 
     58 CB         -1.9109  -14.6987  -47.4981 C.3       3 UNK        -0.1800 
     59 N          -0.2204  -12.9979  -47.0624 N.am      3 UNK        -0.5000 
     60 C           0.7720  -12.2863  -46.5117 C.2       2 UNK         0.5000 
     61 O           1.4129  -12.6499  -45.5257 O.2       2 UNK        -0.5000 
     62 CA          1.1396  -10.9692  -47.2217 C.3       2 UNK         0.1400 
     63 CB          1.9098  -10.0048  -46.3022 C.3       2 UNK        -0.1800 
     64 N           1.9642  -11.2694  -48.3903 N.am      2 UNK        -0.5000 
     65 C           1.4911  -11.7284  -49.5563 C.2       1 UNK         0.5000 
     66 O           0.2864  -11.7512  -49.8252 O.2       1 UNK        -0.5000 
     67 C           1.9852  -24.9610  -47.6751 C.2       11 UNK         0.5000 
     68 O           2.4188  -26.0239  -48.1221 O.2       11 UNK        -0.5000 
     69 N           0.6824  -24.6531  -47.6207 N.am      12 UNK        -0.5000 
     70 CA         -0.4019  -25.5329  -48.0412 C.3       12 UNK         0.1400 
     71 CB         -0.5954  -25.4502  -49.5648 C.3       12 UNK        -0.1800 
     72 C          -1.6679  -25.1030  -47.2958 C.2       12 UNK         0.5000 
     73 O          -2.0478  -23.9350  -47.3980 O.2       12 UNK        -0.5000 
     74 N          -2.2820  -26.0423  -46.5631 N.am      13 UNK        -0.5000 
     75 CA         -3.4007  -25.8462  -45.6335 C.3       13 UNK         0.1400 
     76 CB         -3.9366  -27.2189  -45.1997 C.3       13 UNK        -0.1800 
     77 C          -4.5422  -24.9765  -46.1914 C.2       13 UNK         0.5000 
     78 O          -5.0969  -25.3031  -47.2420 O.2       13 UNK        -0.5000 
     79 N          -4.8436  -23.8773  -45.4847 N.am      14 UNK        -0.5000 
     80 CA         -5.8502  -22.8624  -45.8172 C.3       14 UNK         0.1400 
     81 CB         -7.2688  -23.4374  -45.6220 C.3       14 UNK        -0.1800 
     82 C          -5.6457  -22.2275  -47.2110 C.2       14 UNK         0.5000 
     83 O          -6.6175  -22.0296  -47.9399 O.2       14 UNK        -0.5000 
     84 N          -4.3808  -21.9539  -47.5695 N.am      15 UNK        -0.5000 
     85 CA         -3.9308  -21.4518  -48.8754 C.3       15 UNK         0.1400 
     86 CB         -4.4620  -20.0272  -49.1350 C.3       15 UNK        -0.1800 
     87 C          -4.2690  -22.4402  -50.0108 C.2       15 UNK         0.5000 
     88 O          -4.8321  -22.0504  -51.0384 O.2       15 UNK        -0.5000 
     89 N          -3.9505  -23.7183  -49.7580 N.am      16 UNK        -0.5000 
     90 CA         -4.2740  -24.9007  -50.5627 C.3       16 UNK         0.1400 
     91 CB         -3.5003  -24.8793  -51.8978 C.3       16 UNK        -0.1800 
     92 C          -5.7952  -25.0615  -50.7584 C.2       16 UNK         0.5000 
     93 O          -6.2602  -25.1964  -51.8892 O.2       16 UNK        -0.5000 
     94 N          -6.5505  -24.9815  -49.6532 N.am      17 UNK        -0.5000 
     95 CA         -8.0189  -24.9450  -49.5940 C.3       17 UNK         0.1400 
     96 CB         -8.6071  -26.3301  -49.9320 C.3       17 UNK        -0.1800 
     97 C          -8.6123  -23.8065  -50.4559 C.2       17 UNK         0.5000 
     98 O          -9.5746  -24.0144  -51.1968 O.2       17 UNK        -0.5000 
     99 N          -7.9739  -22.6325  -50.3636 N.am      18 UNK        -0.5000 
    100 CA        -8.1991  -21.3964  -51.1149 C.3       18 UNK         0.1400 
    101 CB        -9.6059  -20.8311  -50.8326 C.3       18 UNK        -0.1800 
    102 C         -7.8958  -21.4794  -52.6279 C.2       18 UNK         0.5000 
    103 O         -8.1746  -20.5108  -53.3363 O.2       18 UNK        -0.5000 
    104 N         -7.3204  -22.5906  -53.1147 N.am      19 UNK        -0.5000 
    105 CA        -6.9774  -22.7724  -54.5274 C.3       19 UNK         0.1400 
    106 CB        -6.8053  -24.2646  -54.8465 C.3       19 UNK        -0.1800 
    107 C         -5.7198  -21.9877  -54.9374 C.2       19 UNK         0.5000 
    108 O         -5.6518  -21.5221  -56.0760 O.2       19 UNK        -0.5000 
    109 N         -4.7558  -21.8418  -54.0159 N.am      20 UNK        -0.5000 
    110 CA        -3.5666  -21.0134  -54.2224 C.3       20 UNK         0.1400 
    111 CB        -2.4003  -21.5308  -53.3650 C.3       20 UNK        -0.1800 
    112 C         -3.8607  -19.5390  -53.9057 C.2       20 UNK         0.5000 
    113 O         -3.2964  -18.6591  -54.5569 O.2       20 UNK        -0.5000 
    114 N         -4.7316  -19.3028  -52.9109 N.am      21 UNK        -0.5000 
    115 CA        -5.2217  -18.0200  -52.3807 C.3       21 UNK         0.1400 
    116 CB        -5.9622  -17.2126  -53.4624 C.3       21 UNK        -0.1800 
    117 C         -4.1492  -17.1631  -51.6752 C.2       21 UNK         0.5000 
    118 O         -4.4319  -16.5928  -50.6220 O.2       21 UNK        -0.5000 
    119 N         -2.9398  -17.1242  -52.2433 N.am      22 UNK        -0.5000 
    120 CA        -1.6937  -16.5819  -51.6783 C.3       22 UNK         0.1400 
    121 C         -1.6168  -15.0316  -51.5662 C.2       22 UNK         0.5000 
    122 N         -2.5847  -14.2741  -52.0648 N.am      22 UNK        -0.7600 
    123 O         -0.6325  -14.5011  -51.0621 O.2       22 UNK        -0.5000 
    124 C124       -1.2706  -17.2906  -50.3612 C.3       23 UNK        -0.0398 
    125 S125       -1.1659  -19.1093  -50.5279 S.3       23 UNK        -0.2404 
    126 C126        0.4747  -19.3335  -51.2776 C.3       23 UNK        -0.0205 
    127 H127        1.6204  -13.7695  -54.8280 H         1 UNK         0.0600 
    128 H128        0.3609  -13.8425  -53.5978 H         1 UNK         0.0600 
    129 H129        1.5963  -15.1070  -53.6717 H         1 UNK         0.0600 
    130 H130        0.8967  -13.3209  -51.3639 H         1 UNK         0.3000 
    131 H131        2.9762  -11.3779  -51.0223 H         1 UNK         0.0600 
    132 H132        4.4000  -13.3720  -50.6833 H         1 UNK         0.0800 
    133 H133        4.2246  -12.5109  -49.1974 H         1 UNK         0.0800 
    134 H134        3.9672  -15.7020  -51.0568 H         1 UNK         0.0800 
    135 H135        5.0024  -15.9487  -49.6647 H         1 UNK         0.0800 
    136 H136        1.9871  -17.0704  -51.4395 H         1 UNK         0.1150 
    137 H137        1.3740  -20.5485  -49.0451 H         1 UNK         0.1150 
    138 H138        4.4534  -17.7412  -47.9996 H         1 UNK         0.1150 
    139 H139        3.9024  -19.5013  -46.4595 H         1 UNK         0.0800 
    140 H140        2.4828  -20.4760  -46.6727 H         1 UNK         0.0800 
    141 H141        3.5356  -23.1971  -49.0972 H         1 UNK         0.0800 
    142 H142        2.2371  -22.3046  -48.3643 H         1 UNK         0.0800 
    143 H143        3.9319  -24.4119  -46.9799 H         1 UNK         0.0600 
    144 H144        1.9175  -22.6016  -45.8225 H         1 UNK         0.3000 
    145 H145        1.8290  -24.2877  -42.7196 H         1 UNK         0.0600 
    146 H146        2.6239  -22.0804  -41.8000 H         1 UNK         0.0600 
    147 H147        3.9422  -23.1100  -42.3405 H         1 UNK         0.0600 
    148 H148        3.4339  -21.7527  -43.3321 H         1 UNK         0.0600 
    149 H149        0.9245  -21.7161  -43.7353 H         1 UNK         0.3000 
    150 H150       -2.0961  -22.9134  -45.0981 H         1 UNK         0.0600 
    151 H151       -2.7642  -23.2567  -42.7134 H         1 UNK         0.0600 
    152 H152       -3.3702  -21.7320  -43.3425 H         1 UNK         0.0600 
    153 H153       -1.9687  -21.7521  -42.2724 H         1 UNK         0.0600 
    154 H154       -1.5041  -20.3071  -44.2239 H         1 UNK         0.3000 
    155 H155        0.6392  -19.2255  -46.8150 H         1 UNK         0.0600 
    156 H156       -1.7606  -19.2294  -47.6569 H         1 UNK         0.0600 
    157 H157       -1.1160  -17.6576  -47.2210 H         1 UNK         0.0600 
    158 H158       -2.2376  -18.4857  -46.1366 H         1 UNK         0.0600 
    159 H159       -0.2633  -17.6068  -44.8516 H         1 UNK         0.3000 
    160 H160        0.2133  -17.5555  -42.5290 H         1 UNK         0.0600 
    161 H161        2.8559  -18.9239  -41.7845 H         1 UNK         0.0600 
    162 H162        1.2593  -19.3571  -41.1976 H         1 UNK         0.0600 
    163 H163        1.9538  -17.8003  -40.7694 H         1 UNK         0.0600 
    164 H164        1.3924  -15.8703  -43.3181 H         1 UNK         0.3000 
    165 H165        4.7158  -15.1395  -43.8529 H         1 UNK         0.0600 
    166 H166        4.0431  -14.2220  -46.0761 H         1 UNK         0.0600 
    167 H167        4.2906  -15.9593  -46.1686 H         1 UNK         0.0600 
    168 H168        2.6564  -15.3096  -46.1176 H         1 UNK         0.0600 
    169 H169        2.2841  -13.6770  -44.3257 H         1 UNK         0.3000 
    170 H170        1.7728  -12.6110  -40.9555 H         1 UNK         0.0600 
    171 H171        3.4256  -11.0457  -41.9391 H         1 UNK         0.0600 
    172 H172        2.6584  -11.1764  -43.5159 H         1 UNK         0.0600 
    173 H173        1.7937  -10.4364  -42.1698 H         1 UNK         0.0600 
    174 H174        0.5311  -12.4392  -43.6321 H         1 UNK         0.3000 
    175 H175       -2.1184  -14.6400  -42.8223 H         1 UNK         0.0600 
    176 H176       -2.2427  -11.5774  -42.8953 H         1 UNK         0.0600 
    177 H177       -3.5842  -12.6775  -43.2145 H         1 UNK         0.0600 
    178 H178       -2.8767  -12.5970  -41.6091 H         1 UNK         0.0600 
    179 H179       -1.6210  -12.7571  -44.9638 H         1 UNK         0.3000 
    180 H180        0.1576  -15.0342  -47.0312 H         1 UNK         0.0600 
    181 H181       -2.7086  -13.9825  -47.2980 H         1 UNK         0.0600 
    182 H182       -2.2941  -15.6864  -47.2424 H         1 UNK         0.0600 
    183 H183       -1.7197  -14.6916  -48.5699 H         1 UNK         0.0600 
    184 H184       -0.6267  -12.6280  -47.9128 H         1 UNK         0.3000 
    185 H185        0.2174  -10.4740  -47.5333 H         1 UNK         0.0600 
    186 H186        2.8652  -10.4231  -45.9828 H         1 UNK         0.0600 
    187 H187        2.1115   -9.0594  -46.8059 H         1 UNK         0.0600 
    188 H188        1.3333   -9.7781  -45.4045 H         1 UNK         0.0600 
    189 H189        2.9598  -11.2903  -48.2267 H         1 UNK         0.3000 
    190 H190        0.3840  -23.7603  -47.2392 H         1 UNK         0.3000 
    191 H191       -0.1591  -26.5619  -47.7672 H         1 UNK         0.0600 
    192 H192       -0.8301  -24.4337  -49.8839 H         1 UNK         0.0600 
    193 H193        0.3005  -25.7685  -50.0976 H         1 UNK         0.0600 
    194 H194       -1.4104  -26.0981  -49.8877 H         1 UNK         0.0600 
    195 H195       -1.8964  -26.9750  -46.5746 H         1 UNK         0.3000 
    196 H196       -2.9925  -25.3551  -44.7487 H         1 UNK         0.0600 
    197 H197       -3.1639  -27.8075  -44.7048 H         1 UNK         0.0600 
    198 H198       -4.3039  -27.7933  -46.0513 H         1 UNK         0.0600 
    199 H199       -4.7627  -27.1124  -44.4952 H         1 UNK         0.0600 
    200 H200       -4.3382  -23.7111  -44.6273 H         1 UNK         0.3000 
    201 H201       -5.7226  -22.0517  -45.0985 H         1 UNK         0.0600 
    202 H202       -8.0296  -22.6709  -45.7747 H         1 UNK         0.0600 
    203 H203       -7.4000  -23.8244  -44.6116 H         1 UNK         0.0600 
    204 H204       -7.4762  -24.2493  -46.3189 H         1 UNK         0.0600 
    205 H205       -3.6390  -22.2376  -46.9435 H         1 UNK         0.3000 
    206 H206       -2.8418  -21.3966  -48.8298 H         1 UNK         0.0600 
    207 H207       -4.1854  -19.3475  -48.3295 H         1 UNK         0.0600 
    208 H208       -5.5465  -20.0020  -49.2378 H         1 UNK         0.0600 
    209 H209       -4.0415  -19.6253  -50.0551 H         1 UNK         0.0600 
    210 H210       -3.5049  -23.9070  -48.8665 H         1 UNK         0.3000 
    211 H211       -3.9386  -25.7672  -49.9915 H         1 UNK         0.0600 
    212 H212       -2.4349  -24.7160  -51.7428 H         1 UNK         0.0600 
    213 H213       -3.6119  -25.8270  -52.4255 H         1 UNK         0.0600 
    214 H214       -3.8617  -24.0957  -52.5620 H         1 UNK         0.0600 
    215 H215       -6.0684  -24.9145  -48.7584 H         1 UNK         0.3000 
    216 H216       -8.2820  -24.7155  -48.5611 H         1 UNK         0.0600 
    217 H217       -9.6874  -26.3424  -49.7837 H         1 UNK         0.0600 
    218 H218       -8.4155  -26.6099  -50.9683 H         1 UNK         0.0600 
    219 H219       -8.1832  -27.1037  -49.2918 H         1 UNK         0.0600 
    220 H220       -7.2315  -22.5660  -49.6717 H         1 UNK         0.3000 
    221 H221       -7.4774  -20.6839  -50.7137 H         1 UNK         0.0600 
    222 H222      -10.3882  -21.4553  -51.2647 H         1 UNK         0.0600 
    223 H223       -9.7908  -20.7526  -49.7612 H         1 UNK         0.0600 
    224 H224       -9.7187  -19.8311  -51.2528 H         1 UNK         0.0600 
    225 H225       -7.0945  -23.3550  -52.4876 H         1 UNK         0.3000 
    226 H226       -7.8114  -22.4031  -55.1283 H         1 UNK         0.0600 
    227 H227       -7.6569  -24.8481  -54.4961 H         1 UNK         0.0600 
    228 H228       -6.7220  -24.4216  -55.9224 H         1 UNK         0.0600 
    229 H229       -5.9034  -24.6741  -54.3912 H         1 UNK         0.0600 
    230 H230       -4.8983  -22.2145  -53.0826 H         1 UNK         0.3000 
    231 H231       -3.2585  -21.0767  -55.2683 H         1 UNK         0.0600 
    232 H232       -1.4940  -20.9558  -53.5591 H         1 UNK         0.0600 
    233 H233       -2.1760  -22.5735  -53.5889 H         1 UNK         0.0600 
    234 H234       -2.6070  -21.4505  -52.2986 H         1 UNK         0.0600 
    235 H235       -5.0765  -20.1190  -52.4233 H         1 UNK         0.3000 
    236 H236       -5.9546  -18.2862  -51.6173 H         1 UNK         0.0600 
    237 H237       -6.7636  -17.8008  -53.9100 H         1 UNK         0.0600 
    238 H238       -6.4152  -16.3168  -53.0359 H         1 UNK         0.0600 
    239 H239       -5.2950  -16.8905  -54.2621 H         1 UNK         0.0600 
    240 H240       -2.8453  -17.6052  -53.1342 H         1 UNK         0.3000 
    241 H241       -0.9333  -16.8211  -52.4217 H         1 UNK         0.0600 
    242 H242       -2.5128  -13.2718  -51.9951 H         1 UNK         0.3800 
    243 H243       -3.3978  -14.6954  -52.4834 H         1 UNK         0.3800 
    244 H244       -0.3169  -16.9082  -49.9970 H         1 UNK         0.0800 
    245 H245       -1.9907  -17.0714  -49.5724 H         1 UNK         0.0800 
    246 H246        0.5165  -18.8024  -52.2293 H         1 UNK         0.0800 
    247 H247        0.6089  -20.3899  -51.5143 H         1 UNK         0.0800 
@<TRIPOS>BOND
     1    1    2 1    
     2    1  127 1    
     3    1  128 1    
     4    1  129 1    
     5    2    3 2    
     6    2    4 am   BACKBONE|DICT|INTERRES
     7    4    5 1    
     8    4  130 1    
     9    5    6 1    
    10    5   65 1    
    11    5  131 1    
    12    6    7 1    
    13    6  132 1    
    14    6  133 1    
    15    7    8 1    
    16    8    9 1    
    17    8  134 1    
    18    8  135 1    
    19    9   10 ar   
    20    9   14 ar   
    21   10   11 ar   
    22   10  136 1    
    23   11   12 ar   
    24   11  126 1    
    25   12   13 ar   
    26   12  137 1    
    27   13   14 ar   
    28   13   15 1    
    29   14  138 1    
    30   15   16 1    
    31   15  139 1    
    32   15  140 1    
    33   16   17 1    
    34   17   18 1    
    35   17  141 1    
    36   17  142 1    
    37   18   19 1    
    38   18   67 1    
    39   18  143 1    
    40   19   20 am   BACKBONE|DICT|INTERRES
    41   19  144 1    
    42   20   21 2    
    43   20   22 1    
    44   22   23 1    
    45   22   24 1    
    46   22  145 1    
    47   23  146 1    
    48   23  147 1    
    49   23  148 1    
    50   24   25 am   BACKBONE|DICT|INTERRES
    51   24  149 1    
    52   25   26 2    
    53   25   27 1    
    54   27   28 1    
    55   27   29 1    
    56   27  150 1    
    57   28  151 1    
    58   28  152 1    
    59   28  153 1    
    60   29   30 am   BACKBONE|DICT|INTERRES
    61   29  154 1    
    62   30   31 2    
    63   30   32 1    
    64   32   33 1    
    65   32   34 1    
    66   32  155 1    
    67   33  156 1    
    68   33  157 1    
    69   33  158 1    
    70   34   35 am   BACKBONE|DICT|INTERRES
    71   34  159 1    
    72   35   36 2    
    73   35   37 1    
    74   37   38 1    
    75   37   39 1    
    76   37  160 1    
    77   38  161 1    
    78   38  162 1    
    79   38  163 1    
    80   39   40 am   BACKBONE|DICT|INTERRES
    81   39  164 1    
    82   40   41 2    
    83   40   42 1    
    84   42   43 1    
    85   42   44 1    
    86   42  165 1    
    87   43  166 1    
    88   43  167 1    
    89   43  168 1    
    90   44   45 am   BACKBONE|DICT|INTERRES
    91   44  169 1    
    92   45   46 2    
    93   45   47 1    
    94   47   48 1    
    95   47   49 1    
    96   47  170 1    
    97   48  171 1    
    98   48  172 1    
    99   48  173 1    
   100   49   50 am   BACKBONE|DICT|INTERRES
   101   49  174 1    
   102   50   51 2    
   103   50   52 1    
   104   52   53 1    
   105   52   54 1    
   106   52  175 1    
   107   53  176 1    
   108   53  177 1    
   109   53  178 1    
   110   54   55 am   BACKBONE|DICT|INTERRES
   111   54  179 1    
   112   55   56 2    
   113   55   57 1    
   114   57   58 1    
   115   57   59 1    
   116   57  180 1    
   117   58  181 1    
   118   58  182 1    
   119   58  183 1    
   120   59   60 am   BACKBONE|DICT|INTERRES
   121   59  184 1    
   122   60   61 2    
   123   60   62 1    
   124   62   63 1    
   125   62   64 1    
   126   62  185 1    
   127   63  186 1    
   128   63  187 1    
   129   63  188 1    
   130   64   65 am   BACKBONE|DICT|INTERRES
   131   64  189 1    
   132   65   66 2    
   133   67   68 2    
   134   67   69 am   BACKBONE|DICT|INTERRES
   135   69   70 1    
   136   69  190 1    
   137   70   71 1    
   138   70   72 1    
   139   70  191 1    
   140   71  192 1    
   141   71  193 1    
   142   71  194 1    
   143   72   73 2    
   144   72   74 am   BACKBONE|DICT|INTERRES
   145   74   75 1    
   146   74  195 1    
   147   75   76 1    
   148   75   77 1    
   149   75  196 1    
   150   76  197 1    
   151   76  198 1    
   152   76  199 1    
   153   77   78 2    
   154   77   79 am   BACKBONE|DICT|INTERRES
   155   79   80 1    
   156   79  200 1    
   157   80   81 1    
   158   80   82 1    
   159   80  201 1    
   160   81  202 1    
   161   81  203 1    
   162   81  204 1    
   163   82   83 2    
   164   82   84 am   BACKBONE|DICT|INTERRES
   165   84   85 1    
   166   84  205 1    
   167   85   86 1    
   168   85   87 1    
   169   85  206 1    
   170   86  207 1    
   171   86  208 1    
   172   86  209 1    
   173   87   88 2    
   174   87   89 am   BACKBONE|DICT|INTERRES
   175   89   90 1    
   176   89  210 1    
   177   90   91 1    
   178   90   92 1    
   179   90  211 1    
   180   91  212 1    
   181   91  213 1    
   182   91  214 1    
   183   92   93 2    
   184   92   94 am   BACKBONE|DICT|INTERRES
   185   94   95 1    
   186   94  215 1    
   187   95   96 1    
   188   95   97 1    
   189   95  216 1    
   190   96  217 1    
   191   96  218 1    
   192   96  219 1    
   193   97   98 2    
   194   97   99 am   BACKBONE|DICT|INTERRES
   195   99  100 1    
   196   99  220 1    
   197  100  101 1    
   198  100  102 1    
   199  100  221 1    
   200  101  222 1    
   201  101  223 1    
   202  101  224 1    
   203  102  103 2    
   204  102  104 am   BACKBONE|DICT|INTERRES
   205  104  105 1    
   206  104  225 1    
   207  105  106 1    
   208  105  107 1    
   209  105  226 1    
   210  106  227 1    
   211  106  228 1    
   212  106  229 1    
   213  107  108 2    
   214  107  109 am   BACKBONE|DICT|INTERRES
   215  109  110 1    
   216  109  230 1    
   217  110  111 1    
   218  110  112 1    
   219  110  231 1    
   220  111  232 1    
   221  111  233 1    
   222  111  234 1    
   223  112  113 2    
   224  112  114 am   BACKBONE|DICT|INTERRES
   225  114  115 1    
   226  114  235 1    
   227  115  116 1    
   228  115  117 1    
   229  115  236 1    
   230  116  237 1    
   231  116  238 1    
   232  116  239 1    
   233  117  118 2    
   234  117  119 am   BACKBONE|DICT|INTERRES
   235  119  120 1    
   236  119  240 1    
   237  120  121 1    
   238  120  124 1    
   239  120  241 1    
   240  121  122 am   BACKBONE|DICT|INTERRES
   241  121  123 2    
   242  122  242 1    
   243  122  243 1    
   244  124  125 1    
   245  124  244 1    
   246  124  245 1    
   247  125  126 1    
   248  126  246 1    
   249  126  247 1    
@<TRIPOS>SUBSTRUCTURE
     1 UNK         1 GROUP             0       ****    0 ROOT    
