@<TRIPOS>MOLECULE
3R540
247   249    1
SMALL
USER_CHARGES


@<TRIPOS>ATOM
      1 CA         -3.2092  -15.3518  -50.1295 C.3       0 UNK        -0.1800 
      2 C          -2.0016  -14.4442  -50.3075 C.2       0 UNK         0.5000 
      3 O          -2.0733  -13.4719  -51.0588 O.2       0 UNK        -0.5000 
      4 N          -0.9033  -14.7318  -49.5970 N.am      1 UNK        -0.5000 
      5 CA          0.3568  -13.9727  -49.5996 C.3       1 UNK         0.1400 
      6 C6          1.5493  -14.8382  -49.1119 C.3       23 UNK        -0.0398 
      7 S7          1.7822  -16.3915  -50.0352 S.3       23 UNK        -0.2404 
      8 C8          2.8231  -17.3005  -48.8373 C.3       23 UNK        -0.0205 
      9 C9          3.0058  -18.7858  -49.1423 C.ar      23 UNK        -0.0193 
     10 C10         2.0026  -19.5330  -49.7686 C.ar      23 UNK        -0.1150 
     11 C11         2.1412  -20.9097  -49.9516 C.ar      23 UNK        -0.0193 
     12 C12         3.3020  -21.5458  -49.5090 C.ar      23 UNK        -0.1150 
     13 C13         4.3181  -20.8183  -48.8849 C.ar      23 UNK        -0.0193 
     14 C14         4.1673  -19.4377  -48.7130 C.ar      23 UNK        -0.1150 
     15 C15         5.5548  -21.5447  -48.3673 C.3       23 UNK        -0.0205 
     16 S16         5.8248  -21.3408  -46.5721 S.3       23 UNK        -0.2404 
     17 C17         4.1870  -21.7147  -45.8578 C.3       23 UNK        -0.0398 
     18 CA          4.0873  -23.0937  -45.1654 C.3       11 UNK         0.1400 
     19 N           2.9756  -23.1010  -44.2131 N.am      11 UNK        -0.5000 
     20 C           2.7024  -24.0512  -43.3083 C.2       10 UNK         0.5000 
     21 O           3.4266  -25.0246  -43.0979 O.2       10 UNK        -0.5000 
     22 CA          1.4039  -23.8799  -42.4964 C.3       10 UNK         0.1400 
     23 CB          1.6798  -23.1082  -41.1962 C.3       10 UNK        -0.1800 
     24 N           0.3867  -23.1639  -43.2700 N.am      10 UNK        -0.5000 
     25 C          -0.6632  -23.7385  -43.8733 C.2       9 UNK         0.5000 
     26 O          -0.9859  -24.9148  -43.7094 O.2       9 UNK        -0.5000 
     27 CA         -1.5174  -22.8642  -44.8150 C.3       9 UNK         0.1400 
     28 CB         -2.9019  -22.5887  -44.2088 C.3       9 UNK        -0.1800 
     29 N          -0.9022  -21.5864  -45.1727 N.am      9 UNK        -0.5000 
     30 C           0.1177  -21.4371  -46.0281 C.2       8 UNK         0.5000 
     31 O           0.6840  -22.3722  -46.5925 O.2       8 UNK        -0.5000 
     32 CA          0.6154  -19.9955  -46.2480 C.3       8 UNK         0.1400 
     33 CB         -0.2595  -19.3022  -47.3019 C.3       8 UNK        -0.1800 
     34 N           0.6359  -19.1749  -45.0331 N.am      8 UNK        -0.5000 
     35 C           1.1859  -19.5079  -43.8563 C.2       7 UNK         0.5000 
     36 O           1.7582  -20.5771  -43.6490 O.2       7 UNK        -0.5000 
     37 CA          1.0338  -18.5028  -42.7027 C.3       7 UNK         0.1400 
     38 CB          2.2353  -17.5473  -42.6550 C.3       7 UNK        -0.1800 
     39 N          -0.2061  -17.7291  -42.7876 N.am      7 UNK        -0.5000 
     40 C          -1.4319  -18.2187  -42.5499 C.2       6 UNK         0.5000 
     41 O          -1.6513  -19.3864  -42.2271 O.2       6 UNK        -0.5000 
     42 CA         -2.6091  -17.2386  -42.7165 C.3       6 UNK         0.1400 
     43 CB         -2.8249  -16.4297  -41.4285 C.3       6 UNK        -0.1800 
     44 N          -2.4055  -16.3173  -43.8356 N.am      6 UNK        -0.5000 
     45 C          -2.5283  -16.6645  -45.1245 C.2       5 UNK         0.5000 
     46 O          -2.9230  -17.7683  -45.4971 O.2       5 UNK        -0.5000 
     47 CA         -2.1113  -15.6158  -46.1757 C.3       5 UNK         0.1400 
     48 CB         -3.3281  -14.7908  -46.6170 C.3       5 UNK        -0.1800 
     49 N          -1.0479  -14.7124  -45.7201 N.am      5 UNK        -0.5000 
     50 C           0.1858  -15.1075  -45.3681 C.2       4 UNK         0.5000 
     51 O           0.5559  -16.2777  -45.4576 O.2       4 UNK        -0.5000 
     52 CA          1.1559  -14.0542  -44.7942 C.3       4 UNK         0.1400 
     53 CB          2.5748  -14.1905  -45.3740 C.3       4 UNK        -0.1800 
     54 N           0.6846  -12.6824  -44.9868 N.am      4 UNK        -0.5000 
     55 C          -0.0569  -11.9932  -44.1078 C.2       3 UNK         0.5000 
     56 O          -0.4239  -12.4506  -43.0252 O.2       3 UNK        -0.5000 
     57 CA         -0.4815  -10.5636  -44.5053 C.3       3 UNK         0.1400 
     58 CB          0.4550   -9.5287  -43.8636 C.3       3 UNK        -0.1800 
     59 N          -0.5161  -10.3390  -45.9527 N.am      3 UNK        -0.5000 
     60 C          -1.3706  -10.9299  -46.7981 C.2       2 UNK         0.5000 
     61 O          -2.2505  -11.7099  -46.4323 O.2       2 UNK        -0.5000 
     62 CA         -1.1931  -10.6516  -48.3066 C.3       2 UNK         0.1400 
     63 CB         -0.2108   -9.5032  -48.6303 C.3       2 UNK        -0.1800 
     64 N          -0.8098  -11.8710  -49.0253 N.am      2 UNK        -0.5000 
     65 C           0.2431  -12.6627  -48.7765 C.2       1 UNK         0.5000 
     66 O           1.0836  -12.4045  -47.9125 O.2       1 UNK        -0.5000 
     67 C           3.9612  -24.2495  -46.1827 C.2       11 UNK         0.5000 
     68 O           4.9135  -25.0097  -46.3663 O.2       11 UNK        -0.5000 
     69 N           2.7721  -24.3841  -46.7834 N.am      12 UNK        -0.5000 
     70 CA          2.3476  -25.5483  -47.5585 C.3       12 UNK         0.1400 
     71 CB          1.5125  -25.0624  -48.7549 C.3       12 UNK        -0.1800 
     72 C           1.5280  -26.5022  -46.6693 C.2       12 UNK         0.5000 
     73 O           1.3008  -26.2159  -45.4929 O.2       12 UNK        -0.5000 
     74 N           1.0742  -27.6215  -47.2497 N.am      13 UNK        -0.5000 
     75 CA          0.1755  -28.5790  -46.5950 C.3       13 UNK         0.1400 
     76 CB          0.0816  -29.8495  -47.4540 C.3       13 UNK        -0.1800 
     77 C          -1.2311  -28.0031  -46.3246 C.2       13 UNK         0.5000 
     78 O          -1.8763  -28.4061  -45.3560 O.2       13 UNK        -0.5000 
     79 N          -1.6680  -27.0699  -47.1779 N.am      14 UNK        -0.5000 
     80 CA         -2.9077  -26.3096  -47.0844 C.3       14 UNK         0.1400 
     81 CB         -4.1167  -27.2003  -47.4293 C.3       14 UNK        -0.1800 
     82 C          -2.8102  -25.1242  -48.0555 C.2       14 UNK         0.5000 
     83 O          -2.0234  -25.1751  -49.0048 O.2       14 UNK        -0.5000 
     84 N          -3.6237  -24.0932  -47.8162 N.am      15 UNK        -0.5000 
     85 CA         -3.7699  -22.9066  -48.6532 C.3       15 UNK         0.1400 
     86 CB         -2.5766  -21.9538  -48.4515 C.3       15 UNK        -0.1800 
     87 C          -5.0866  -22.2141  -48.2737 C.2       15 UNK         0.5000 
     88 O          -5.6245  -22.4754  -47.1934 O.2       15 UNK        -0.5000 
     89 N          -5.5681  -21.3295  -49.1510 N.am      16 UNK        -0.5000 
     90 CA         -6.7327  -20.4822  -48.9270 C.3       16 UNK         0.1400 
     91 CB         -8.0082  -21.2026  -49.3958 C.3       16 UNK        -0.1800 
     92 C          -6.5303  -19.1795  -49.7050 C.2       16 UNK         0.5000 
     93 O          -6.0494  -19.2213  -50.8411 O.2       16 UNK        -0.5000 
     94 N          -6.9317  -18.0509  -49.1076 N.am      17 UNK        -0.5000 
     95 CA         -6.8392  -16.7200  -49.7147 C.3       17 UNK         0.1400 
     96 CB         -7.1464  -15.6505  -48.6568 C.3       17 UNK        -0.1800 
     97 C          -7.7528  -16.5542  -50.9429 C.2       17 UNK         0.5000 
     98 O          -7.3792  -15.8585  -51.8863 O.2       17 UNK        -0.5000 
     99 N          -8.8999  -17.2488  -50.9396 N.am      18 UNK        -0.5000 
    100 CA        -9.8469  -17.3185  -52.0568 C.3       18 UNK         0.1400 
    101 CB       -11.1286  -18.0182  -51.5798 C.3       18 UNK        -0.1800 
    102 C         -9.2758  -18.0309  -53.3005 C.2       18 UNK         0.5000 
    103 O         -9.7102  -17.7444  -54.4163 O.2       18 UNK        -0.5000 
    104 N         -8.2997  -18.9238  -53.0874 N.am      19 UNK        -0.5000 
    105 CA        -7.5468  -19.6188  -54.1323 C.3       19 UNK         0.1400 
    106 CB        -7.2364  -21.0424  -53.6381 C.3       19 UNK        -0.1800 
    107 C         -6.2473  -18.8757  -54.5099 C.2       19 UNK         0.5000 
    108 O         -5.5027  -19.3700  -55.3566 O.2       19 UNK        -0.5000 
    109 N         -5.9835  -17.7273  -53.8638 N.am      20 UNK        -0.5000 
    110 CA        -4.7635  -16.9148  -53.9363 C.3       20 UNK         0.1400 
    111 CB        -4.5563  -16.3382  -55.3522 C.3       20 UNK        -0.1800 
    112 C         -3.5156  -17.6442  -53.3933 C.2       20 UNK         0.5000 
    113 O         -2.3953  -17.3246  -53.7964 O.2       20 UNK        -0.5000 
    114 N         -3.7319  -18.5947  -52.4700 N.am      21 UNK        -0.5000 
    115 CA        -2.7412  -19.4542  -51.8235 C.3       21 UNK         0.1400 
    116 CB        -1.9612  -18.6531  -50.7592 C.3       21 UNK        -0.1800 
    117 C         -1.8562  -20.1956  -52.8479 C.2       21 UNK         0.5000 
    118 O         -2.3502  -21.1027  -53.5188 O.2       21 UNK        -0.5000 
    119 N         -0.5867  -19.7908  -52.9514 N.am      22 UNK        -0.5000 
    120 CA         0.3989  -20.2932  -53.9208 C.3       22 UNK         0.1400 
    121 C          0.7115  -19.2616  -55.0470 C.2       22 UNK         0.5000 
    122 N         -0.0026  -18.1474  -55.1622 N.am      22 UNK        -0.7600 
    123 O          1.6116  -19.4810  -55.8532 O.2       22 UNK        -0.5000 
    124 C124        1.6888  -20.7781  -53.2057 C.3       23 UNK        -0.0398 
    125 S125        1.4392  -22.3187  -52.2539 S.3       23 UNK        -0.2404 
    126 C126        1.0180  -21.7117  -50.5898 C.3       23 UNK        -0.0205 
    127 H127       -3.4180  -15.8843  -51.0554 H         1 UNK         0.0600 
    128 H128       -4.0861  -14.7575  -49.8724 H         1 UNK         0.0600 
    129 H129       -3.0546  -16.0832  -49.3373 H         1 UNK         0.0600 
    130 H130       -0.9001  -15.5510  -49.0093 H         1 UNK         0.3000 
    131 H131        0.5700  -13.6748  -50.6283 H         1 UNK         0.0600 
    132 H132        2.4827  -14.2754  -49.1723 H         1 UNK         0.0800 
    133 H133        1.4083  -15.0933  -48.0620 H         1 UNK         0.0800 
    134 H134        3.7954  -16.8078  -48.7872 H         1 UNK         0.0800 
    135 H135        2.3823  -17.2213  -47.8423 H         1 UNK         0.0800 
    136 H136        1.0943  -19.0486  -50.0912 H         1 UNK         0.1150 
    137 H137        3.4088  -22.6119  -49.6421 H         1 UNK         0.1150 
    138 H138        4.9437  -18.8779  -48.2103 H         1 UNK         0.1150 
    139 H139        5.4943  -22.6121  -48.5858 H         1 UNK         0.0800 
    140 H140        6.4311  -21.1735  -48.9001 H         1 UNK         0.0800 
    141 H141        4.0092  -20.9274  -45.1241 H         1 UNK         0.0800 
    142 H142        3.3944  -21.5978  -46.5947 H         1 UNK         0.0800 
    143 H143        4.9993  -23.2555  -44.5870 H         1 UNK         0.0600 
    144 H144        2.3721  -22.2866  -44.2354 H         1 UNK         0.3000 
    145 H145        1.0484  -24.8773  -42.2298 H         1 UNK         0.0600 
    146 H146        0.7742  -23.0112  -40.5972 H         1 UNK         0.0600 
    147 H147        2.4202  -23.6262  -40.5854 H         1 UNK         0.0600 
    148 H148        2.0602  -22.1052  -41.3926 H         1 UNK         0.0600 
    149 H149        0.5721  -22.1836  -43.4471 H         1 UNK         0.3000 
    150 H150       -1.6580  -23.4376  -45.7329 H         1 UNK         0.0600 
    151 H151       -3.4123  -23.5187  -43.9552 H         1 UNK         0.0600 
    152 H152       -3.5400  -22.0520  -44.9115 H         1 UNK         0.0600 
    153 H153       -2.8287  -21.9934  -43.2976 H         1 UNK         0.0600 
    154 H154       -1.2802  -20.7617  -44.7273 H         1 UNK         0.3000 
    155 H155        1.6362  -20.0454  -46.6286 H         1 UNK         0.0600 
    156 H156        0.1298  -18.3179  -47.5618 H         1 UNK         0.0600 
    157 H157       -1.2851  -19.1784  -46.9567 H         1 UNK         0.0600 
    158 H158       -0.3003  -19.8946  -48.2146 H         1 UNK         0.0600 
    159 H159        0.2692  -18.2332  -45.1246 H         1 UNK         0.3000 
    160 H160        1.0167  -19.0718  -41.7707 H         1 UNK         0.0600 
    161 H161        2.3253  -16.9618  -43.5696 H         1 UNK         0.0600 
    162 H162        3.1665  -18.1018  -42.5311 H         1 UNK         0.0600 
    163 H163        2.1568  -16.8541  -41.8174 H         1 UNK         0.0600 
    164 H164       -0.1193  -16.7729  -43.0945 H         1 UNK         0.3000 
    165 H165       -3.5107  -17.8261  -42.9038 H         1 UNK         0.0600 
    166 H166       -1.9624  -15.8046  -41.1934 H         1 UNK         0.0600 
    167 H167       -3.6966  -15.7805  -41.5127 H         1 UNK         0.0600 
    168 H168       -2.9938  -17.0902  -40.5769 H         1 UNK         0.0600 
    169 H169       -2.1004  -15.3811  -43.6127 H         1 UNK         0.3000 
    170 H170       -1.7340  -16.1622  -47.0419 H         1 UNK         0.0600 
    171 H171       -4.1241  -15.4359  -46.9902 H         1 UNK         0.0600 
    172 H172       -3.7372  -14.2055  -45.7926 H         1 UNK         0.0600 
    173 H173       -3.0681  -14.0991  -47.4175 H         1 UNK         0.0600 
    174 H174       -1.2881  -13.7325  -45.6423 H         1 UNK         0.3000 
    175 H175        1.2293  -14.2649  -43.7255 H         1 UNK         0.0600 
    176 H176        2.6110  -13.9469  -46.4341 H         1 UNK         0.0600 
    177 H177        3.2682  -13.5240  -44.8611 H         1 UNK         0.0600 
    178 H178        2.9601  -15.2040  -45.2570 H         1 UNK         0.0600 
    179 H179        0.8987  -12.2650  -45.8876 H         1 UNK         0.3000 
    180 H180       -1.4885  -10.4018  -44.1150 H         1 UNK         0.0600 
    181 H181        1.4769   -9.6285  -44.2316 H         1 UNK         0.0600 
    182 H182        0.4835   -9.6462  -42.7795 H         1 UNK         0.0600 
    183 H183        0.1205   -8.5118  -44.0698 H         1 UNK         0.0600 
    184 H184        0.1970   -9.7348  -46.3346 H         1 UNK         0.3000 
    185 H185       -2.1760  -10.3635  -48.6819 H         1 UNK         0.0600 
    186 H186       -0.1856   -9.3080  -49.7024 H         1 UNK         0.0600 
    187 H187       -0.5163   -8.5751  -48.1453 H         1 UNK         0.0600 
    188 H188        0.8092   -9.7259  -48.3155 H         1 UNK         0.0600 
    189 H189       -1.4547  -12.1863  -49.7443 H         1 UNK         0.3000 
    190 H190        2.0322  -23.7246  -46.5555 H         1 UNK         0.3000 
    191 H191        3.2140  -26.0958  -47.9347 H         1 UNK         0.0600 
    192 H192        1.1402  -25.8920  -49.3562 H         1 UNK         0.0600 
    193 H193        2.1115  -24.4426  -49.4188 H         1 UNK         0.0600 
    194 H194        0.6495  -24.4791  -48.4313 H         1 UNK         0.0600 
    195 H195        1.3085  -27.8088  -48.2138 H         1 UNK         0.3000 
    196 H196        0.6115  -28.8505  -45.6312 H         1 UNK         0.0600 
    197 H197       -0.5616  -30.5930  -46.9813 H         1 UNK         0.0600 
    198 H198        1.0612  -30.3082  -47.5894 H         1 UNK         0.0600 
    199 H199       -0.3316  -29.6388  -48.4413 H         1 UNK         0.0600 
    200 H200       -1.0752  -26.7807  -47.9461 H         1 UNK         0.3000 
    201 H201       -3.0076  -25.9222  -46.0681 H         1 UNK         0.0600 
    202 H202       -4.2218  -28.0246  -46.7242 H         1 UNK         0.0600 
    203 H203       -4.0271  -27.6256  -48.4296 H         1 UNK         0.0600 
    204 H204       -5.0462  -26.6308  -47.3962 H         1 UNK         0.0600 
    205 H205       -4.2826  -24.1234  -47.0468 H         1 UNK         0.3000 
    206 H206       -3.8257  -23.2142  -49.6996 H         1 UNK         0.0600 
    207 H207       -1.6245  -22.4453  -48.6528 H         1 UNK         0.0600 
    208 H208       -2.6428  -21.0940  -49.1166 H         1 UNK         0.0600 
    209 H209       -2.5488  -21.5702  -47.4323 H         1 UNK         0.0600 
    210 H210       -5.0752  -21.1386  -50.0127 H         1 UNK         0.3000 
    211 H211       -6.8181  -20.2451  -47.8641 H         1 UNK         0.0600 
    212 H212       -7.9580  -21.4623  -50.4541 H         1 UNK         0.0600 
    213 H213       -8.8891  -20.5760  -49.2513 H         1 UNK         0.0600 
    214 H214       -8.1694  -22.1229  -48.8342 H         1 UNK         0.0600 
    215 H215       -7.3215  -18.0957  -48.1769 H         1 UNK         0.3000 
    216 H216       -5.8113  -16.5806  -50.0535 H         1 UNK         0.0600 
    217 H217       -7.0445  -14.6480  -49.0747 H         1 UNK         0.0600 
    218 H218       -6.4596  -15.7205  -47.8135 H         1 UNK         0.0600 
    219 H219       -8.1624  -15.7445  -48.2713 H         1 UNK         0.0600 
    220 H220       -9.1271  -17.7923  -50.1200 H         1 UNK         0.3000 
    221 H221      -10.1003  -16.2974  -52.3496 H         1 UNK         0.0600 
    222 H222      -10.9318  -19.0404  -51.2539 H         1 UNK         0.0600 
    223 H223      -11.5854  -17.4815  -50.7481 H         1 UNK         0.0600 
    224 H224      -11.8689  -18.0655  -52.3797 H         1 UNK         0.0600 
    225 H225       -7.9804  -19.0764  -52.1407 H         1 UNK         0.3000 
    226 H226       -8.1532  -19.6981  -55.0368 H         1 UNK         0.0600 
    227 H227       -8.1489  -21.5749  -53.3698 H         1 UNK         0.0600 
    228 H228       -6.7377  -21.6264  -54.4126 H         1 UNK         0.0600 
    229 H229       -6.5835  -21.0345  -52.7648 H         1 UNK         0.0600 
    230 H230       -6.6735  -17.3895  -53.2043 H         1 UNK         0.3000 
    231 H231       -4.9273  -16.0713  -53.2645 H         1 UNK         0.0600 
    232 H232       -3.7516  -15.6022  -55.3592 H         1 UNK         0.0600 
    233 H233       -5.4557  -15.8368  -55.7094 H         1 UNK         0.0600 
    234 H234       -4.2932  -17.1127  -56.0729 H         1 UNK         0.0600 
    235 H235       -4.6909  -18.7731  -52.1880 H         1 UNK         0.3000 
    236 H236       -3.3049  -20.2281  -51.3022 H         1 UNK         0.0600 
    237 H237       -2.6357  -18.3001  -49.9802 H         1 UNK         0.0600 
    238 H238       -1.2176  -19.2742  -50.2661 H         1 UNK         0.0600 
    239 H239       -1.4504  -17.7855  -51.1786 H         1 UNK         0.0600 
    240 H240       -0.2907  -18.9972  -52.4029 H         1 UNK         0.3000 
    241 H241       -0.0185  -21.1509  -54.4509 H         1 UNK         0.0600 
    242 H242       -0.7959  -17.9519  -54.5555 H         1 UNK         0.3800 
    243 H243        0.2175  -17.5013  -55.9028 H         1 UNK         0.3800 
    244 H244        2.4703  -21.0024  -53.9333 H         1 UNK         0.0800 
    245 H245        2.0983  -19.9936  -52.5692 H         1 UNK         0.0800 
    246 H246        0.7810  -22.5615  -49.9512 H         1 UNK         0.0800 
    247 H247        0.1018  -21.1274  -50.6418 H         1 UNK         0.0800 
@<TRIPOS>BOND
     1    1    2 1    
     2    1  127 1    
     3    1  128 1    
     4    1  129 1    
     5    2    3 2    
     6    2    4 am   BACKBONE|DICT|INTERRES
     7    4    5 1    
     8    4  130 1    
     9    5    6 1    
    10    5   65 1    
    11    5  131 1    
    12    6    7 1    
    13    6  132 1    
    14    6  133 1    
    15    7    8 1    
    16    8    9 1    
    17    8  134 1    
    18    8  135 1    
    19    9   10 ar   
    20    9   14 ar   
    21   10   11 ar   
    22   10  136 1    
    23   11   12 ar   
    24   11  126 1    
    25   12   13 ar   
    26   12  137 1    
    27   13   14 ar   
    28   13   15 1    
    29   14  138 1    
    30   15   16 1    
    31   15  139 1    
    32   15  140 1    
    33   16   17 1    
    34   17   18 1    
    35   17  141 1    
    36   17  142 1    
    37   18   19 1    
    38   18   67 1    
    39   18  143 1    
    40   19   20 am   BACKBONE|DICT|INTERRES
    41   19  144 1    
    42   20   21 2    
    43   20   22 1    
    44   22   23 1    
    45   22   24 1    
    46   22  145 1    
    47   23  146 1    
    48   23  147 1    
    49   23  148 1    
    50   24   25 am   BACKBONE|DICT|INTERRES
    51   24  149 1    
    52   25   26 2    
    53   25   27 1    
    54   27   28 1    
    55   27   29 1    
    56   27  150 1    
    57   28  151 1    
    58   28  152 1    
    59   28  153 1    
    60   29   30 am   BACKBONE|DICT|INTERRES
    61   29  154 1    
    62   30   31 2    
    63   30   32 1    
    64   32   33 1    
    65   32   34 1    
    66   32  155 1    
    67   33  156 1    
    68   33  157 1    
    69   33  158 1    
    70   34   35 am   BACKBONE|DICT|INTERRES
    71   34  159 1    
    72   35   36 2    
    73   35   37 1    
    74   37   38 1    
    75   37   39 1    
    76   37  160 1    
    77   38  161 1    
    78   38  162 1    
    79   38  163 1    
    80   39   40 am   BACKBONE|DICT|INTERRES
    81   39  164 1    
    82   40   41 2    
    83   40   42 1    
    84   42   43 1    
    85   42   44 1    
    86   42  165 1    
    87   43  166 1    
    88   43  167 1    
    89   43  168 1    
    90   44   45 am   BACKBONE|DICT|INTERRES
    91   44  169 1    
    92   45   46 2    
    93   45   47 1    
    94   47   48 1    
    95   47   49 1    
    96   47  170 1    
    97   48  171 1    
    98   48  172 1    
    99   48  173 1    
   100   49   50 am   BACKBONE|DICT|INTERRES
   101   49  174 1    
   102   50   51 2    
   103   50   52 1    
   104   52   53 1    
   105   52   54 1    
   106   52  175 1    
   107   53  176 1    
   108   53  177 1    
   109   53  178 1    
   110   54   55 am   BACKBONE|DICT|INTERRES
   111   54  179 1    
   112   55   56 2    
   113   55   57 1    
   114   57   58 1    
   115   57   59 1    
   116   57  180 1    
   117   58  181 1    
   118   58  182 1    
   119   58  183 1    
   120   59   60 am   BACKBONE|DICT|INTERRES
   121   59  184 1    
   122   60   61 2    
   123   60   62 1    
   124   62   63 1    
   125   62   64 1    
   126   62  185 1    
   127   63  186 1    
   128   63  187 1    
   129   63  188 1    
   130   64   65 am   BACKBONE|DICT|INTERRES
   131   64  189 1    
   132   65   66 2    
   133   67   68 2    
   134   67   69 am   BACKBONE|DICT|INTERRES
   135   69   70 1    
   136   69  190 1    
   137   70   71 1    
   138   70   72 1    
   139   70  191 1    
   140   71  192 1    
   141   71  193 1    
   142   71  194 1    
   143   72   73 2    
   144   72   74 am   BACKBONE|DICT|INTERRES
   145   74   75 1    
   146   74  195 1    
   147   75   76 1    
   148   75   77 1    
   149   75  196 1    
   150   76  197 1    
   151   76  198 1    
   152   76  199 1    
   153   77   78 2    
   154   77   79 am   BACKBONE|DICT|INTERRES
   155   79   80 1    
   156   79  200 1    
   157   80   81 1    
   158   80   82 1    
   159   80  201 1    
   160   81  202 1    
   161   81  203 1    
   162   81  204 1    
   163   82   83 2    
   164   82   84 am   BACKBONE|DICT|INTERRES
   165   84   85 1    
   166   84  205 1    
   167   85   86 1    
   168   85   87 1    
   169   85  206 1    
   170   86  207 1    
   171   86  208 1    
   172   86  209 1    
   173   87   88 2    
   174   87   89 am   BACKBONE|DICT|INTERRES
   175   89   90 1    
   176   89  210 1    
   177   90   91 1    
   178   90   92 1    
   179   90  211 1    
   180   91  212 1    
   181   91  213 1    
   182   91  214 1    
   183   92   93 2    
   184   92   94 am   BACKBONE|DICT|INTERRES
   185   94   95 1    
   186   94  215 1    
   187   95   96 1    
   188   95   97 1    
   189   95  216 1    
   190   96  217 1    
   191   96  218 1    
   192   96  219 1    
   193   97   98 2    
   194   97   99 am   BACKBONE|DICT|INTERRES
   195   99  100 1    
   196   99  220 1    
   197  100  101 1    
   198  100  102 1    
   199  100  221 1    
   200  101  222 1    
   201  101  223 1    
   202  101  224 1    
   203  102  103 2    
   204  102  104 am   BACKBONE|DICT|INTERRES
   205  104  105 1    
   206  104  225 1    
   207  105  106 1    
   208  105  107 1    
   209  105  226 1    
   210  106  227 1    
   211  106  228 1    
   212  106  229 1    
   213  107  108 2    
   214  107  109 am   BACKBONE|DICT|INTERRES
   215  109  110 1    
   216  109  230 1    
   217  110  111 1    
   218  110  112 1    
   219  110  231 1    
   220  111  232 1    
   221  111  233 1    
   222  111  234 1    
   223  112  113 2    
   224  112  114 am   BACKBONE|DICT|INTERRES
   225  114  115 1    
   226  114  235 1    
   227  115  116 1    
   228  115  117 1    
   229  115  236 1    
   230  116  237 1    
   231  116  238 1    
   232  116  239 1    
   233  117  118 2    
   234  117  119 am   BACKBONE|DICT|INTERRES
   235  119  120 1    
   236  119  240 1    
   237  120  121 1    
   238  120  124 1    
   239  120  241 1    
   240  121  122 am   BACKBONE|DICT|INTERRES
   241  121  123 2    
   242  122  242 1    
   243  122  243 1    
   244  124  125 1    
   245  124  244 1    
   246  124  245 1    
   247  125  126 1    
   248  126  246 1    
   249  126  247 1    
@<TRIPOS>SUBSTRUCTURE
     1 UNK         1 GROUP             0       ****    0 ROOT    
