@<TRIPOS>MOLECULE
3R540
247   249    1
SMALL
USER_CHARGES


@<TRIPOS>ATOM
      1 CA         -3.1208  -11.7639  -46.7783 C.3       0 UNK        -0.1800 
      2 C          -2.8239  -13.2446  -47.0111 C.2       0 UNK         0.5000 
      3 O          -3.6189  -14.0861  -46.5986 O.2       0 UNK        -0.5000 
      4 N          -1.7194  -13.6200  -47.6720 N.am      1 UNK        -0.5000 
      5 CA         -0.6338  -12.7687  -48.1692 C.3       1 UNK         0.1400 
      6 C6          0.3130  -13.5474  -49.1149 C.3       23 UNK        -0.0398 
      7 S7         -0.5033  -13.9908  -50.6860 S.3       23 UNK        -0.2404 
      8 C8         -0.7771  -15.7842  -50.5117 C.3       23 UNK        -0.0205 
      9 C9          0.5217  -16.5780  -50.5340 C.ar      23 UNK        -0.0193 
     10 C10         1.2800  -16.6466  -51.7054 C.ar      23 UNK        -0.1150 
     11 C11         2.4822  -17.3671  -51.7452 C.ar      23 UNK        -0.0193 
     12 C12         2.9058  -18.0296  -50.5894 C.ar      23 UNK        -0.1150 
     13 C13         2.1482  -17.9870  -49.4164 C.ar      23 UNK        -0.0193 
     14 C14         0.9588  -17.2539  -49.3928 C.ar      23 UNK        -0.1150 
     15 C15         2.6214  -18.7316  -48.1770 C.3       23 UNK        -0.0205 
     16 S16         2.3346  -20.5218  -48.3044 S.3       23 UNK        -0.2404 
     17 C17         0.5168  -20.5820  -48.4164 C.3       23 UNK        -0.0398 
     18 CA         -0.0488  -21.9035  -47.8551 C.3       11 UNK         0.1400 
     19 N           0.1037  -21.9982  -46.4001 N.am      11 UNK        -0.5000 
     20 C          -0.1355  -23.1033  -45.6815 C.2       10 UNK         0.5000 
     21 O          -0.4735  -24.1791  -46.1739 O.2       10 UNK        -0.5000 
     22 CA         -0.0361  -22.9685  -44.1528 C.3       10 UNK         0.1400 
     23 CB          1.4254  -23.0280  -43.6829 C.3       10 UNK        -0.1800 
     24 N          -0.6651  -21.7376  -43.6729 N.am      10 UNK        -0.5000 
     25 C          -1.9858  -21.5072  -43.6974 C.2       9 UNK         0.5000 
     26 O          -2.8139  -22.3243  -44.0979 O.2       9 UNK        -0.5000 
     27 CA         -2.4568  -20.1146  -43.2399 C.3       9 UNK         0.1400 
     28 CB         -2.5644  -20.0525  -41.7093 C.3       9 UNK        -0.1800 
     29 N          -1.5765  -19.0444  -43.7068 N.am      9 UNK        -0.5000 
     30 C          -1.3979  -18.7149  -44.9941 C.2       8 UNK         0.5000 
     31 O          -1.9926  -19.2488  -45.9282 O.2       8 UNK        -0.5000 
     32 CA         -0.3235  -17.6569  -45.2954 C.3       8 UNK         0.1400 
     33 CB         -0.9343  -16.2497  -45.2838 C.3       8 UNK        -0.1800 
     34 N           0.8176  -17.7312  -44.3780 N.am      8 UNK        -0.5000 
     35 C           1.6319  -18.7969  -44.2897 C.2       7 UNK         0.5000 
     36 O           1.4951  -19.8006  -44.9887 O.2       7 UNK        -0.5000 
     37 CA          2.7635  -18.7723  -43.2454 C.3       7 UNK         0.1400 
     38 CB          4.1339  -18.6348  -43.9257 C.3       7 UNK        -0.1800 
     39 N           2.6022  -17.7205  -42.2408 N.am      7 UNK        -0.5000 
     40 C           1.7294  -17.7841  -41.2238 C.2       6 UNK         0.5000 
     41 O           0.9912  -18.7495  -41.0235 O.2       6 UNK        -0.5000 
     42 CA          1.6334  -16.5543  -40.2974 C.3       6 UNK         0.1400 
     43 CB          2.5584  -16.7228  -39.0830 C.3       6 UNK        -0.1800 
     44 N           1.9446  -15.2873  -40.9646 N.am      6 UNK        -0.5000 
     45 C           1.2600  -14.7783  -41.9975 C.2       5 UNK         0.5000 
     46 O           0.2696  -15.3227  -42.4833 O.2       5 UNK        -0.5000 
     47 CA          1.7862  -13.4783  -42.6362 C.3       5 UNK         0.1400 
     48 CB          2.7847  -12.6981  -41.7527 C.3       5 UNK        -0.1800 
     49 N           2.3627  -13.7352  -43.9578 N.am      5 UNK        -0.5000 
     50 C           3.3723  -14.5672  -44.2571 C.2       4 UNK         0.5000 
     51 O           3.9578  -15.2668  -43.4293 O.2       4 UNK        -0.5000 
     52 CA          3.8098  -14.6161  -45.7306 C.3       4 UNK         0.1400 
     53 CB          2.9353  -15.5921  -46.5300 C.3       4 UNK        -0.1800 
     54 N           3.7464  -13.2937  -46.3500 N.am      4 UNK        -0.5000 
     55 C           4.7328  -12.3873  -46.3044 C.2       3 UNK         0.5000 
     56 O           5.8340  -12.5980  -45.7949 O.2       3 UNK        -0.5000 
     57 CA          4.4427  -11.0095  -46.9327 C.3       3 UNK         0.1400 
     58 CB          4.8931  -10.9838  -48.4014 C.3       3 UNK        -0.1800 
     59 N           3.0287  -10.6377  -46.8612 N.am      3 UNK        -0.5000 
     60 C           2.3865  -10.3015  -45.7337 C.2       2 UNK         0.5000 
     61 O           2.9377  -10.1912  -44.6389 O.2       2 UNK        -0.5000 
     62 CA          0.8654  -10.0785  -45.8413 C.3       2 UNK         0.1400 
     63 CB          0.5504   -8.5851  -46.0144 C.3       2 UNK        -0.1800 
     64 N           0.2243  -10.8320  -46.9256 N.am      2 UNK        -0.5000 
     65 C           0.1577  -12.1686  -46.9915 C.2       1 UNK         0.5000 
     66 O           0.7016  -12.9186  -46.1790 O.2       1 UNK        -0.5000 
     67 C          -1.5107  -22.1066  -48.3036 C.2       11 UNK         0.5000 
     68 O          -1.7413  -22.7691  -49.3151 O.2       11 UNK        -0.5000 
     69 N          -2.4706  -21.5643  -47.5408 N.am      12 UNK        -0.5000 
     70 CA         -3.9014  -21.7829  -47.7455 C.3       12 UNK         0.1400 
     71 CB         -4.7173  -20.8258  -46.8654 C.3       12 UNK        -0.1800 
     72 C          -4.3038  -23.2442  -47.4924 C.2       12 UNK         0.5000 
     73 O          -5.0100  -23.8208  -48.3170 O.2       12 UNK        -0.5000 
     74 N          -3.8162  -23.8363  -46.3921 N.am      13 UNK        -0.5000 
     75 CA         -4.0401  -25.2407  -46.0368 C.3       13 UNK         0.1400 
     76 CB         -3.4651  -25.5255  -44.6419 C.3       13 UNK        -0.1800 
     77 C          -3.4704  -26.2244  -47.0758 C.2       13 UNK         0.5000 
     78 O          -4.1379  -27.2035  -47.4103 O.2       13 UNK        -0.5000 
     79 N          -2.2830  -25.9172  -47.6175 N.am      14 UNK        -0.5000 
     80 CA         -1.6452  -26.6526  -48.7145 C.3       14 UNK         0.1400 
     81 CB         -0.2264  -26.1060  -48.9333 C.3       14 UNK        -0.1800 
     82 C          -2.4501  -26.6101  -50.0303 C.2       14 UNK         0.5000 
     83 O          -2.3840  -27.5572  -50.8139 O.2       14 UNK        -0.5000 
     84 N          -3.2201  -25.5330  -50.2274 N.am      15 UNK        -0.5000 
     85 CA         -4.1518  -25.3351  -51.3372 C.3       15 UNK         0.1400 
     86 CB         -4.0929  -23.8573  -51.7539 C.3       15 UNK        -0.1800 
     87 C          -5.5931  -25.7638  -50.9824 C.2       15 UNK         0.5000 
     88 O          -6.5226  -25.4068  -51.7081 O.2       15 UNK        -0.5000 
     89 N          -5.7704  -26.4898  -49.8657 N.am      16 UNK        -0.5000 
     90 CA         -7.0313  -27.0229  -49.3316 C.3       16 UNK         0.1400 
     91 CB         -7.5729  -28.1344  -50.2543 C.3       16 UNK        -0.1800 
     92 C          -8.0909  -25.9412  -49.0224 C.2       16 UNK         0.5000 
     93 O          -9.2892  -26.2212  -49.0796 O.2       16 UNK        -0.5000 
     94 N          -7.6257  -24.7183  -48.7271 N.am      17 UNK        -0.5000 
     95 CA         -8.3836  -23.4827  -48.5044 C.3       17 UNK         0.1400 
     96 CB         -9.2861  -23.6040  -47.2596 C.3       17 UNK        -0.1800 
     97 C          -9.1508  -22.9711  -49.7448 C.2       17 UNK         0.5000 
     98 O          -9.9526  -22.0446  -49.6148 O.2       17 UNK        -0.5000 
     99 N          -8.8903  -23.5503  -50.9261 N.am      18 UNK        -0.5000 
    100 CA        -9.5044  -23.1540  -52.1945 C.3       18 UNK         0.1400 
    101 CB        -9.5200  -24.3646  -53.1406 C.3       18 UNK        -0.1800 
    102 C         -8.7760  -21.9668  -52.8507 C.2       18 UNK         0.5000 
    103 O         -9.3763  -21.2624  -53.6636 O.2       18 UNK        -0.5000 
    104 N         -7.5037  -21.7681  -52.4900 N.am      19 UNK        -0.5000 
    105 CA        -6.6215  -20.7124  -52.9727 C.3       19 UNK         0.1400 
    106 CB        -6.1607  -21.0184  -54.4172 C.3       19 UNK        -0.1800 
    107 C         -5.4660  -20.5572  -51.9663 C.2       19 UNK         0.5000 
    108 O         -5.6876  -20.6971  -50.7616 O.2       19 UNK        -0.5000 
    109 N         -4.2570  -20.3033  -52.4718 N.am      20 UNK        -0.5000 
    110 CA        -2.9962  -20.2712  -51.7404 C.3       20 UNK         0.1400 
    111 CB        -2.7276  -18.8463  -51.2236 C.3       20 UNK        -0.1800 
    112 C         -1.8865  -20.7713  -52.6817 C.2       20 UNK         0.5000 
    113 O         -2.1669  -21.1085  -53.8359 O.2       20 UNK        -0.5000 
    114 N         -0.6470  -20.8189  -52.1774 N.am      21 UNK        -0.5000 
    115 CA         0.5300  -21.3184  -52.8960 C.3       21 UNK         0.1400 
    116 CB         1.7028  -21.4479  -51.9137 C.3       21 UNK        -0.1800 
    117 C          0.9348  -20.4752  -54.1232 C.2       21 UNK         0.5000 
    118 O          1.5498  -21.0152  -55.0438 O.2       21 UNK        -0.5000 
    119 N          0.5673  -19.1896  -54.1348 N.am      22 UNK        -0.5000 
    120 CA         0.6900  -18.2839  -55.2814 C.3       22 UNK         0.1400 
    121 C         -0.3634  -17.1426  -55.2168 C.2       22 UNK         0.5000 
    122 N         -0.4473  -16.3034  -56.2403 N.am      22 UNK        -0.7600 
    123 O         -1.1182  -17.0147  -54.2544 O.2       22 UNK        -0.5000 
    124 C124        2.1530  -17.8178  -55.5411 C.3       23 UNK        -0.0398 
    125 S125        2.8022  -16.5068  -54.4444 S.3       23 UNK        -0.2404 
    126 C126        3.3714  -17.4536  -52.9887 C.3       23 UNK        -0.0205 
    127 H127       -4.1720  -11.6259  -46.5246 H         1 UNK         0.0600 
    128 H128       -2.9214  -11.1646  -47.6657 H         1 UNK         0.0600 
    129 H129       -2.5269  -11.3798  -45.9491 H         1 UNK         0.0600 
    130 H130       -1.5663  -14.6076  -47.7983 H         1 UNK         0.3000 
    131 H131       -1.0735  -11.9519  -48.7442 H         1 UNK         0.0600 
    132 H132        1.1824  -12.9402  -49.3739 H         1 UNK         0.0800 
    133 H133        0.7060  -14.4407  -48.6276 H         1 UNK         0.0800 
    134 H134       -1.4027  -16.1157  -51.3414 H         1 UNK         0.0800 
    135 H135       -1.3461  -15.9827  -49.6026 H         1 UNK         0.0800 
    136 H136        0.9210  -16.1180  -52.5755 H         1 UNK         0.1150 
    137 H137        3.8286  -18.5928  -50.6030 H         1 UNK         0.1150 
    138 H138        0.3715  -17.2084  -48.4882 H         1 UNK         0.1150 
    139 H139        3.6865  -18.5511  -48.0261 H         1 UNK         0.0800 
    140 H140        2.1191  -18.3587  -47.2867 H         1 UNK         0.0800 
    141 H141        0.2560  -20.4544  -49.4665 H         1 UNK         0.0800 
    142 H142        0.0837  -19.7325  -47.8870 H         1 UNK         0.0800 
    143 H143        0.5221  -22.7254  -48.2930 H         1 UNK         0.0600 
    144 H144        0.4414  -21.1682  -45.9210 H         1 UNK         0.3000 
    145 H145       -0.5657  -23.8137  -43.7083 H         1 UNK         0.0600 
    146 H146        1.4934  -22.9667  -42.5967 H         1 UNK         0.0600 
    147 H147        2.0239  -22.2197  -44.1026 H         1 UNK         0.0600 
    148 H148        1.8904  -23.9672  -43.9850 H         1 UNK         0.0600 
    149 H149       -0.0479  -20.9960  -43.3770 H         1 UNK         0.3000 
    150 H150       -3.4499  -19.9434  -43.6605 H         1 UNK         0.0600 
    151 H151       -3.2262  -20.8335  -41.3325 H         1 UNK         0.0600 
    152 H152       -2.9717  -19.0959  -41.3814 H         1 UNK         0.0600 
    153 H153       -1.5931  -20.1847  -41.2305 H         1 UNK         0.0600 
    154 H154       -1.0286  -18.5653  -43.0063 H         1 UNK         0.3000 
    155 H155        0.0513  -17.8492  -46.2999 H         1 UNK         0.0600 
    156 H156       -1.4246  -16.0297  -44.3354 H         1 UNK         0.0600 
    157 H157       -1.6896  -16.1543  -46.0640 H         1 UNK         0.0600 
    158 H158       -0.1833  -15.4802  -45.4583 H         1 UNK         0.0600 
    159 H159        0.9387  -16.9536  -43.7402 H         1 UNK         0.3000 
    160 H160        2.7459  -19.7388  -42.7370 H         1 UNK         0.0600 
    161 H161        4.2333  -17.6910  -44.4590 H         1 UNK         0.0600 
    162 H162        4.2922  -19.4357  -44.6493 H         1 UNK         0.0600 
    163 H163        4.9421  -18.6925  -43.1966 H         1 UNK         0.0600 
    164 H164        3.1491  -16.8757  -42.3737 H         1 UNK         0.3000 
    165 H165        0.6039  -16.4962  -39.9381 H         1 UNK         0.0600 
    166 H166        2.4359  -15.9019  -38.3761 H         1 UNK         0.0600 
    167 H167        2.3359  -17.6468  -38.5475 H         1 UNK         0.0600 
    168 H168        3.6077  -16.7590  -39.3787 H         1 UNK         0.0600 
    169 H169        2.7701  -14.7990  -40.6492 H         1 UNK         0.3000 
    170 H170        0.9160  -12.8400  -42.7964 H         1 UNK         0.0600 
    171 H171        2.3528  -12.4714  -40.7771 H         1 UNK         0.0600 
    172 H172        3.7135  -13.2452  -41.5887 H         1 UNK         0.0600 
    173 H173        3.0453  -11.7462  -42.2157 H         1 UNK         0.0600 
    174 H174        1.8783  -13.2892  -44.7316 H         1 UNK         0.3000 
    175 H175        4.8371  -14.9855  -45.7624 H         1 UNK         0.0600 
    176 H176        1.8925  -15.2799  -46.5584 H         1 UNK         0.0600 
    177 H177        3.2848  -15.6831  -47.5586 H         1 UNK         0.0600 
    178 H178        2.9660  -16.5850  -46.0857 H         1 UNK         0.0600 
    179 H179        2.8527  -13.0196  -46.7330 H         1 UNK         0.3000 
    180 H180        5.0231  -10.2648  -46.3837 H         1 UNK         0.0600 
    181 H181        4.7557   -9.9948  -48.8391 H         1 UNK         0.0600 
    182 H182        4.3366  -11.7004  -49.0068 H         1 UNK         0.0600 
    183 H183        5.9516  -11.2323  -48.4892 H         1 UNK         0.0600 
    184 H184        2.5019  -10.6762  -47.7209 H         1 UNK         0.3000 
    185 H185        0.4234  -10.4123  -44.8999 H         1 UNK         0.0600 
    186 H186       -0.5245   -8.4038  -45.9974 H         1 UNK         0.0600 
    187 H187        0.9900   -7.9966  -45.2079 H         1 UNK         0.0600 
    188 H188        0.9429   -8.1973  -46.9553 H         1 UNK         0.0600 
    189 H189       -0.2329  -10.2791  -47.6366 H         1 UNK         0.3000 
    190 H190       -2.2112  -20.9565  -46.7688 H         1 UNK         0.3000 
    191 H191       -4.1293  -21.5550  -48.7875 H         1 UNK         0.0600 
    192 H192       -4.4951  -19.7863  -47.1071 H         1 UNK         0.0600 
    193 H193       -4.5116  -20.9745  -45.8054 H         1 UNK         0.0600 
    194 H194       -5.7872  -20.9727  -47.0184 H         1 UNK         0.0600 
    195 H195       -3.2759  -23.2839  -45.7324 H         1 UNK         0.3000 
    196 H196       -5.1198  -25.3988  -45.9949 H         1 UNK         0.0600 
    197 H197       -3.9326  -24.8933  -43.8869 H         1 UNK         0.0600 
    198 H198       -2.3899  -25.3508  -44.6053 H         1 UNK         0.0600 
    199 H199       -3.6399  -26.5620  -44.3511 H         1 UNK         0.0600 
    200 H200       -1.7655  -25.1285  -47.2379 H         1 UNK         0.3000 
    201 H201       -1.5656  -27.6985  -48.4113 H         1 UNK         0.0600 
    202 H202        0.3748  -26.1950  -48.0284 H         1 UNK         0.0600 
    203 H203       -0.2409  -25.0552  -49.2233 H         1 UNK         0.0600 
    204 H204        0.2882  -26.6571  -49.7214 H         1 UNK         0.0600 
    205 H205       -3.2105  -24.8023  -49.5268 H         1 UNK         0.3000 
    206 H206       -3.8410  -25.9379  -52.1925 H         1 UNK         0.0600 
    207 H207       -4.4174  -23.2047  -50.9435 H         1 UNK         0.0600 
    208 H208       -3.0785  -23.5680  -52.0283 H         1 UNK         0.0600 
    209 H209       -4.7298  -23.6598  -52.6168 H         1 UNK         0.0600 
    210 H210       -4.9549  -26.6889  -49.2983 H         1 UNK         0.3000 
    211 H211       -6.7841  -27.4812  -48.3732 H         1 UNK         0.0600 
    212 H212       -7.9024  -27.7369  -51.2149 H         1 UNK         0.0600 
    213 H213       -8.4249  -28.6420  -49.8006 H         1 UNK         0.0600 
    214 H214       -6.8128  -28.8914  -50.4472 H         1 UNK         0.0600 
    215 H215       -6.6148  -24.5909  -48.7016 H         1 UNK         0.3000 
    216 H216       -7.6360  -22.7179  -48.2893 H         1 UNK         0.0600 
    217 H217       -9.7204  -22.6392  -46.9953 H         1 UNK         0.0600 
    218 H218       -8.7197  -23.9500  -46.3950 H         1 UNK         0.0600 
    219 H219      -10.1112  -24.2978  -47.4216 H         1 UNK         0.0600 
    220 H220       -8.2056  -24.2971  -50.9696 H         1 UNK         0.3000 
    221 H221      -10.5390  -22.8536  -52.0152 H         1 UNK         0.0600 
    222 H222       -8.5110  -24.6909  -53.3953 H         1 UNK         0.0600 
    223 H223      -10.0424  -25.2098  -52.6920 H         1 UNK         0.0600 
    224 H224      -10.0308  -24.1235  -54.0736 H         1 UNK         0.0600 
    225 H225       -7.1109  -22.3542  -51.7658 H         1 UNK         0.3000 
    226 H226       -7.1719  -19.7697  -52.9698 H         1 UNK         0.0600 
    227 H227       -7.0100  -21.1520  -55.0869 H         1 UNK         0.0600 
    228 H228       -5.5674  -20.2013  -54.8291 H         1 UNK         0.0600 
    229 H229       -5.5597  -21.9277  -54.4632 H         1 UNK         0.0600 
    230 H230       -4.1376  -20.2922  -53.4773 H         1 UNK         0.3000 
    231 H231       -3.0476  -20.9613  -50.8969 H         1 UNK         0.0600 
    232 H232       -1.8107  -18.7996  -50.6355 H         1 UNK         0.0600 
    233 H233       -3.5375  -18.5027  -50.5799 H         1 UNK         0.0600 
    234 H234       -2.6312  -18.1373  -52.0467 H         1 UNK         0.0600 
    235 H235       -0.4948  -20.5183  -51.2286 H         1 UNK         0.3000 
    236 H236        0.2893  -22.3186  -53.2625 H         1 UNK         0.0600 
    237 H237        1.9665  -20.4856  -51.4773 H         1 UNK         0.0600 
    238 H238        1.4645  -22.1337  -51.1004 H         1 UNK         0.0600 
    239 H239        2.5920  -21.8352  -52.4127 H         1 UNK         0.0600 
    240 H240        0.0368  -18.8131  -53.3609 H         1 UNK         0.3000 
    241 H241        0.3859  -18.8710  -56.1503 H         1 UNK         0.0600 
    242 H242       -1.1306  -15.5630  -56.2053 H         1 UNK         0.3800 
    243 H243        0.1533  -16.3822  -57.0459 H         1 UNK         0.3800 
    244 H244        2.2233  -17.4333  -56.5592 H         1 UNK         0.0800 
    245 H245        2.8351  -18.6681  -55.5226 H         1 UNK         0.0800 
    246 H246        3.5025  -18.5024  -53.2581 H         1 UNK         0.0800 
    247 H247        4.3622  -17.0824  -52.7231 H         1 UNK         0.0800 
@<TRIPOS>BOND
     1    1    2 1    
     2    1  127 1    
     3    1  128 1    
     4    1  129 1    
     5    2    3 2    
     6    2    4 am   BACKBONE|DICT|INTERRES
     7    4    5 1    
     8    4  130 1    
     9    5    6 1    
    10    5   65 1    
    11    5  131 1    
    12    6    7 1    
    13    6  132 1    
    14    6  133 1    
    15    7    8 1    
    16    8    9 1    
    17    8  134 1    
    18    8  135 1    
    19    9   10 ar   
    20    9   14 ar   
    21   10   11 ar   
    22   10  136 1    
    23   11   12 ar   
    24   11  126 1    
    25   12   13 ar   
    26   12  137 1    
    27   13   14 ar   
    28   13   15 1    
    29   14  138 1    
    30   15   16 1    
    31   15  139 1    
    32   15  140 1    
    33   16   17 1    
    34   17   18 1    
    35   17  141 1    
    36   17  142 1    
    37   18   19 1    
    38   18   67 1    
    39   18  143 1    
    40   19   20 am   BACKBONE|DICT|INTERRES
    41   19  144 1    
    42   20   21 2    
    43   20   22 1    
    44   22   23 1    
    45   22   24 1    
    46   22  145 1    
    47   23  146 1    
    48   23  147 1    
    49   23  148 1    
    50   24   25 am   BACKBONE|DICT|INTERRES
    51   24  149 1    
    52   25   26 2    
    53   25   27 1    
    54   27   28 1    
    55   27   29 1    
    56   27  150 1    
    57   28  151 1    
    58   28  152 1    
    59   28  153 1    
    60   29   30 am   BACKBONE|DICT|INTERRES
    61   29  154 1    
    62   30   31 2    
    63   30   32 1    
    64   32   33 1    
    65   32   34 1    
    66   32  155 1    
    67   33  156 1    
    68   33  157 1    
    69   33  158 1    
    70   34   35 am   BACKBONE|DICT|INTERRES
    71   34  159 1    
    72   35   36 2    
    73   35   37 1    
    74   37   38 1    
    75   37   39 1    
    76   37  160 1    
    77   38  161 1    
    78   38  162 1    
    79   38  163 1    
    80   39   40 am   BACKBONE|DICT|INTERRES
    81   39  164 1    
    82   40   41 2    
    83   40   42 1    
    84   42   43 1    
    85   42   44 1    
    86   42  165 1    
    87   43  166 1    
    88   43  167 1    
    89   43  168 1    
    90   44   45 am   BACKBONE|DICT|INTERRES
    91   44  169 1    
    92   45   46 2    
    93   45   47 1    
    94   47   48 1    
    95   47   49 1    
    96   47  170 1    
    97   48  171 1    
    98   48  172 1    
    99   48  173 1    
   100   49   50 am   BACKBONE|DICT|INTERRES
   101   49  174 1    
   102   50   51 2    
   103   50   52 1    
   104   52   53 1    
   105   52   54 1    
   106   52  175 1    
   107   53  176 1    
   108   53  177 1    
   109   53  178 1    
   110   54   55 am   BACKBONE|DICT|INTERRES
   111   54  179 1    
   112   55   56 2    
   113   55   57 1    
   114   57   58 1    
   115   57   59 1    
   116   57  180 1    
   117   58  181 1    
   118   58  182 1    
   119   58  183 1    
   120   59   60 am   BACKBONE|DICT|INTERRES
   121   59  184 1    
   122   60   61 2    
   123   60   62 1    
   124   62   63 1    
   125   62   64 1    
   126   62  185 1    
   127   63  186 1    
   128   63  187 1    
   129   63  188 1    
   130   64   65 am   BACKBONE|DICT|INTERRES
   131   64  189 1    
   132   65   66 2    
   133   67   68 2    
   134   67   69 am   BACKBONE|DICT|INTERRES
   135   69   70 1    
   136   69  190 1    
   137   70   71 1    
   138   70   72 1    
   139   70  191 1    
   140   71  192 1    
   141   71  193 1    
   142   71  194 1    
   143   72   73 2    
   144   72   74 am   BACKBONE|DICT|INTERRES
   145   74   75 1    
   146   74  195 1    
   147   75   76 1    
   148   75   77 1    
   149   75  196 1    
   150   76  197 1    
   151   76  198 1    
   152   76  199 1    
   153   77   78 2    
   154   77   79 am   BACKBONE|DICT|INTERRES
   155   79   80 1    
   156   79  200 1    
   157   80   81 1    
   158   80   82 1    
   159   80  201 1    
   160   81  202 1    
   161   81  203 1    
   162   81  204 1    
   163   82   83 2    
   164   82   84 am   BACKBONE|DICT|INTERRES
   165   84   85 1    
   166   84  205 1    
   167   85   86 1    
   168   85   87 1    
   169   85  206 1    
   170   86  207 1    
   171   86  208 1    
   172   86  209 1    
   173   87   88 2    
   174   87   89 am   BACKBONE|DICT|INTERRES
   175   89   90 1    
   176   89  210 1    
   177   90   91 1    
   178   90   92 1    
   179   90  211 1    
   180   91  212 1    
   181   91  213 1    
   182   91  214 1    
   183   92   93 2    
   184   92   94 am   BACKBONE|DICT|INTERRES
   185   94   95 1    
   186   94  215 1    
   187   95   96 1    
   188   95   97 1    
   189   95  216 1    
   190   96  217 1    
   191   96  218 1    
   192   96  219 1    
   193   97   98 2    
   194   97   99 am   BACKBONE|DICT|INTERRES
   195   99  100 1    
   196   99  220 1    
   197  100  101 1    
   198  100  102 1    
   199  100  221 1    
   200  101  222 1    
   201  101  223 1    
   202  101  224 1    
   203  102  103 2    
   204  102  104 am   BACKBONE|DICT|INTERRES
   205  104  105 1    
   206  104  225 1    
   207  105  106 1    
   208  105  107 1    
   209  105  226 1    
   210  106  227 1    
   211  106  228 1    
   212  106  229 1    
   213  107  108 2    
   214  107  109 am   BACKBONE|DICT|INTERRES
   215  109  110 1    
   216  109  230 1    
   217  110  111 1    
   218  110  112 1    
   219  110  231 1    
   220  111  232 1    
   221  111  233 1    
   222  111  234 1    
   223  112  113 2    
   224  112  114 am   BACKBONE|DICT|INTERRES
   225  114  115 1    
   226  114  235 1    
   227  115  116 1    
   228  115  117 1    
   229  115  236 1    
   230  116  237 1    
   231  116  238 1    
   232  116  239 1    
   233  117  118 2    
   234  117  119 am   BACKBONE|DICT|INTERRES
   235  119  120 1    
   236  119  240 1    
   237  120  121 1    
   238  120  124 1    
   239  120  241 1    
   240  121  122 am   BACKBONE|DICT|INTERRES
   241  121  123 2    
   242  122  242 1    
   243  122  243 1    
   244  124  125 1    
   245  124  244 1    
   246  124  245 1    
   247  125  126 1    
   248  126  246 1    
   249  126  247 1    
@<TRIPOS>SUBSTRUCTURE
     1 UNK         1 GROUP             0       ****    0 ROOT    
