@<TRIPOS>MOLECULE
3R540
247   249    1
SMALL
USER_CHARGES


@<TRIPOS>ATOM
      1 CA          6.5069  -11.4077  -47.3426 C.3       0 UNK        -0.1800 
      2 C           5.4971  -11.9326  -46.3317 C.2       0 UNK         0.5000 
      3 O           5.4377  -11.4325  -45.2080 O.2       0 UNK        -0.5000 
      4 N           4.7127  -12.9436  -46.7221 N.am      1 UNK        -0.5000 
      5 CA          3.6379  -13.5303  -45.9188 C.3       1 UNK         0.1400 
      6 C6          3.2864  -14.9599  -46.3923 C.3       23 UNK        -0.0398 
      7 S7          2.8686  -15.1359  -48.1630 S.3       23 UNK        -0.2404 
      8 C8          1.0761  -15.4389  -48.0785 C.3       23 UNK        -0.0205 
      9 C9          0.5724  -16.2925  -49.2354 C.ar      23 UNK        -0.0193 
     10 C10         0.6600  -15.8243  -50.5505 C.ar      23 UNK        -0.1150 
     11 C11         0.1526  -16.5840  -51.6084 C.ar      23 UNK        -0.0193 
     12 C12        -0.4650  -17.8091  -51.3427 C.ar      23 UNK        -0.1150 
     13 C13        -0.5826  -18.2782  -50.0327 C.ar      23 UNK        -0.0193 
     14 C14        -0.0349  -17.5295  -48.9862 C.ar      23 UNK        -0.1150 
     15 C15        -1.3691  -19.5523  -49.7574 C.3       23 UNK        -0.0205 
     16 S16        -0.3338  -21.0467  -49.8132 S.3       23 UNK        -0.2404 
     17 C17         0.2994  -21.1067  -48.1059 C.3       23 UNK        -0.0398 
     18 CA         -0.2322  -22.3066  -47.2821 C.3       11 UNK         0.1400 
     19 N           0.5779  -22.5290  -46.0841 N.am      11 UNK        -0.5000 
     20 C           0.5489  -23.6306  -45.3199 C.2       10 UNK         0.5000 
     21 O          -0.1212  -24.6254  -45.5913 O.2       10 UNK        -0.5000 
     22 CA          1.3778  -23.6105  -44.0169 C.3       10 UNK         0.1400 
     23 CB          2.7657  -24.2220  -44.2569 C.3       10 UNK        -0.1800 
     24 N           1.5384  -22.2699  -43.4490 N.am      10 UNK        -0.5000 
     25 C           0.5347  -21.4962  -43.0111 C.2       9 UNK         0.5000 
     26 O          -0.6300  -21.8867  -42.9285 O.2       9 UNK        -0.5000 
     27 CA          0.8703  -20.0247  -42.6764 C.3       9 UNK         0.1400 
     28 CB          1.0145  -19.8372  -41.1597 C.3       9 UNK        -0.1800 
     29 N           2.0635  -19.4905  -43.3536 N.am      9 UNK        -0.5000 
     30 C           2.2304  -19.4624  -44.6858 C.2       8 UNK         0.5000 
     31 O           1.3915  -19.8990  -45.4697 O.2       8 UNK        -0.5000 
     32 CA          3.5531  -18.9124  -45.2402 C.3       8 UNK         0.1400 
     33 CB          3.4309  -18.4656  -46.7077 C.3       8 UNK        -0.1800 
     34 N           4.0513  -17.8136  -44.4170 N.am      8 UNK        -0.5000 
     35 C           5.3173  -17.6916  -43.9982 C.2       7 UNK         0.5000 
     36 O           6.2196  -18.4634  -44.3257 O.2       7 UNK        -0.5000 
     37 CA          5.6499  -16.5235  -43.0451 C.3       7 UNK         0.1400 
     38 CB          6.4986  -15.4640  -43.7673 C.3       7 UNK        -0.1800 
     39 N           4.4995  -15.8606  -42.4199 N.am      7 UNK        -0.5000 
     40 C           3.5940  -16.4383  -41.6183 C.2       6 UNK         0.5000 
     41 O           3.5536  -17.6497  -41.3970 O.2       6 UNK        -0.5000 
     42 CA          2.5544  -15.5223  -40.9448 C.3       6 UNK         0.1400 
     43 CB          2.8250  -14.0091  -41.1162 C.3       6 UNK        -0.1800 
     44 N           1.1895  -15.8643  -41.3522 N.am      6 UNK        -0.5000 
     45 C           0.6512  -15.7611  -42.5753 C.2       5 UNK         0.5000 
     46 O           1.2709  -15.3508  -43.5602 O.2       5 UNK        -0.5000 
     47 CA         -0.8357  -16.1613  -42.6852 C.3       5 UNK         0.1400 
     48 CB         -1.6874  -15.4871  -41.5928 C.3       5 UNK        -0.1800 
     49 N          -1.4216  -15.8091  -43.9771 N.am      5 UNK        -0.5000 
     50 C          -1.4417  -16.5974  -45.0616 C.2       4 UNK         0.5000 
     51 O          -0.8940  -17.6964  -45.1173 O.2       4 UNK        -0.5000 
     52 CA         -2.2106  -16.0784  -46.2896 C.3       4 UNK         0.1400 
     53 CB         -3.6891  -16.5014  -46.2467 C.3       4 UNK        -0.1800 
     54 N          -2.1001  -14.6296  -46.3849 N.am      4 UNK        -0.5000 
     55 C          -2.2121  -13.8782  -47.4799 C.2       3 UNK         0.5000 
     56 O          -2.5166  -14.3195  -48.5872 O.2       3 UNK        -0.5000 
     57 CA         -1.8918  -12.3769  -47.3188 C.3       3 UNK         0.1400 
     58 CB         -3.1634  -11.5792  -46.9739 C.3       3 UNK        -0.1800 
     59 N          -0.8012  -12.0695  -46.3753 N.am      3 UNK        -0.5000 
     60 C          -0.7458  -12.2469  -45.0470 C.2       2 UNK         0.5000 
     61 O          -1.6369  -12.7851  -44.3854 O.2       2 UNK        -0.5000 
     62 CA          0.5617  -11.8143  -44.3658 C.3       2 UNK         0.1400 
     63 CB          0.4442  -11.7801  -42.8313 C.3       2 UNK        -0.1800 
     64 N           1.6554  -12.7115  -44.7334 N.am      2 UNK        -0.5000 
     65 C           2.4150  -12.5906  -45.8283 C.2       1 UNK         0.5000 
     66 O           2.1881  -11.7687  -46.7212 O.2       1 UNK        -0.5000 
     67 C          -1.7176  -22.1437  -46.9018 C.2       11 UNK         0.5000 
     68 O          -2.5730  -22.7778  -47.5207 O.2       11 UNK        -0.5000 
     69 N          -1.9960  -21.3488  -45.8554 N.am      12 UNK        -0.5000 
     70 CA         -3.3339  -21.1699  -45.2833 C.3       12 UNK         0.1400 
     71 CB         -3.3195  -20.0573  -44.2254 C.3       12 UNK        -0.1800 
     72 C          -3.8982  -22.4701  -44.6867 C.2       12 UNK         0.5000 
     73 O          -5.0628  -22.7890  -44.9270 O.2       12 UNK        -0.5000 
     74 N          -3.0492  -23.2256  -43.9743 N.am      13 UNK        -0.5000 
     75 CA         -3.3671  -24.5465  -43.4208 C.3       13 UNK         0.1400 
     76 CB         -2.1999  -25.0259  -42.5462 C.3       13 UNK        -0.1800 
     77 C          -3.7038  -25.5970  -44.4999 C.2       13 UNK         0.5000 
     78 O          -4.5066  -26.4947  -44.2453 O.2       13 UNK        -0.5000 
     79 N          -3.1235  -25.4358  -45.6961 N.am      14 UNK        -0.5000 
     80 CA         -3.4007  -26.2217  -46.8979 C.3       14 UNK         0.1400 
     81 CB         -2.1181  -26.2920  -47.7456 C.3       14 UNK        -0.1800 
     82 C          -4.5908  -25.6737  -47.7174 C.2       14 UNK         0.5000 
     83 O          -4.7374  -26.0529  -48.8792 O.2       14 UNK        -0.5000 
     84 N          -5.4087  -24.7872  -47.1276 N.am      15 UNK        -0.5000 
     85 CA         -6.5881  -24.1391  -47.7133 C.3       15 UNK         0.1400 
     86 CB         -7.6901  -25.1736  -48.0261 C.3       15 UNK        -0.1800 
     87 C          -6.2231  -23.2581  -48.9233 C.2       15 UNK         0.5000 
     88 O          -6.8243  -23.3827  -49.9913 O.2       15 UNK        -0.5000 
     89 N          -5.2007  -22.4128  -48.7334 N.am      16 UNK        -0.5000 
     90 CA         -4.5603  -21.5579  -49.7379 C.3       16 UNK         0.1400 
     91 CB         -5.5228  -20.4620  -50.2404 C.3       16 UNK        -0.1800 
     92 C          -3.9316  -22.3910  -50.8719 C.2       16 UNK         0.5000 
     93 O          -4.1266  -22.0797  -52.0477 O.2       16 UNK        -0.5000 
     94 N          -3.2289  -23.4640  -50.4763 N.am      17 UNK        -0.5000 
     95 CA         -2.6333  -24.5015  -51.3268 C.3       17 UNK         0.1400 
     96 CB         -1.4012  -23.9498  -52.0716 C.3       17 UNK        -0.1800 
     97 C          -3.6696  -25.1584  -52.2644 C.2       17 UNK         0.5000 
     98 O          -3.4597  -25.2249  -53.4763 O.2       17 UNK        -0.5000 
     99 N          -4.7853  -25.6047  -51.6694 N.am      18 UNK        -0.5000 
    100 CA        -5.9812  -26.1543  -52.3139 C.3       18 UNK         0.1400 
    101 CB        -5.6768  -27.5232  -52.9575 C.3       18 UNK        -0.1800 
    102 C         -6.6354  -25.1499  -53.2869 C.2       18 UNK         0.5000 
    103 O         -6.9245  -25.4934  -54.4350 O.2       18 UNK        -0.5000 
    104 N         -6.8492  -23.9220  -52.7915 N.am      19 UNK        -0.5000 
    105 CA        -7.4343  -22.7678  -53.4784 C.3       19 UNK         0.1400 
    106 CB        -8.9376  -22.9995  -53.7366 C.3       19 UNK        -0.1800 
    107 C         -6.6556  -22.3549  -54.7457 C.2       19 UNK         0.5000 
    108 O         -7.2535  -22.1563  -55.8055 O.2       19 UNK        -0.5000 
    109 N         -5.3279  -22.2282  -54.6134 N.am      20 UNK        -0.5000 
    110 CA        -4.4279  -21.7938  -55.6845 C.3       20 UNK         0.1400 
    111 CB        -2.9766  -22.1093  -55.2927 C.3       20 UNK        -0.1800 
    112 C         -4.5707  -20.2966  -56.0133 C.2       20 UNK         0.5000 
    113 O         -4.3243  -19.9028  -57.1546 O.2       20 UNK        -0.5000 
    114 N         -4.9448  -19.4925  -55.0038 N.am      21 UNK        -0.5000 
    115 CA        -5.2146  -18.0478  -55.0658 C.3       21 UNK         0.1400 
    116 CB        -6.5340  -17.7932  -55.8233 C.3       21 UNK        -0.1800 
    117 C         -4.0385  -17.2119  -55.6222 C.2       21 UNK         0.5000 
    118 O         -4.2588  -16.1859  -56.2683 O.2       21 UNK        -0.5000 
    119 N         -2.8115  -17.6885  -55.3731 N.am      22 UNK        -0.5000 
    120 CA        -1.5378  -17.1554  -55.8892 C.3       22 UNK         0.1400 
    121 C         -1.3334  -17.3383  -57.4259 C.2       22 UNK         0.5000 
    122 N         -2.1168  -18.1621  -58.1135 N.am      22 UNK        -0.7600 
    123 O         -0.4254  -16.7491  -58.0064 O.2       22 UNK        -0.5000 
    124 C124       -1.2202  -15.7050  -55.4159 C.3       23 UNK        -0.0398 
    125 S125       -1.3777  -15.4815  -53.6111 S.3       23 UNK        -0.2404 
    126 C126        0.2413  -16.0832  -53.0400 C.3       23 UNK        -0.0205 
    127 H127        6.4539  -11.9498  -48.2872 H         1 UNK         0.0600 
    128 H128        7.5186  -11.5078  -46.9495 H         1 UNK         0.0600 
    129 H129        6.3209  -10.3530  -47.5452 H         1 UNK         0.0600 
    130 H130        4.7772  -13.2897  -47.6691 H         1 UNK         0.3000 
    131 H131        4.0182  -13.6267  -44.8996 H         1 UNK         0.0600 
    132 H132        4.1541  -15.5968  -46.2211 H         1 UNK         0.0800 
    133 H133        2.5001  -15.3887  -45.7735 H         1 UNK         0.0800 
    134 H134        0.8194  -15.9152  -47.1319 H         1 UNK         0.0800 
    135 H135        0.5639  -14.4771  -48.0889 H         1 UNK         0.0800 
    136 H136        1.1184  -14.8652  -50.7466 H         1 UNK         0.1150 
    137 H137       -0.8839  -18.3828  -52.1577 H         1 UNK         0.1150 
    138 H138       -0.1171  -17.8914  -47.9712 H         1 UNK         0.1150 
    139 H139       -1.8807  -19.4815  -48.7961 H         1 UNK         0.0800 
    140 H140       -2.1550  -19.6542  -50.5071 H         1 UNK         0.0800 
    141 H141        0.0884  -20.1646  -47.6013 H         1 UNK         0.0800 
    142 H142        1.3863  -21.1641  -48.1774 H         1 UNK         0.0800 
    143 H143       -0.1473  -23.2035  -47.8998 H         1 UNK         0.0600 
    144 H144        1.1000  -21.7192  -45.7608 H         1 UNK         0.3000 
    145 H145        0.8566  -24.2248  -43.2809 H         1 UNK         0.0600 
    146 H146        2.6824  -25.2338  -44.6562 H         1 UNK         0.0600 
    147 H147        3.3470  -23.6347  -44.9690 H         1 UNK         0.0600 
    148 H148        3.3348  -24.2863  -43.3293 H         1 UNK         0.0600 
    149 H149        2.4660  -21.8740  -43.4759 H         1 UNK         0.3000 
    150 H150        0.0184  -19.4307  -43.0120 H         1 UNK         0.0600 
    151 H151        1.8979  -20.3479  -40.7749 H         1 UNK         0.0600 
    152 H152        0.1469  -20.2332  -40.6300 H         1 UNK         0.0600 
    153 H153        1.0965  -18.7828  -40.8986 H         1 UNK         0.0600 
    154 H154        2.7837  -19.0987  -42.7564 H         1 UNK         0.3000 
    155 H155        4.2527  -19.7497  -45.2053 H         1 UNK         0.0600 
    156 H156        2.6142  -17.7570  -46.8383 H         1 UNK         0.0600 
    157 H157        3.2248  -19.3158  -47.3588 H         1 UNK         0.0600 
    158 H158        4.3497  -18.0006  -47.0646 H         1 UNK         0.0600 
    159 H159        3.3612  -17.1602  -44.0719 H         1 UNK         0.3000 
    160 H160        6.2528  -16.9433  -42.2375 H         1 UNK         0.0600 
    161 H161        7.4081  -15.9049  -44.1775 H         1 UNK         0.0600 
    162 H162        6.8063  -14.6698  -43.0867 H         1 UNK         0.0600 
    163 H163        5.9586  -15.0069  -44.5956 H         1 UNK         0.0600 
    164 H164        4.4480  -14.8601  -42.5387 H         1 UNK         0.3000 
    165 H165        2.6152  -15.7404  -39.8776 H         1 UNK         0.0600 
    166 H166        2.0799  -13.4203  -40.5812 H         1 UNK         0.0600 
    167 H167        3.7980  -13.7361  -40.7058 H         1 UNK         0.0600 
    168 H168        2.8052  -13.6932  -42.1586 H         1 UNK         0.0600 
    169 H169        0.6086  -16.2291  -40.6111 H         1 UNK         0.3000 
    170 H170       -0.8964  -17.2420  -42.5456 H         1 UNK         0.0600 
    171 H171       -2.7415  -15.7425  -41.7047 H         1 UNK         0.0600 
    172 H172       -1.3929  -15.8057  -40.5926 H         1 UNK         0.0600 
    173 H173       -1.6041  -14.4000  -41.6328 H         1 UNK         0.0600 
    174 H174       -1.8524  -14.8953  -44.0148 H         1 UNK         0.3000 
    175 H175       -1.7579  -16.5159  -47.1771 H         1 UNK         0.0600 
    176 H176       -4.1902  -16.1219  -45.3555 H         1 UNK         0.0600 
    177 H177       -4.2322  -16.1344  -47.1177 H         1 UNK         0.0600 
    178 H178       -3.7848  -17.5870  -46.2464 H         1 UNK         0.0600 
    179 H179       -1.8545  -14.1315  -45.5339 H         1 UNK         0.3000 
    180 H180       -1.5421  -12.0310  -48.2929 H         1 UNK         0.0600 
    181 H181       -2.9577  -10.5098  -46.9279 H         1 UNK         0.0600 
    182 H182       -3.5877  -11.8813  -46.0160 H         1 UNK         0.0600 
    183 H183       -3.9334  -11.7298  -47.7315 H         1 UNK         0.0600 
    184 H184        0.0405  -11.7027  -46.8070 H         1 UNK         0.3000 
    185 H185        0.7914  -10.8004  -44.7008 H         1 UNK         0.0600 
    186 H186        0.2342  -12.7662  -42.4172 H         1 UNK         0.0600 
    187 H187        1.3641  -11.4149  -42.3747 H         1 UNK         0.0600 
    188 H188       -0.3603  -11.1144  -42.5163 H         1 UNK         0.0600 
    189 H189        1.7881  -13.5124  -44.1243 H         1 UNK         0.3000 
    190 H190       -1.2356  -20.8746  -45.3878 H         1 UNK         0.3000 
    191 H191       -4.0010  -20.8583  -46.0898 H         1 UNK         0.0600 
    192 H192       -2.6388  -20.2790  -43.4041 H         1 UNK         0.0600 
    193 H193       -4.3123  -19.9134  -43.7971 H         1 UNK         0.0600 
    194 H194       -3.0188  -19.1080  -44.6596 H         1 UNK         0.0600 
    195 H195       -2.1243  -22.8559  -43.7743 H         1 UNK         0.3000 
    196 H196       -4.2468  -24.4333  -42.7841 H         1 UNK         0.0600 
    197 H197       -2.4493  -25.9611  -42.0434 H         1 UNK         0.0600 
    198 H198       -1.9550  -24.2957  -41.7746 H         1 UNK         0.0600 
    199 H199       -1.3032  -25.2039  -43.1389 H         1 UNK         0.0600 
    200 H200       -2.4526  -24.6860  -45.8051 H         1 UNK         0.3000 
    201 H201       -3.6618  -27.2404  -46.6053 H         1 UNK         0.0600 
    202 H202       -1.2903  -26.7065  -47.1701 H         1 UNK         0.0600 
    203 H203       -1.8143  -25.3074  -48.1010 H         1 UNK         0.0600 
    204 H204       -2.2534  -26.9319  -48.6182 H         1 UNK         0.0600 
    205 H205       -5.1804  -24.4831  -46.1885 H         1 UNK         0.3000 
    206 H206       -6.9794  -23.4644  -46.9506 H         1 UNK         0.0600 
    207 H207       -8.6068  -24.6787  -48.3488 H         1 UNK         0.0600 
    208 H208       -7.3950  -25.8594  -48.8207 H         1 UNK         0.0600 
    209 H209       -7.9346  -25.7667  -47.1449 H         1 UNK         0.0600 
    210 H210       -4.7067  -22.4705  -47.8517 H         1 UNK         0.3000 
    211 H211       -3.7370  -21.0583  -49.2297 H         1 UNK         0.0600 
    212 H212       -6.3644  -20.8785  -50.7931 H         1 UNK         0.0600 
    213 H213       -5.0082  -19.7668  -50.9046 H         1 UNK         0.0600 
    214 H214       -5.9229  -19.8804  -49.4101 H         1 UNK         0.0600 
    215 H215       -3.1288  -23.6000  -49.4776 H         1 UNK         0.3000 
    216 H216       -2.2860  -25.2908  -50.6594 H         1 UNK         0.0600 
    217 H217       -0.9346  -24.7211  -52.6853 H         1 UNK         0.0600 
    218 H218       -0.6457  -23.5982  -51.3701 H         1 UNK         0.0600 
    219 H219       -1.6611  -23.1198  -52.7280 H         1 UNK         0.0600 
    220 H220       -4.8320  -25.5539  -50.6533 H         1 UNK         0.3000 
    221 H221       -6.7053  -26.3213  -51.5151 H         1 UNK         0.0600 
    222 H222       -4.9834  -27.4349  -53.7943 H         1 UNK         0.0600 
    223 H223       -5.2415  -28.2104  -52.2320 H         1 UNK         0.0600 
    224 H224       -6.5884  -27.9863  -53.3365 H         1 UNK         0.0600 
    225 H225       -6.6093  -23.7573  -51.8160 H         1 UNK         0.3000 
    226 H226       -7.3488  -21.9299  -52.7858 H         1 UNK         0.0600 
    227 H227       -9.4611  -23.2470  -52.8131 H         1 UNK         0.0600 
    228 H228       -9.4068  -22.1033  -54.1441 H         1 UNK         0.0600 
    229 H229       -9.1075  -23.8098  -54.4462 H         1 UNK         0.0600 
    230 H230       -4.9048  -22.3812  -53.6995 H         1 UNK         0.3000 
    231 H231       -4.6687  -22.3586  -56.5874 H         1 UNK         0.0600 
    232 H232       -2.6812  -21.5829  -54.3845 H         1 UNK         0.0600 
    233 H233       -2.8380  -23.1765  -55.1223 H         1 UNK         0.0600 
    234 H234       -2.2846  -21.8153  -56.0829 H         1 UNK         0.0600 
    235 H235       -5.0863  -19.9259  -54.1022 H         1 UNK         0.3000 
    236 H236       -5.3559  -17.7177  -54.0358 H         1 UNK         0.0600 
    237 H237       -6.4482  -18.0529  -56.8789 H         1 UNK         0.0600 
    238 H238       -7.3505  -18.3785  -55.4002 H         1 UNK         0.0600 
    239 H239       -6.8254  -16.7438  -55.7656 H         1 UNK         0.0600 
    240 H240       -2.7417  -18.5421  -54.8399 H         1 UNK         0.3000 
    241 H241       -0.7766  -17.8006  -55.4508 H         1 UNK         0.0600 
    242 H242       -1.9618  -18.2752  -59.1026 H         1 UNK         0.3800 
    243 H243       -2.8745  -18.6708  -57.6682 H         1 UNK         0.3800 
    244 H244       -0.2099  -15.4158  -55.7103 H         1 UNK         0.0800 
    245 H245       -1.8876  -14.9933  -55.9035 H         1 UNK         0.0800 
    246 H246        0.5891  -16.8971  -53.6771 H         1 UNK         0.0800 
    247 H247        0.9775  -15.2830  -53.1302 H         1 UNK         0.0800 
@<TRIPOS>BOND
     1    1    2 1    
     2    1  127 1    
     3    1  128 1    
     4    1  129 1    
     5    2    3 2    
     6    2    4 am   BACKBONE|DICT|INTERRES
     7    4    5 1    
     8    4  130 1    
     9    5    6 1    
    10    5   65 1    
    11    5  131 1    
    12    6    7 1    
    13    6  132 1    
    14    6  133 1    
    15    7    8 1    
    16    8    9 1    
    17    8  134 1    
    18    8  135 1    
    19    9   10 ar   
    20    9   14 ar   
    21   10   11 ar   
    22   10  136 1    
    23   11   12 ar   
    24   11  126 1    
    25   12   13 ar   
    26   12  137 1    
    27   13   14 ar   
    28   13   15 1    
    29   14  138 1    
    30   15   16 1    
    31   15  139 1    
    32   15  140 1    
    33   16   17 1    
    34   17   18 1    
    35   17  141 1    
    36   17  142 1    
    37   18   19 1    
    38   18   67 1    
    39   18  143 1    
    40   19   20 am   BACKBONE|DICT|INTERRES
    41   19  144 1    
    42   20   21 2    
    43   20   22 1    
    44   22   23 1    
    45   22   24 1    
    46   22  145 1    
    47   23  146 1    
    48   23  147 1    
    49   23  148 1    
    50   24   25 am   BACKBONE|DICT|INTERRES
    51   24  149 1    
    52   25   26 2    
    53   25   27 1    
    54   27   28 1    
    55   27   29 1    
    56   27  150 1    
    57   28  151 1    
    58   28  152 1    
    59   28  153 1    
    60   29   30 am   BACKBONE|DICT|INTERRES
    61   29  154 1    
    62   30   31 2    
    63   30   32 1    
    64   32   33 1    
    65   32   34 1    
    66   32  155 1    
    67   33  156 1    
    68   33  157 1    
    69   33  158 1    
    70   34   35 am   BACKBONE|DICT|INTERRES
    71   34  159 1    
    72   35   36 2    
    73   35   37 1    
    74   37   38 1    
    75   37   39 1    
    76   37  160 1    
    77   38  161 1    
    78   38  162 1    
    79   38  163 1    
    80   39   40 am   BACKBONE|DICT|INTERRES
    81   39  164 1    
    82   40   41 2    
    83   40   42 1    
    84   42   43 1    
    85   42   44 1    
    86   42  165 1    
    87   43  166 1    
    88   43  167 1    
    89   43  168 1    
    90   44   45 am   BACKBONE|DICT|INTERRES
    91   44  169 1    
    92   45   46 2    
    93   45   47 1    
    94   47   48 1    
    95   47   49 1    
    96   47  170 1    
    97   48  171 1    
    98   48  172 1    
    99   48  173 1    
   100   49   50 am   BACKBONE|DICT|INTERRES
   101   49  174 1    
   102   50   51 2    
   103   50   52 1    
   104   52   53 1    
   105   52   54 1    
   106   52  175 1    
   107   53  176 1    
   108   53  177 1    
   109   53  178 1    
   110   54   55 am   BACKBONE|DICT|INTERRES
   111   54  179 1    
   112   55   56 2    
   113   55   57 1    
   114   57   58 1    
   115   57   59 1    
   116   57  180 1    
   117   58  181 1    
   118   58  182 1    
   119   58  183 1    
   120   59   60 am   BACKBONE|DICT|INTERRES
   121   59  184 1    
   122   60   61 2    
   123   60   62 1    
   124   62   63 1    
   125   62   64 1    
   126   62  185 1    
   127   63  186 1    
   128   63  187 1    
   129   63  188 1    
   130   64   65 am   BACKBONE|DICT|INTERRES
   131   64  189 1    
   132   65   66 2    
   133   67   68 2    
   134   67   69 am   BACKBONE|DICT|INTERRES
   135   69   70 1    
   136   69  190 1    
   137   70   71 1    
   138   70   72 1    
   139   70  191 1    
   140   71  192 1    
   141   71  193 1    
   142   71  194 1    
   143   72   73 2    
   144   72   74 am   BACKBONE|DICT|INTERRES
   145   74   75 1    
   146   74  195 1    
   147   75   76 1    
   148   75   77 1    
   149   75  196 1    
   150   76  197 1    
   151   76  198 1    
   152   76  199 1    
   153   77   78 2    
   154   77   79 am   BACKBONE|DICT|INTERRES
   155   79   80 1    
   156   79  200 1    
   157   80   81 1    
   158   80   82 1    
   159   80  201 1    
   160   81  202 1    
   161   81  203 1    
   162   81  204 1    
   163   82   83 2    
   164   82   84 am   BACKBONE|DICT|INTERRES
   165   84   85 1    
   166   84  205 1    
   167   85   86 1    
   168   85   87 1    
   169   85  206 1    
   170   86  207 1    
   171   86  208 1    
   172   86  209 1    
   173   87   88 2    
   174   87   89 am   BACKBONE|DICT|INTERRES
   175   89   90 1    
   176   89  210 1    
   177   90   91 1    
   178   90   92 1    
   179   90  211 1    
   180   91  212 1    
   181   91  213 1    
   182   91  214 1    
   183   92   93 2    
   184   92   94 am   BACKBONE|DICT|INTERRES
   185   94   95 1    
   186   94  215 1    
   187   95   96 1    
   188   95   97 1    
   189   95  216 1    
   190   96  217 1    
   191   96  218 1    
   192   96  219 1    
   193   97   98 2    
   194   97   99 am   BACKBONE|DICT|INTERRES
   195   99  100 1    
   196   99  220 1    
   197  100  101 1    
   198  100  102 1    
   199  100  221 1    
   200  101  222 1    
   201  101  223 1    
   202  101  224 1    
   203  102  103 2    
   204  102  104 am   BACKBONE|DICT|INTERRES
   205  104  105 1    
   206  104  225 1    
   207  105  106 1    
   208  105  107 1    
   209  105  226 1    
   210  106  227 1    
   211  106  228 1    
   212  106  229 1    
   213  107  108 2    
   214  107  109 am   BACKBONE|DICT|INTERRES
   215  109  110 1    
   216  109  230 1    
   217  110  111 1    
   218  110  112 1    
   219  110  231 1    
   220  111  232 1    
   221  111  233 1    
   222  111  234 1    
   223  112  113 2    
   224  112  114 am   BACKBONE|DICT|INTERRES
   225  114  115 1    
   226  114  235 1    
   227  115  116 1    
   228  115  117 1    
   229  115  236 1    
   230  116  237 1    
   231  116  238 1    
   232  116  239 1    
   233  117  118 2    
   234  117  119 am   BACKBONE|DICT|INTERRES
   235  119  120 1    
   236  119  240 1    
   237  120  121 1    
   238  120  124 1    
   239  120  241 1    
   240  121  122 am   BACKBONE|DICT|INTERRES
   241  121  123 2    
   242  122  242 1    
   243  122  243 1    
   244  124  125 1    
   245  124  244 1    
   246  124  245 1    
   247  125  126 1    
   248  126  246 1    
   249  126  247 1    
@<TRIPOS>SUBSTRUCTURE
     1 UNK         1 GROUP             0       ****    0 ROOT    
