@<TRIPOS>MOLECULE
3R540
247   249    1
SMALL
USER_CHARGES


@<TRIPOS>ATOM
      1 CA          3.5399  -12.2738  -47.1639 C.3       0 UNK        -0.1800 
      2 C           2.0505  -12.5261  -46.9894 C.2       0 UNK         0.5000 
      3 O           1.4252  -11.9354  -46.1084 O.2       0 UNK        -0.5000 
      4 N           1.4682  -13.3851  -47.8363 N.am      1 UNK        -0.5000 
      5 CA          0.0590  -13.8054  -47.7945 C.3       1 UNK         0.1400 
      6 C6         -0.2415  -14.9321  -48.8091 C.3       23 UNK        -0.0398 
      7 S7          0.6143  -16.4884  -48.3965 S.3       23 UNK        -0.2404 
      8 C8          2.0690  -16.4288  -49.4861 C.3       23 UNK        -0.0205 
      9 C9          2.6175  -17.8253  -49.7221 C.ar      23 UNK        -0.0193 
     10 C10         2.3161  -18.5038  -50.9056 C.ar      23 UNK        -0.1150 
     11 C11         2.7879  -19.8014  -51.1190 C.ar      23 UNK        -0.0193 
     12 C12         3.5837  -20.4124  -50.1469 C.ar      23 UNK        -0.1150 
     13 C13         3.8905  -19.7451  -48.9578 C.ar      23 UNK        -0.0193 
     14 C14         3.4098  -18.4478  -48.7534 C.ar      23 UNK        -0.1150 
     15 C15         4.7175  -20.4348  -47.8812 C.3       23 UNK        -0.0205 
     16 S16         3.9207  -21.9490  -47.2498 S.3       23 UNK        -0.2404 
     17 C17         2.3348  -21.3023  -46.6211 C.3       23 UNK        -0.0398 
     18 CA          1.1558  -22.2408  -46.9639 C.3       11 UNK         0.1400 
     19 N           1.2127  -23.4999  -46.2179 N.am      11 UNK        -0.5000 
     20 C           0.4197  -24.5586  -46.4335 C.2       10 UNK         0.5000 
     21 O          -0.4219  -24.6181  -47.3296 O.2       10 UNK        -0.5000 
     22 CA          0.5631  -25.7286  -45.4436 C.3       10 UNK         0.1400 
     23 CB          1.7459  -26.6279  -45.8327 C.3       10 UNK        -0.1800 
     24 N           0.7318  -25.2731  -44.0616 N.am      10 UNK        -0.5000 
     25 C          -0.2086  -24.6257  -43.3579 C.2       9 UNK         0.5000 
     26 O          -1.3314  -24.3713  -43.7893 O.2       9 UNK        -0.5000 
     27 CA          0.1881  -24.1382  -41.9532 C.3       9 UNK         0.1400 
     28 CB         -0.0132  -25.2528  -40.9160 C.3       9 UNK        -0.1800 
     29 N           1.5674  -23.6498  -41.8846 N.am      9 UNK        -0.5000 
     30 C           2.0266  -22.5820  -42.5494 C.2       8 UNK         0.5000 
     31 O           1.3387  -21.9049  -43.3181 O.2       8 UNK        -0.5000 
     32 CA          3.5166  -22.2584  -42.3642 C.3       8 UNK         0.1400 
     33 CB          4.3571  -22.9546  -43.4436 C.3       8 UNK        -0.1800 
     34 N           3.7481  -20.8183  -42.4322 N.am      8 UNK        -0.5000 
     35 C           3.6179  -19.9838  -41.3966 C.2       7 UNK         0.5000 
     36 O           3.3114  -20.3493  -40.2607 O.2       7 UNK        -0.5000 
     37 CA          3.8801  -18.4903  -41.6608 C.3       7 UNK         0.1400 
     38 CB          5.3588  -18.2203  -42.0031 C.3       7 UNK        -0.1800 
     39 N           2.9777  -17.8874  -42.6470 N.am      7 UNK        -0.5000 
     40 C           2.8931  -18.1033  -43.9688 C.2       6 UNK         0.5000 
     41 O           3.5773  -18.9233  -44.5813 O.2       6 UNK        -0.5000 
     42 CA          1.8732  -17.2382  -44.7389 C.3       6 UNK         0.1400 
     43 CB          0.5683  -18.0148  -44.9610 C.3       6 UNK        -0.1800 
     44 N           1.5623  -15.9781  -44.0568 N.am      6 UNK        -0.5000 
     45 C           2.3995  -14.9373  -43.9531 C.2       5 UNK         0.5000 
     46 O           3.5104  -14.9024  -44.4842 O.2       5 UNK        -0.5000 
     47 CA          1.8923  -13.7444  -43.1200 C.3       5 UNK         0.1400 
     48 CB          2.9025  -12.5850  -43.0459 C.3       5 UNK        -0.1800 
     49 N           0.6292  -13.2390  -43.6528 N.am      5 UNK        -0.5000 
     50 C          -0.5904  -13.6788  -43.3171 C.2       4 UNK         0.5000 
     51 O          -0.7681  -14.6140  -42.5347 O.2       4 UNK        -0.5000 
     52 CA         -1.8068  -13.0040  -43.9903 C.3       4 UNK         0.1400 
     53 CB         -3.0129  -12.8755  -43.0372 C.3       4 UNK        -0.1800 
     54 N          -1.5023  -11.7206  -44.6357 N.am      4 UNK        -0.5000 
     55 C          -1.1051  -10.5733  -44.0600 C.2       3 UNK         0.5000 
     56 O          -1.0021  -10.4218  -42.8422 O.2       3 UNK        -0.5000 
     57 CA         -0.7294   -9.4075  -45.0008 C.3       3 UNK         0.1400 
     58 CB          0.6154   -8.7794  -44.5942 C.3       3 UNK        -0.1800 
     59 N          -0.6233   -9.8551  -46.3904 N.am      3 UNK        -0.5000 
     60 C          -1.4943   -9.5863  -47.3722 C.2       2 UNK         0.5000 
     61 O          -2.4683   -8.8448  -47.2397 O.2       2 UNK        -0.5000 
     62 CA         -1.2544  -10.2863  -48.7285 C.3       2 UNK         0.1400 
     63 CB         -0.5072   -9.3498  -49.6900 C.3       2 UNK        -0.1800 
     64 N          -0.5093  -11.5449  -48.6167 N.am      2 UNK        -0.5000 
     65 C          -0.9390  -12.6393  -47.9709 C.2       1 UNK         0.5000 
     66 O          -2.0559  -12.7267  -47.4615 O.2       1 UNK        -0.5000 
     67 C          -0.1882  -21.5297  -46.7334 C.2       11 UNK         0.5000 
     68 O          -0.8285  -21.1250  -47.7021 O.2       11 UNK        -0.5000 
     69 N          -0.6080  -21.4306  -45.4633 N.am      12 UNK        -0.5000 
     70 CA         -1.8827  -20.8407  -45.0565 C.3       12 UNK         0.1400 
     71 CB         -1.9548  -20.7783  -43.5234 C.3       12 UNK        -0.1800 
     72 C          -3.0956  -21.5897  -45.6367 C.2       12 UNK         0.5000 
     73 O          -3.9999  -20.9494  -46.1716 O.2       12 UNK        -0.5000 
     74 N          -3.0721  -22.9280  -45.5581 N.am      13 UNK        -0.5000 
     75 CA         -4.1024  -23.8151  -46.1001 C.3       13 UNK         0.1400 
     76 CB         -3.8205  -25.2601  -45.6620 C.3       13 UNK        -0.1800 
     77 C          -4.2366  -23.7318  -47.6310 C.2       13 UNK         0.5000 
     78 O          -5.3555  -23.8059  -48.1379 O.2       13 UNK        -0.5000 
     79 N          -3.1076  -23.5661  -48.3345 N.am      14 UNK        -0.5000 
     80 CA         -3.0737  -23.3289  -49.7754 C.3       14 UNK         0.1400 
     81 CB         -1.6497  -23.5450  -50.3099 C.3       14 UNK        -0.1800 
     82 C          -3.5975  -21.9268  -50.1288 C.2       14 UNK         0.5000 
     83 O          -4.5025  -21.8084  -50.9521 O.2       14 UNK        -0.5000 
     84 N          -3.0386  -20.8927  -49.4836 N.am      15 UNK        -0.5000 
     85 CA         -3.3513  -19.4855  -49.7366 C.3       15 UNK         0.1400 
     86 CB         -2.4036  -18.5951  -48.9207 C.3       15 UNK        -0.1800 
     87 C          -4.8192  -19.1083  -49.4689 C.2       15 UNK         0.5000 
     88 O          -5.3574  -18.2670  -50.1899 O.2       15 UNK        -0.5000 
     89 N          -5.4443  -19.7455  -48.4671 N.am      16 UNK        -0.5000 
     90 CA         -6.8582  -19.6161  -48.1093 C.3       16 UNK         0.1400 
     91 CB         -7.1570  -20.5100  -46.8943 C.3       16 UNK        -0.1800 
     92 C          -7.7922  -19.9450  -49.2916 C.2       16 UNK         0.5000 
     93 O          -8.0327  -21.1177  -49.5815 O.2       16 UNK        -0.5000 
     94 N          -8.2630  -18.8863  -49.9659 N.am      17 UNK        -0.5000 
     95 CA         -9.0993  -18.8888  -51.1713 C.3       17 UNK         0.1400 
     96 CB        -10.4786  -19.5188  -50.8818 C.3       17 UNK        -0.1800 
     97 C          -8.4167  -19.4971  -52.4184 C.2       17 UNK         0.5000 
     98 O          -9.1204  -19.8610  -53.3619 O.2       17 UNK        -0.5000 
     99 N          -7.0736  -19.5699  -52.4148 N.am      18 UNK        -0.5000 
    100 CA        -6.2056  -20.1303  -53.4604 C.3       18 UNK         0.1400 
    101 CB        -6.1744  -19.1946  -54.6857 C.3       18 UNK        -0.1800 
    102 C         -6.5983  -21.5782  -53.8254 C.2       18 UNK         0.5000 
    103 O         -7.0683  -21.8430  -54.9353 O.2       18 UNK        -0.5000 
    104 N         -6.4462  -22.4844  -52.8541 N.am      19 UNK        -0.5000 
    105 CA        -6.8429  -23.8900  -52.9095 C.3       19 UNK         0.1400 
    106 CB        -6.9313  -24.4321  -51.4724 C.3       19 UNK        -0.1800 
    107 C         -5.9002  -24.7206  -53.8036 C.2       19 UNK         0.5000 
    108 O         -5.0990  -25.5102  -53.3015 O.2       19 UNK        -0.5000 
    109 N         -6.0073  -24.4929  -55.1200 N.am      20 UNK        -0.5000 
    110 CA        -5.2627  -25.1096  -56.2274 C.3       20 UNK         0.1400 
    111 CB        -5.4504  -26.6408  -56.2438 C.3       20 UNK        -0.1800 
    112 C         -3.7743  -24.7053  -56.3084 C.2       20 UNK         0.5000 
    113 O         -3.0607  -25.2020  -57.1814 O.2       20 UNK        -0.5000 
    114 N         -3.3356  -23.7946  -55.4352 N.am      21 UNK        -0.5000 
    115 CA        -1.9922  -23.2394  -55.3498 C.3       21 UNK         0.1400 
    116 CB        -1.0229  -24.2768  -54.7505 C.3       21 UNK        -0.1800 
    117 C         -2.0521  -21.9869  -54.4668 C.2       21 UNK         0.5000 
    118 O         -2.9968  -21.8348  -53.6897 O.2       21 UNK        -0.5000 
    119 N         -1.0287  -21.1339  -54.5864 N.am      22 UNK        -0.5000 
    120 CA        -0.7620  -19.9769  -53.7097 C.3       22 UNK         0.1400 
    121 C         -1.8256  -18.8366  -53.7559 C.2       22 UNK         0.5000 
    122 N         -2.6566  -18.7550  -54.7871 N.am      22 UNK        -0.7600 
    123 O         -1.8751  -17.9885  -52.8699 O.2       22 UNK        -0.5000 
    124 C124       -0.3958  -20.3995  -52.2571 C.3       23 UNK        -0.0398 
    125 S125        0.9745  -21.6091  -52.1878 S.3       23 UNK        -0.2404 
    126 C126        2.4402  -20.5476  -52.3961 C.3       23 UNK        -0.0205 
    127 H127        3.7322  -11.2041  -47.2444 H         1 UNK         0.0600 
    128 H128        3.9308  -12.7593  -48.0581 H         1 UNK         0.0600 
    129 H129        4.0862  -12.6566  -46.3020 H         1 UNK         0.0600 
    130 H130        2.0323  -13.8285  -48.5453 H         1 UNK         0.3000 
    131 H131       -0.1181  -14.2033  -46.7925 H         1 UNK         0.0600 
    132 H132        0.0030  -14.6201  -49.8256 H         1 UNK         0.0800 
    133 H133       -1.3087  -15.1626  -48.8170 H         1 UNK         0.0800 
    134 H134        2.8386  -15.8009  -49.0356 H         1 UNK         0.0800 
    135 H135        1.8064  -15.9680  -50.4395 H         1 UNK         0.0800 
    136 H136        1.7012  -18.0260  -51.6552 H         1 UNK         0.1150 
    137 H137        3.9456  -21.4189  -50.3043 H         1 UNK         0.1150 
    138 H138        3.6327  -17.9283  -47.8318 H         1 UNK         0.1150 
    139 H139        5.6940  -20.6926  -48.2927 H         1 UNK         0.0800 
    140 H140        4.9032  -19.7617  -47.0423 H         1 UNK         0.0800 
    141 H141        2.1592  -20.3105  -47.0377 H         1 UNK         0.0800 
    142 H142        2.4204  -21.1553  -45.5452 H         1 UNK         0.0800 
    143 H143        1.2091  -22.4810  -48.0286 H         1 UNK         0.0600 
    144 H144        1.8568  -23.5307  -45.4431 H         1 UNK         0.3000 
    145 H145       -0.3512  -26.3236  -45.4959 H         1 UNK         0.0600 
    146 H146        1.8087  -27.5001  -45.1819 H         1 UNK         0.0600 
    147 H147        1.6373  -26.9934  -46.8548 H         1 UNK         0.0600 
    148 H148        2.6960  -26.0952  -45.7739 H         1 UNK         0.0600 
    149 H149        1.6269  -25.4437  -43.6282 H         1 UNK         0.3000 
    150 H150       -0.4729  -23.3088  -41.6934 H         1 UNK         0.0600 
    151 H151       -1.0397  -25.6217  -40.9346 H         1 UNK         0.0600 
    152 H152        0.1822  -24.8918  -39.9061 H         1 UNK         0.0600 
    153 H153        0.6445  -26.1027  -41.1027 H         1 UNK         0.0600 
    154 H154        2.1952  -24.1598  -41.2798 H         1 UNK         0.3000 
    155 H155        3.8408  -22.6294  -41.3894 H         1 UNK         0.0600 
    156 H156        4.0850  -22.6190  -44.4423 H         1 UNK         0.0600 
    157 H157        4.2228  -24.0365  -43.4117 H         1 UNK         0.0600 
    158 H158        5.4197  -22.7552  -43.3039 H         1 UNK         0.0600 
    159 H159        3.8960  -20.4098  -43.3502 H         1 UNK         0.3000 
    160 H160        3.6724  -17.9702  -40.7242 H         1 UNK         0.0600 
    161 H161        5.5484  -17.1520  -42.1081 H         1 UNK         0.0600 
    162 H162        5.6637  -18.7057  -42.9305 H         1 UNK         0.0600 
    163 H163        6.0132  -18.5909  -41.2133 H         1 UNK         0.0600 
    164 H164        2.3326  -17.2115  -42.2645 H         1 UNK         0.3000 
    165 H165        2.3045  -17.0050  -45.7148 H         1 UNK         0.0600 
    166 H166       -0.1528  -17.4275  -45.5296 H         1 UNK         0.0600 
    167 H167        0.7556  -18.9275  -45.5247 H         1 UNK         0.0600 
    168 H168        0.1021  -18.2984  -44.0172 H         1 UNK         0.0600 
    169 H169        0.6611  -15.9098  -43.5994 H         1 UNK         0.3000 
    170 H170        1.7386  -14.1053  -42.1009 H         1 UNK         0.0600 
    171 H171        3.8452  -12.9151  -42.6080 H         1 UNK         0.0600 
    172 H172        3.1242  -12.1731  -44.0300 H         1 UNK         0.0600 
    173 H173        2.5228  -11.7736  -42.4247 H         1 UNK         0.0600 
    174 H174        0.7124  -12.5371  -44.3818 H         1 UNK         0.3000 
    175 H175       -2.1035  -13.6757  -44.7968 H         1 UNK         0.0600 
    176 H176       -2.7717  -12.2860  -42.1525 H         1 UNK         0.0600 
    177 H177       -3.8604  -12.4043  -43.5349 H         1 UNK         0.0600 
    178 H178       -3.3456  -13.8553  -42.6928 H         1 UNK         0.0600 
    179 H179       -1.5806  -11.7307  -45.6453 H         1 UNK         0.3000 
    180 H180       -1.5073   -8.6484  -44.8999 H         1 UNK         0.0600 
    181 H181        1.4239   -9.5114  -44.6190 H         1 UNK         0.0600 
    182 H182        0.5715   -8.3713  -43.5838 H         1 UNK         0.0600 
    183 H183        0.8847   -7.9604  -45.2612 H         1 UNK         0.0600 
    184 H184        0.1403  -10.4990  -46.5741 H         1 UNK         0.3000 
    185 H185       -2.2324  -10.5118  -49.1587 H         1 UNK         0.0600 
    186 H186       -1.0476   -8.4113  -49.8203 H         1 UNK         0.0600 
    187 H187        0.4897   -9.1061  -49.3202 H         1 UNK         0.0600 
    188 H188       -0.3997   -9.8007  -50.6767 H         1 UNK         0.0600 
    189 H189        0.4275  -11.5501  -48.9932 H         1 UNK         0.3000 
    190 H190       -0.0035  -21.7645  -44.7176 H         1 UNK         0.3000 
    191 H191       -1.9095  -19.8187  -45.4401 H         1 UNK         0.0600 
    192 H192       -1.9410  -21.7729  -43.0779 H         1 UNK         0.0600 
    193 H193       -2.8709  -20.2849  -43.1967 H         1 UNK         0.0600 
    194 H194       -1.1166  -20.2183  -43.1090 H         1 UNK         0.0600 
    195 H195       -2.3082  -23.3776  -45.0593 H         1 UNK         0.3000 
    196 H196       -5.0586  -23.5100  -45.6701 H         1 UNK         0.0600 
    197 H197       -4.5780  -25.9423  -46.0500 H         1 UNK         0.0600 
    198 H198       -3.8277  -25.3510  -44.5758 H         1 UNK         0.0600 
    199 H199       -2.8504  -25.6057  -46.0211 H         1 UNK         0.0600 
    200 H200       -2.2183  -23.5654  -47.8482 H         1 UNK         0.3000 
    201 H201       -3.7209  -24.0622  -50.2600 H         1 UNK         0.0600 
    202 H202       -1.3088  -24.5630  -50.1216 H         1 UNK         0.0600 
    203 H203       -0.9335  -22.8639  -49.8492 H         1 UNK         0.0600 
    204 H204       -1.6119  -23.3832  -51.3880 H         1 UNK         0.0600 
    205 H205       -2.2994  -21.0721  -48.8065 H         1 UNK         0.3000 
    206 H206       -3.1610  -19.2995  -50.7952 H         1 UNK         0.0600 
    207 H207       -2.5118  -18.7682  -47.8493 H         1 UNK         0.0600 
    208 H208       -2.5986  -17.5385  -49.1075 H         1 UNK         0.0600 
    209 H209       -1.3631  -18.7835  -49.1868 H         1 UNK         0.0600 
    210 H210       -4.9029  -20.3924  -47.9024 H         1 UNK         0.3000 
    211 H211       -7.0306  -18.5809  -47.8088 H         1 UNK         0.0600 
    212 H212       -6.8945  -21.5512  -47.0868 H         1 UNK         0.0600 
    213 H213       -8.2160  -20.4791  -46.6352 H         1 UNK         0.0600 
    214 H214       -6.6000  -20.1813  -46.0170 H         1 UNK         0.0600 
    215 H215       -7.9460  -17.9719  -49.6733 H         1 UNK         0.3000 
    216 H216       -9.2684  -17.8389  -51.4144 H         1 UNK         0.0600 
    217 H217      -11.1634  -19.3645  -51.7165 H         1 UNK         0.0600 
    218 H218      -10.9400  -19.0723  -50.0010 H         1 UNK         0.0600 
    219 H219      -10.4066  -20.5939  -50.7154 H         1 UNK         0.0600 
    220 H220       -6.5921  -19.2303  -51.5892 H         1 UNK         0.3000 
    221 H221       -5.1957  -20.1664  -53.0484 H         1 UNK         0.0600 
    222 H222       -7.1562  -19.0962  -55.1496 H         1 UNK         0.0600 
    223 H223       -5.8332  -18.1972  -54.4089 H         1 UNK         0.0600 
    224 H224       -5.4905  -19.5747  -55.4454 H         1 UNK         0.0600 
    225 H225       -5.9458  -22.1969  -52.0141 H         1 UNK         0.3000 
    226 H226       -7.8433  -23.9480  -53.3434 H         1 UNK         0.0600 
    227 H227       -7.2474  -25.4758  -51.4650 H         1 UNK         0.0600 
    228 H228       -5.9715  -24.3743  -50.9592 H         1 UNK         0.0600 
    229 H229       -7.6543  -23.8676  -50.8826 H         1 UNK         0.0600 
    230 H230       -6.6289  -23.7355  -55.3900 H         1 UNK         0.3000 
    231 H231       -5.7210  -24.7185  -57.1367 H         1 UNK         0.0600 
    232 H232       -6.5058  -26.9103  -56.2041 H         1 UNK         0.0600 
    233 H233       -4.9477  -27.1218  -55.4045 H         1 UNK         0.0600 
    234 H234       -5.0408  -27.0745  -57.1568 H         1 UNK         0.0600 
    235 H235       -3.9767  -23.4134  -54.7502 H         1 UNK         0.3000 
    236 H236       -1.6600  -22.9504  -56.3489 H         1 UNK         0.0600 
    237 H237       -0.9386  -25.1595  -55.3841 H         1 UNK         0.0600 
    238 H238       -0.0199  -23.8624  -54.6415 H         1 UNK         0.0600 
    239 H239       -1.3508  -24.6042  -53.7629 H         1 UNK         0.0600 
    240 H240       -0.3082  -21.3346  -55.2647 H         1 UNK         0.3000 
    241 H241        0.1257  -19.5073  -54.1327 H         1 UNK         0.0600 
    242 H242       -2.6175  -19.4326  -55.5309 H         1 UNK         0.3800 
    243 H243       -3.3222  -18.0005  -54.8249 H         1 UNK         0.3800 
    244 H244       -1.2628  -20.8486  -51.7736 H         1 UNK         0.0800 
    245 H245       -0.1371  -19.5356  -51.6456 H         1 UNK         0.0800 
    246 H246        3.2832  -21.1748  -52.6898 H         1 UNK         0.0800 
    247 H247        2.2868  -19.8491  -53.2192 H         1 UNK         0.0800 
@<TRIPOS>BOND
     1    1    2 1    
     2    1  127 1    
     3    1  128 1    
     4    1  129 1    
     5    2    3 2    
     6    2    4 am   BACKBONE|DICT|INTERRES
     7    4    5 1    
     8    4  130 1    
     9    5    6 1    
    10    5   65 1    
    11    5  131 1    
    12    6    7 1    
    13    6  132 1    
    14    6  133 1    
    15    7    8 1    
    16    8    9 1    
    17    8  134 1    
    18    8  135 1    
    19    9   10 ar   
    20    9   14 ar   
    21   10   11 ar   
    22   10  136 1    
    23   11   12 ar   
    24   11  126 1    
    25   12   13 ar   
    26   12  137 1    
    27   13   14 ar   
    28   13   15 1    
    29   14  138 1    
    30   15   16 1    
    31   15  139 1    
    32   15  140 1    
    33   16   17 1    
    34   17   18 1    
    35   17  141 1    
    36   17  142 1    
    37   18   19 1    
    38   18   67 1    
    39   18  143 1    
    40   19   20 am   BACKBONE|DICT|INTERRES
    41   19  144 1    
    42   20   21 2    
    43   20   22 1    
    44   22   23 1    
    45   22   24 1    
    46   22  145 1    
    47   23  146 1    
    48   23  147 1    
    49   23  148 1    
    50   24   25 am   BACKBONE|DICT|INTERRES
    51   24  149 1    
    52   25   26 2    
    53   25   27 1    
    54   27   28 1    
    55   27   29 1    
    56   27  150 1    
    57   28  151 1    
    58   28  152 1    
    59   28  153 1    
    60   29   30 am   BACKBONE|DICT|INTERRES
    61   29  154 1    
    62   30   31 2    
    63   30   32 1    
    64   32   33 1    
    65   32   34 1    
    66   32  155 1    
    67   33  156 1    
    68   33  157 1    
    69   33  158 1    
    70   34   35 am   BACKBONE|DICT|INTERRES
    71   34  159 1    
    72   35   36 2    
    73   35   37 1    
    74   37   38 1    
    75   37   39 1    
    76   37  160 1    
    77   38  161 1    
    78   38  162 1    
    79   38  163 1    
    80   39   40 am   BACKBONE|DICT|INTERRES
    81   39  164 1    
    82   40   41 2    
    83   40   42 1    
    84   42   43 1    
    85   42   44 1    
    86   42  165 1    
    87   43  166 1    
    88   43  167 1    
    89   43  168 1    
    90   44   45 am   BACKBONE|DICT|INTERRES
    91   44  169 1    
    92   45   46 2    
    93   45   47 1    
    94   47   48 1    
    95   47   49 1    
    96   47  170 1    
    97   48  171 1    
    98   48  172 1    
    99   48  173 1    
   100   49   50 am   BACKBONE|DICT|INTERRES
   101   49  174 1    
   102   50   51 2    
   103   50   52 1    
   104   52   53 1    
   105   52   54 1    
   106   52  175 1    
   107   53  176 1    
   108   53  177 1    
   109   53  178 1    
   110   54   55 am   BACKBONE|DICT|INTERRES
   111   54  179 1    
   112   55   56 2    
   113   55   57 1    
   114   57   58 1    
   115   57   59 1    
   116   57  180 1    
   117   58  181 1    
   118   58  182 1    
   119   58  183 1    
   120   59   60 am   BACKBONE|DICT|INTERRES
   121   59  184 1    
   122   60   61 2    
   123   60   62 1    
   124   62   63 1    
   125   62   64 1    
   126   62  185 1    
   127   63  186 1    
   128   63  187 1    
   129   63  188 1    
   130   64   65 am   BACKBONE|DICT|INTERRES
   131   64  189 1    
   132   65   66 2    
   133   67   68 2    
   134   67   69 am   BACKBONE|DICT|INTERRES
   135   69   70 1    
   136   69  190 1    
   137   70   71 1    
   138   70   72 1    
   139   70  191 1    
   140   71  192 1    
   141   71  193 1    
   142   71  194 1    
   143   72   73 2    
   144   72   74 am   BACKBONE|DICT|INTERRES
   145   74   75 1    
   146   74  195 1    
   147   75   76 1    
   148   75   77 1    
   149   75  196 1    
   150   76  197 1    
   151   76  198 1    
   152   76  199 1    
   153   77   78 2    
   154   77   79 am   BACKBONE|DICT|INTERRES
   155   79   80 1    
   156   79  200 1    
   157   80   81 1    
   158   80   82 1    
   159   80  201 1    
   160   81  202 1    
   161   81  203 1    
   162   81  204 1    
   163   82   83 2    
   164   82   84 am   BACKBONE|DICT|INTERRES
   165   84   85 1    
   166   84  205 1    
   167   85   86 1    
   168   85   87 1    
   169   85  206 1    
   170   86  207 1    
   171   86  208 1    
   172   86  209 1    
   173   87   88 2    
   174   87   89 am   BACKBONE|DICT|INTERRES
   175   89   90 1    
   176   89  210 1    
   177   90   91 1    
   178   90   92 1    
   179   90  211 1    
   180   91  212 1    
   181   91  213 1    
   182   91  214 1    
   183   92   93 2    
   184   92   94 am   BACKBONE|DICT|INTERRES
   185   94   95 1    
   186   94  215 1    
   187   95   96 1    
   188   95   97 1    
   189   95  216 1    
   190   96  217 1    
   191   96  218 1    
   192   96  219 1    
   193   97   98 2    
   194   97   99 am   BACKBONE|DICT|INTERRES
   195   99  100 1    
   196   99  220 1    
   197  100  101 1    
   198  100  102 1    
   199  100  221 1    
   200  101  222 1    
   201  101  223 1    
   202  101  224 1    
   203  102  103 2    
   204  102  104 am   BACKBONE|DICT|INTERRES
   205  104  105 1    
   206  104  225 1    
   207  105  106 1    
   208  105  107 1    
   209  105  226 1    
   210  106  227 1    
   211  106  228 1    
   212  106  229 1    
   213  107  108 2    
   214  107  109 am   BACKBONE|DICT|INTERRES
   215  109  110 1    
   216  109  230 1    
   217  110  111 1    
   218  110  112 1    
   219  110  231 1    
   220  111  232 1    
   221  111  233 1    
   222  111  234 1    
   223  112  113 2    
   224  112  114 am   BACKBONE|DICT|INTERRES
   225  114  115 1    
   226  114  235 1    
   227  115  116 1    
   228  115  117 1    
   229  115  236 1    
   230  116  237 1    
   231  116  238 1    
   232  116  239 1    
   233  117  118 2    
   234  117  119 am   BACKBONE|DICT|INTERRES
   235  119  120 1    
   236  119  240 1    
   237  120  121 1    
   238  120  124 1    
   239  120  241 1    
   240  121  122 am   BACKBONE|DICT|INTERRES
   241  121  123 2    
   242  122  242 1    
   243  122  243 1    
   244  124  125 1    
   245  124  244 1    
   246  124  245 1    
   247  125  126 1    
   248  126  246 1    
   249  126  247 1    
@<TRIPOS>SUBSTRUCTURE
     1 UNK         1 GROUP             0       ****    0 ROOT    
