@<TRIPOS>MOLECULE
3R540
247   249    1
SMALL
USER_CHARGES


@<TRIPOS>ATOM
      1 CA          0.4362  -10.4393  -50.5446 C.3       0 UNK        -0.1800 
      2 C           0.3788  -11.3987  -49.3642 C.2       0 UNK         0.5000 
      3 O           0.0486  -10.9845  -48.2527 O.2       0 UNK        -0.5000 
      4 N           0.7072  -12.6743  -49.5986 N.am      1 UNK        -0.5000 
      5 CA          0.6392  -13.7601  -48.6178 C.3       1 UNK         0.1400 
      6 C6          1.4368  -15.0118  -49.0784 C.3       23 UNK        -0.0398 
      7 S7          1.1039  -15.5528  -50.7972 S.3       23 UNK        -0.2404 
      8 C8          0.1683  -17.0959  -50.5575 C.3       23 UNK        -0.0205 
      9 C9          0.9023  -18.2777  -51.1662 C.ar      23 UNK        -0.0193 
     10 C10         0.7357  -18.5813  -52.5200 C.ar      23 UNK        -0.1150 
     11 C11         1.4098  -19.6622  -53.0936 C.ar      23 UNK        -0.0193 
     12 C12         2.2535  -20.4443  -52.3001 C.ar      23 UNK        -0.1150 
     13 C13         2.4178  -20.1588  -50.9415 C.ar      23 UNK        -0.0193 
     14 C14         1.7445  -19.0692  -50.3803 C.ar      23 UNK        -0.1150 
     15 C15         3.3174  -21.0361  -50.0842 C.3       23 UNK        -0.0205 
     16 S16         2.4908  -22.5938  -49.6337 S.3       23 UNK        -0.2404 
     17 C17         1.2043  -21.9943  -48.4869 C.3       23 UNK        -0.0398 
     18 CA          1.0554  -22.8904  -47.2341 C.3       11 UNK         0.1400 
     19 N           2.3176  -23.0187  -46.4884 N.am      11 UNK        -0.5000 
     20 C           2.6544  -24.0468  -45.6990 C.2       10 UNK         0.5000 
     21 O           1.9149  -25.0129  -45.5121 O.2       10 UNK        -0.5000 
     22 CA          3.9903  -23.9754  -44.9306 C.3       10 UNK         0.1400 
     23 CB          4.9522  -25.0580  -45.4446 C.3       10 UNK        -0.1800 
     24 N           4.6824  -22.6825  -44.9837 N.am      10 UNK        -0.5000 
     25 C           4.3827  -21.5376  -44.3506 C.2       9 UNK         0.5000 
     26 O           5.1433  -20.5708  -44.4069 O.2       9 UNK        -0.5000 
     27 CA          3.0809  -21.4142  -43.5187 C.3       9 UNK         0.1400 
     28 CB          3.3792  -21.6035  -42.0243 C.3       9 UNK        -0.1800 
     29 N           2.3885  -20.1366  -43.7037 N.am      9 UNK        -0.5000 
     30 C           2.0892  -19.5408  -44.8684 C.2       8 UNK         0.5000 
     31 O           2.3815  -19.9965  -45.9740 O.2       8 UNK        -0.5000 
     32 CA          1.2916  -18.2254  -44.8004 C.3       8 UNK         0.1400 
     33 CB         -0.1833  -18.5079  -45.1176 C.3       8 UNK        -0.1800 
     34 N           1.3820  -17.5435  -43.5092 N.am      8 UNK        -0.5000 
     35 C           2.4683  -16.9074  -43.0477 C.2       7 UNK         0.5000 
     36 O           3.5165  -16.7920  -43.6824 O.2       7 UNK        -0.5000 
     37 CA          2.3693  -16.3145  -41.6305 C.3       7 UNK         0.1400 
     38 CB          1.7991  -14.8873  -41.6669 C.3       7 UNK        -0.1800 
     39 N           1.5413  -17.1479  -40.7580 N.am      7 UNK        -0.5000 
     40 C           1.9800  -18.2452  -40.1250 C.2       6 UNK         0.5000 
     41 O           3.1504  -18.6245  -40.1494 O.2       6 UNK        -0.5000 
     42 CA          0.9370  -19.0678  -39.3431 C.3       6 UNK         0.1400 
     43 CB          0.8819  -18.6106  -37.8777 C.3       6 UNK        -0.1800 
     44 N          -0.4071  -18.9897  -39.9176 N.am      6 UNK        -0.5000 
     45 C          -0.7674  -19.5265  -41.0919 C.2       5 UNK         0.5000 
     46 O          -0.0090  -20.1807  -41.8051 O.2       5 UNK        -0.5000 
     47 CA         -2.2025  -19.2329  -41.5723 C.3       5 UNK         0.1400 
     48 CB         -3.1759  -20.2905  -41.0328 C.3       5 UNK        -0.1800 
     49 N          -2.6813  -17.8986  -41.1941 N.am      5 UNK        -0.5000 
     50 C          -2.1066  -16.7462  -41.5618 C.2       4 UNK         0.5000 
     51 O          -1.1041  -16.6791  -42.2785 O.2       4 UNK        -0.5000 
     52 CA         -2.7082  -15.4647  -40.9739 C.3       4 UNK         0.1400 
     53 CB         -2.3122  -15.3155  -39.4921 C.3       4 UNK        -0.1800 
     54 N          -2.2169  -14.3211  -41.7340 N.am      4 UNK        -0.5000 
     55 C          -2.7764  -13.1069  -41.7661 C.2       3 UNK         0.5000 
     56 O          -3.8001  -12.8128  -41.1469 O.2       3 UNK        -0.5000 
     57 CA         -2.0786  -12.0275  -42.6191 C.3       3 UNK         0.1400 
     58 CB         -1.2374  -11.1058  -41.7218 C.3       3 UNK        -0.1800 
     59 N          -1.2205  -12.5522  -43.6860 N.am      3 UNK        -0.5000 
     60 C          -1.6611  -13.1840  -44.7808 C.2       2 UNK         0.5000 
     61 O          -2.8484  -13.4493  -44.9904 O.2       2 UNK        -0.5000 
     62 CA         -0.5905  -13.5817  -45.8101 C.3       2 UNK         0.1400 
     63 CB          0.3519  -14.6593  -45.2456 C.3       2 UNK        -0.1800 
     64 N          -1.2693  -14.0695  -47.0083 N.am      2 UNK        -0.5000 
     65 C          -0.8380  -14.0911  -48.2763 C.2       1 UNK         0.5000 
     66 O          -1.6082  -14.3693  -49.1952 O.2       1 UNK        -0.5000 
     67 C          -0.1041  -22.4163  -46.3227 C.2       11 UNK         0.5000 
     68 O          -0.8835  -21.5412  -46.7045 O.2       11 UNK        -0.5000 
     69 N          -0.2048  -23.0099  -45.1261 N.am      12 UNK        -0.5000 
     70 CA         -1.1518  -22.6637  -44.0639 C.3       12 UNK         0.1400 
     71 CB         -0.7297  -23.3884  -42.7771 C.3       12 UNK        -0.1800 
     72 C          -2.6259  -22.9604  -44.4041 C.2       12 UNK         0.5000 
     73 O          -3.5157  -22.4578  -43.7167 O.2       12 UNK        -0.5000 
     74 N          -2.8664  -23.7456  -45.4632 N.am      13 UNK        -0.5000 
     75 CA         -4.1746  -24.0535  -46.0409 C.3       13 UNK         0.1400 
     76 CB         -4.0208  -25.2619  -46.9817 C.3       13 UNK        -0.1800 
     77 C          -4.7896  -22.8293  -46.7532 C.2       13 UNK         0.5000 
     78 O          -4.8946  -22.8097  -47.9815 O.2       13 UNK        -0.5000 
     79 N          -5.1506  -21.8132  -45.9580 N.am      14 UNK        -0.5000 
     80 CA         -5.7917  -20.5535  -46.3464 C.3       14 UNK         0.1400 
     81 CB         -7.2521  -20.8124  -46.7722 C.3       14 UNK        -0.1800 
     82 C          -4.9908  -19.7662  -47.4036 C.2       14 UNK         0.5000 
     83 O          -5.5747  -19.2639  -48.3644 O.2       14 UNK        -0.5000 
     84 N          -3.6616  -19.7032  -47.2241 N.am      15 UNK        -0.5000 
     85 CA         -2.6952  -19.0700  -48.1301 C.3       15 UNK         0.1400 
     86 CB         -2.9048  -17.5406  -48.1648 C.3       15 UNK        -0.1800 
     87 C          -2.6959  -19.7273  -49.5242 C.2       15 UNK         0.5000 
     88 O          -2.7872  -19.0331  -50.5364 O.2       15 UNK        -0.5000 
     89 N          -2.6497  -21.0688  -49.5324 N.am      16 UNK        -0.5000 
     90 CA         -2.7867  -21.9490  -50.7002 C.3       16 UNK         0.1400 
     91 CB         -1.5641  -21.8175  -51.6315 C.3       16 UNK        -0.1800 
     92 C          -4.1289  -21.7336  -51.4327 C.2       16 UNK         0.5000 
     93 O          -4.1565  -21.6049  -52.6586 O.2       16 UNK        -0.5000 
     94 N          -5.2135  -21.6586  -50.6463 N.am      17 UNK        -0.5000 
     95 CA         -6.5800  -21.3133  -51.0522 C.3       17 UNK         0.1400 
     96 CB         -7.1939  -22.4539  -51.8913 C.3       17 UNK        -0.1800 
     97 C          -6.6466  -19.9412  -51.7577 C.2       17 UNK         0.5000 
     98 O          -7.1917  -19.8362  -52.8555 O.2       17 UNK        -0.5000 
     99 N          -6.0361  -18.9230  -51.1342 N.am      18 UNK        -0.5000 
    100 CA        -5.8061  -17.5723  -51.6628 C.3       18 UNK         0.1400 
    101 CB        -7.1307  -16.7853  -51.7343 C.3       18 UNK        -0.1800 
    102 C         -5.0362  -17.5935  -53.0031 C.2       18 UNK         0.5000 
    103 O         -5.4292  -16.9295  -53.9639 O.2       18 UNK        -0.5000 
    104 N         -3.9714  -18.4055  -53.0354 N.am      19 UNK        -0.5000 
    105 CA        -3.0894  -18.7271  -54.1603 C.3       19 UNK         0.1400 
    106 CB        -2.3600  -17.4645  -54.6621 C.3       19 UNK        -0.1800 
    107 C         -3.7539  -19.5058  -55.3181 C.2       19 UNK         0.5000 
    108 O         -3.0924  -19.7328  -56.3320 O.2       19 UNK        -0.5000 
    109 N         -5.0195  -19.9301  -55.1764 N.am      20 UNK        -0.5000 
    110 CA        -5.7521  -20.6698  -56.2083 C.3       20 UNK         0.1400 
    111 CB        -7.2525  -20.6832  -55.8854 C.3       20 UNK        -0.1800 
    112 C         -5.2364  -22.1059  -56.4071 C.2       20 UNK         0.5000 
    113 O         -5.3220  -22.6254  -57.5210 O.2       20 UNK        -0.5000 
    114 N         -4.6827  -22.7166  -55.3485 N.am      21 UNK        -0.5000 
    115 CA        -4.0853  -24.0546  -55.3979 C.3       21 UNK         0.1400 
    116 CB        -3.9317  -24.5976  -53.9690 C.3       21 UNK        -0.1800 
    117 C         -2.7344  -24.0867  -56.1427 C.2       21 UNK         0.5000 
    118 O         -2.2801  -25.1674  -56.5208 O.2       21 UNK        -0.5000 
    119 N         -2.1219  -22.9133  -56.3435 N.am      22 UNK        -0.5000 
    120 CA        -0.8463  -22.7273  -57.0523 C.3       22 UNK         0.1400 
    121 C         -0.9719  -22.7487  -58.6045 C.2       22 UNK         0.5000 
    122 N         -2.1684  -22.7848  -59.1808 N.am      22 UNK        -0.7600 
    123 O          0.0388  -22.7431  -59.3021 O.2       22 UNK        -0.5000 
    124 C124       -0.1041  -21.4518  -56.5738 C.3       23 UNK        -0.0398 
    125 S125        0.0878  -21.3976  -54.7617 S.3       23 UNK        -0.2404 
    126 C126        1.2195  -19.9929  -54.5650 C.3       23 UNK        -0.0205 
    127 H127       -0.5462  -10.0003  -50.7189 H         1 UNK         0.0600 
    128 H128        1.1400   -9.6327  -50.3390 H         1 UNK         0.0600 
    129 H129        0.7517  -10.9411  -51.4598 H         1 UNK         0.0600 
    130 H130        0.9355  -12.9669  -50.5385 H         1 UNK         0.3000 
    131 H131        1.1521  -13.3949  -47.7299 H         1 UNK         0.0600 
    132 H132        2.5018  -14.7807  -49.0294 H         1 UNK         0.0800 
    133 H133        1.2996  -15.8391  -48.3809 H         1 UNK         0.0800 
    134 H134       -0.0128  -17.2822  -49.4998 H         1 UNK         0.0800 
    135 H135       -0.8153  -16.9908  -51.0188 H         1 UNK         0.0800 
    136 H136        0.0829  -17.9718  -53.1269 H         1 UNK         0.1150 
    137 H137        2.7674  -21.2893  -52.7366 H         1 UNK         0.1150 
    138 H138        1.8732  -18.8381  -49.3322 H         1 UNK         0.1150 
    139 H139        4.2304  -21.2666  -50.6350 H         1 UNK         0.0800 
    140 H140        3.6304  -20.5100  -49.1806 H         1 UNK         0.0800 
    141 H141        0.2654  -21.9500  -49.0382 H         1 UNK         0.0800 
    142 H142        1.4248  -20.9692  -48.1896 H         1 UNK         0.0800 
    143 H143        0.7697  -23.8831  -47.5886 H         1 UNK         0.0600 
    144 H144        2.9409  -22.2245  -46.5525 H         1 UNK         0.3000 
    145 H145        3.7702  -24.1982  -43.8849 H         1 UNK         0.0600 
    146 H146        5.2270  -24.8893  -46.4867 H         1 UNK         0.0600 
    147 H147        5.8690  -25.0848  -44.8551 H         1 UNK         0.0600 
    148 H148        4.5009  -26.0492  -45.3811 H         1 UNK         0.0600 
    149 H149        5.5297  -22.6890  -45.5320 H         1 UNK         0.3000 
    150 H150        2.3611  -22.1752  -43.8057 H         1 UNK         0.0600 
    151 H151        3.8506  -22.5689  -41.8369 H         1 UNK         0.0600 
    152 H152        2.4655  -21.5676  -41.4303 H         1 UNK         0.0600 
    153 H153        4.0522  -20.8309  -41.6504 H         1 UNK         0.0600 
    154 H154        2.0406  -19.6985  -42.8623 H         1 UNK         0.3000 
    155 H155        1.6878  -17.5587  -45.5689 H         1 UNK         0.0600 
    156 H156       -0.2689  -18.9611  -46.1025 H         1 UNK         0.0600 
    157 H157       -0.7887  -17.6032  -45.1212 H         1 UNK         0.0600 
    158 H158       -0.6207  -19.2029  -44.4023 H         1 UNK         0.0600 
    159 H159        0.5343  -17.5160  -42.9523 H         1 UNK         0.3000 
    160 H160        3.3798  -16.2600  -41.2194 H         1 UNK         0.0600 
    161 H161        0.7916  -14.8604  -42.0794 H         1 UNK         0.0600 
    162 H162        2.4223  -14.2359  -42.2808 H         1 UNK         0.0600 
    163 H163        1.7620  -14.4530  -40.6677 H         1 UNK         0.0600 
    164 H164        0.5557  -16.9297  -40.7287 H         1 UNK         0.3000 
    165 H165        1.2563  -20.1121  -39.3650 H         1 UNK         0.0600 
    166 H166        0.2033  -19.2339  -37.2951 H         1 UNK         0.0600 
    167 H167        1.8652  -18.6783  -37.4103 H         1 UNK         0.0600 
    168 H168        0.5474  -17.5760  -37.7905 H         1 UNK         0.0600 
    169 H169       -1.0968  -18.4719  -39.3939 H         1 UNK         0.3000 
    170 H170       -2.2062  -19.2928  -42.6619 H         1 UNK         0.0600 
    171 H171       -3.2658  -20.2411  -39.9471 H         1 UNK         0.0600 
    172 H172       -4.1708  -20.1650  -41.4603 H         1 UNK         0.0600 
    173 H173       -2.8418  -21.2965  -41.2875 H         1 UNK         0.0600 
    174 H174       -3.4958  -17.8693  -40.5977 H         1 UNK         0.3000 
    175 H175       -3.7948  -15.5211  -41.0666 H         1 UNK         0.0600 
    176 H176       -2.6602  -16.1628  -38.9003 H         1 UNK         0.0600 
    177 H177       -1.2299  -15.2508  -39.3712 H         1 UNK         0.0600 
    178 H178       -2.7494  -14.4192  -39.0521 H         1 UNK         0.0600 
    179 H179       -1.4110  -14.5190  -42.3119 H         1 UNK         0.3000 
    180 H180       -2.8629  -11.4260  -43.0837 H         1 UNK         0.0600 
    181 H181       -0.8082  -10.2820  -42.2926 H         1 UNK         0.0600 
    182 H182       -0.4197  -11.6473  -41.2440 H         1 UNK         0.0600 
    183 H183       -1.8465  -10.6667  -40.9304 H         1 UNK         0.0600 
    184 H184       -0.2318  -12.3716  -43.5888 H         1 UNK         0.3000 
    185 H185       -0.0308  -12.6763  -46.0490 H         1 UNK         0.0600 
    186 H186        1.0197  -14.2352  -44.4963 H         1 UNK         0.0600 
    187 H187       -0.2088  -15.4585  -44.7631 H         1 UNK         0.0600 
    188 H188        0.9805  -15.1086  -46.0126 H         1 UNK         0.0600 
    189 H189       -2.2483  -14.2587  -46.8313 H         1 UNK         0.3000 
    190 H190        0.4405  -23.7672  -44.9301 H         1 UNK         0.3000 
    191 H191       -1.0769  -21.5889  -43.8907 H         1 UNK         0.0600 
    192 H192       -0.7357  -24.4715  -42.9045 H         1 UNK         0.0600 
    193 H193       -1.4011  -23.1502  -41.9516 H         1 UNK         0.0600 
    194 H194        0.2727  -23.0895  -42.4696 H         1 UNK         0.0600 
    195 H195       -2.0664  -24.0986  -45.9658 H         1 UNK         0.3000 
    196 H196       -4.8529  -24.3402  -45.2347 H         1 UNK         0.0600 
    197 H197       -4.9791  -25.5365  -47.4244 H         1 UNK         0.0600 
    198 H198       -3.6508  -26.1354  -46.4444 H         1 UNK         0.0600 
    199 H199       -3.3292  -25.0529  -47.7990 H         1 UNK         0.0600 
    200 H200       -4.9243  -21.9088  -44.9719 H         1 UNK         0.3000 
    201 H201       -5.8130  -19.9272  -45.4536 H         1 UNK         0.0600 
    202 H202       -7.8057  -21.3250  -45.9855 H         1 UNK         0.0600 
    203 H203       -7.3087  -21.4242  -47.6727 H         1 UNK         0.0600 
    204 H204       -7.7744  -19.8771  -46.9770 H         1 UNK         0.0600 
    205 H205       -3.2629  -20.1879  -46.4324 H         1 UNK         0.3000 
    206 H206       -1.7037  -19.2548  -47.7248 H         1 UNK         0.0600 
    207 H207       -3.8769  -17.2673  -48.5749 H         1 UNK         0.0600 
    208 H208       -2.8289  -17.1104  -47.1662 H         1 UNK         0.0600 
    209 H209       -2.1543  -17.0525  -48.7827 H         1 UNK         0.0600 
    210 H210       -2.6071  -21.5350  -48.6364 H         1 UNK         0.3000 
    211 H211       -2.8070  -22.9716  -50.3210 H         1 UNK         0.0600 
    212 H212       -1.4670  -20.8113  -52.0378 H         1 UNK         0.0600 
    213 H213       -1.6377  -22.5023  -52.4759 H         1 UNK         0.0600 
    214 H214       -0.6359  -22.0531  -51.1148 H         1 UNK         0.0600 
    215 H215       -5.0833  -21.8262  -49.6522 H         1 UNK         0.3000 
    216 H216       -7.1641  -21.2198  -50.1361 H         1 UNK         0.0600 
    217 H217       -8.2416  -22.2518  -52.1166 H         1 UNK         0.0600 
    218 H218       -7.1536  -23.4018  -51.3550 H         1 UNK         0.0600 
    219 H219       -6.6753  -22.5851  -52.8416 H         1 UNK         0.0600 
    220 H220       -5.6562  -19.0979  -50.2056 H         1 UNK         0.3000 
    221 H221       -5.1581  -17.0686  -50.9439 H         1 UNK         0.0600 
    222 H222       -7.8187  -17.2140  -52.4636 H         1 UNK         0.0600 
    223 H223       -7.6325  -16.7723  -50.7669 H         1 UNK         0.0600 
    224 H224       -6.9531  -15.7485  -52.0219 H         1 UNK         0.0600 
    225 H225       -3.7167  -18.8635  -52.1625 H         1 UNK         0.3000 
    226 H226       -2.3336  -19.3979  -53.7507 H         1 UNK         0.0600 
    227 H227       -3.0336  -16.7945  -55.1968 H         1 UNK         0.0600 
    228 H228       -1.9197  -16.9061  -53.8362 H         1 UNK         0.0600 
    229 H229       -1.5516  -17.7272  -55.3454 H         1 UNK         0.0600 
    230 H230       -5.5083  -19.7496  -54.3075 H         1 UNK         0.3000 
    231 H231       -5.6207  -20.1387  -57.1534 H         1 UNK         0.0600 
    232 H232       -7.8233  -21.1037  -56.7141 H         1 UNK         0.0600 
    233 H233       -7.6304  -19.6763  -55.7067 H         1 UNK         0.0600 
    234 H234       -7.4686  -21.2879  -55.0044 H         1 UNK         0.0600 
    235 H235       -4.6131  -22.2180  -54.4642 H         1 UNK         0.3000 
    236 H236       -4.7707  -24.7137  -55.9348 H         1 UNK         0.0600 
    237 H237       -3.1934  -24.0314  -53.4025 H         1 UNK         0.0600 
    238 H238       -4.8758  -24.5597  -53.4251 H         1 UNK         0.0600 
    239 H239       -3.6037  -25.6376  -53.9815 H         1 UNK         0.0600 
    240 H240       -2.5688  -22.0688  -56.0143 H         1 UNK         0.3000 
    241 H241       -0.2087  -23.5769  -56.8005 H         1 UNK         0.0600 
    242 H242       -2.2349  -22.8034  -60.1863 H         1 UNK         0.3800 
    243 H243       -3.0089  -22.7897  -58.6219 H         1 UNK         0.3800 
    244 H244       -0.6348  -20.5541  -56.8936 H         1 UNK         0.0800 
    245 H245        0.8884  -21.4004  -57.0249 H         1 UNK         0.0800 
    246 H246        2.1824  -20.2315  -55.0190 H         1 UNK         0.0800 
    247 H247        0.8240  -19.1296  -55.1026 H         1 UNK         0.0800 
@<TRIPOS>BOND
     1    1    2 1    
     2    1  127 1    
     3    1  128 1    
     4    1  129 1    
     5    2    3 2    
     6    2    4 am   BACKBONE|DICT|INTERRES
     7    4    5 1    
     8    4  130 1    
     9    5    6 1    
    10    5   65 1    
    11    5  131 1    
    12    6    7 1    
    13    6  132 1    
    14    6  133 1    
    15    7    8 1    
    16    8    9 1    
    17    8  134 1    
    18    8  135 1    
    19    9   10 ar   
    20    9   14 ar   
    21   10   11 ar   
    22   10  136 1    
    23   11   12 ar   
    24   11  126 1    
    25   12   13 ar   
    26   12  137 1    
    27   13   14 ar   
    28   13   15 1    
    29   14  138 1    
    30   15   16 1    
    31   15  139 1    
    32   15  140 1    
    33   16   17 1    
    34   17   18 1    
    35   17  141 1    
    36   17  142 1    
    37   18   19 1    
    38   18   67 1    
    39   18  143 1    
    40   19   20 am   BACKBONE|DICT|INTERRES
    41   19  144 1    
    42   20   21 2    
    43   20   22 1    
    44   22   23 1    
    45   22   24 1    
    46   22  145 1    
    47   23  146 1    
    48   23  147 1    
    49   23  148 1    
    50   24   25 am   BACKBONE|DICT|INTERRES
    51   24  149 1    
    52   25   26 2    
    53   25   27 1    
    54   27   28 1    
    55   27   29 1    
    56   27  150 1    
    57   28  151 1    
    58   28  152 1    
    59   28  153 1    
    60   29   30 am   BACKBONE|DICT|INTERRES
    61   29  154 1    
    62   30   31 2    
    63   30   32 1    
    64   32   33 1    
    65   32   34 1    
    66   32  155 1    
    67   33  156 1    
    68   33  157 1    
    69   33  158 1    
    70   34   35 am   BACKBONE|DICT|INTERRES
    71   34  159 1    
    72   35   36 2    
    73   35   37 1    
    74   37   38 1    
    75   37   39 1    
    76   37  160 1    
    77   38  161 1    
    78   38  162 1    
    79   38  163 1    
    80   39   40 am   BACKBONE|DICT|INTERRES
    81   39  164 1    
    82   40   41 2    
    83   40   42 1    
    84   42   43 1    
    85   42   44 1    
    86   42  165 1    
    87   43  166 1    
    88   43  167 1    
    89   43  168 1    
    90   44   45 am   BACKBONE|DICT|INTERRES
    91   44  169 1    
    92   45   46 2    
    93   45   47 1    
    94   47   48 1    
    95   47   49 1    
    96   47  170 1    
    97   48  171 1    
    98   48  172 1    
    99   48  173 1    
   100   49   50 am   BACKBONE|DICT|INTERRES
   101   49  174 1    
   102   50   51 2    
   103   50   52 1    
   104   52   53 1    
   105   52   54 1    
   106   52  175 1    
   107   53  176 1    
   108   53  177 1    
   109   53  178 1    
   110   54   55 am   BACKBONE|DICT|INTERRES
   111   54  179 1    
   112   55   56 2    
   113   55   57 1    
   114   57   58 1    
   115   57   59 1    
   116   57  180 1    
   117   58  181 1    
   118   58  182 1    
   119   58  183 1    
   120   59   60 am   BACKBONE|DICT|INTERRES
   121   59  184 1    
   122   60   61 2    
   123   60   62 1    
   124   62   63 1    
   125   62   64 1    
   126   62  185 1    
   127   63  186 1    
   128   63  187 1    
   129   63  188 1    
   130   64   65 am   BACKBONE|DICT|INTERRES
   131   64  189 1    
   132   65   66 2    
   133   67   68 2    
   134   67   69 am   BACKBONE|DICT|INTERRES
   135   69   70 1    
   136   69  190 1    
   137   70   71 1    
   138   70   72 1    
   139   70  191 1    
   140   71  192 1    
   141   71  193 1    
   142   71  194 1    
   143   72   73 2    
   144   72   74 am   BACKBONE|DICT|INTERRES
   145   74   75 1    
   146   74  195 1    
   147   75   76 1    
   148   75   77 1    
   149   75  196 1    
   150   76  197 1    
   151   76  198 1    
   152   76  199 1    
   153   77   78 2    
   154   77   79 am   BACKBONE|DICT|INTERRES
   155   79   80 1    
   156   79  200 1    
   157   80   81 1    
   158   80   82 1    
   159   80  201 1    
   160   81  202 1    
   161   81  203 1    
   162   81  204 1    
   163   82   83 2    
   164   82   84 am   BACKBONE|DICT|INTERRES
   165   84   85 1    
   166   84  205 1    
   167   85   86 1    
   168   85   87 1    
   169   85  206 1    
   170   86  207 1    
   171   86  208 1    
   172   86  209 1    
   173   87   88 2    
   174   87   89 am   BACKBONE|DICT|INTERRES
   175   89   90 1    
   176   89  210 1    
   177   90   91 1    
   178   90   92 1    
   179   90  211 1    
   180   91  212 1    
   181   91  213 1    
   182   91  214 1    
   183   92   93 2    
   184   92   94 am   BACKBONE|DICT|INTERRES
   185   94   95 1    
   186   94  215 1    
   187   95   96 1    
   188   95   97 1    
   189   95  216 1    
   190   96  217 1    
   191   96  218 1    
   192   96  219 1    
   193   97   98 2    
   194   97   99 am   BACKBONE|DICT|INTERRES
   195   99  100 1    
   196   99  220 1    
   197  100  101 1    
   198  100  102 1    
   199  100  221 1    
   200  101  222 1    
   201  101  223 1    
   202  101  224 1    
   203  102  103 2    
   204  102  104 am   BACKBONE|DICT|INTERRES
   205  104  105 1    
   206  104  225 1    
   207  105  106 1    
   208  105  107 1    
   209  105  226 1    
   210  106  227 1    
   211  106  228 1    
   212  106  229 1    
   213  107  108 2    
   214  107  109 am   BACKBONE|DICT|INTERRES
   215  109  110 1    
   216  109  230 1    
   217  110  111 1    
   218  110  112 1    
   219  110  231 1    
   220  111  232 1    
   221  111  233 1    
   222  111  234 1    
   223  112  113 2    
   224  112  114 am   BACKBONE|DICT|INTERRES
   225  114  115 1    
   226  114  235 1    
   227  115  116 1    
   228  115  117 1    
   229  115  236 1    
   230  116  237 1    
   231  116  238 1    
   232  116  239 1    
   233  117  118 2    
   234  117  119 am   BACKBONE|DICT|INTERRES
   235  119  120 1    
   236  119  240 1    
   237  120  121 1    
   238  120  124 1    
   239  120  241 1    
   240  121  122 am   BACKBONE|DICT|INTERRES
   241  121  123 2    
   242  122  242 1    
   243  122  243 1    
   244  124  125 1    
   245  124  244 1    
   246  124  245 1    
   247  125  126 1    
   248  126  246 1    
   249  126  247 1    
@<TRIPOS>SUBSTRUCTURE
     1 UNK         1 GROUP             0       ****    0 ROOT    
