@<TRIPOS>MOLECULE
3R540
247   249    1
SMALL
USER_CHARGES


@<TRIPOS>ATOM
      1 CA         -3.8971  -14.6072  -48.4248 C.3       0 UNK        -0.1800 
      2 C          -3.0660  -15.4038  -47.4225 C.2       0 UNK         0.5000 
      3 O          -3.6257  -16.2072  -46.6805 O.2       0 UNK        -0.5000 
      4 N          -1.7431  -15.2193  -47.3497 N.am      1 UNK        -0.5000 
      5 CA         -0.9106  -14.2863  -48.1091 C.3       1 UNK         0.1400 
      6 C6         -0.0214  -15.0210  -49.1455 C.3       23 UNK        -0.0398 
      7 S7         -0.9862  -15.6139  -50.5763 S.3       23 UNK        -0.2404 
      8 C8         -1.2034  -17.3768  -50.1849 C.3       23 UNK        -0.0205 
      9 C9         -0.0521  -18.2247  -50.7030 C.ar      23 UNK        -0.0193 
     10 C10        -0.0121  -18.6081  -52.0453 C.ar      23 UNK        -0.1150 
     11 C11         0.9896  -19.4576  -52.5182 C.ar      23 UNK        -0.0193 
     12 C12         1.9783  -19.9070  -51.6380 C.ar      23 UNK        -0.1150 
     13 C13         1.9643  -19.5132  -50.2958 C.ar      23 UNK        -0.0193 
     14 C14         0.9483  -18.6699  -49.8375 C.ar      23 UNK        -0.1150 
     15 C15         3.0449  -20.0038  -49.3449 C.3       23 UNK        -0.0205 
     16 S16         2.5986  -21.5938  -48.5798 S.3       23 UNK        -0.2404 
     17 C17         1.6364  -21.0323  -47.1357 C.3       23 UNK        -0.0398 
     18 CA          1.0259  -22.2093  -46.3350 C.3       11 UNK         0.1400 
     19 N           0.9642  -21.9080  -44.9007 N.am      11 UNK        -0.5000 
     20 C           1.2815  -22.7691  -43.9243 C.2       10 UNK         0.5000 
     21 O           1.6587  -23.9234  -44.1290 O.2       10 UNK        -0.5000 
     22 CA          1.1703  -22.2685  -42.4696 C.3       10 UNK         0.1400 
     23 CB          2.5327  -21.7665  -41.9723 C.3       10 UNK        -0.1800 
     24 N           0.1753  -21.2117  -42.2839 N.am      10 UNK        -0.5000 
     25 C          -1.1476  -21.4083  -42.3425 C.2       9 UNK         0.5000 
     26 O          -1.6646  -22.5072  -42.5462 O.2       9 UNK        -0.5000 
     27 CA         -2.0515  -20.1720  -42.1665 C.3       9 UNK         0.1400 
     28 CB         -2.2977  -19.9023  -40.6740 C.3       9 UNK        -0.1800 
     29 N          -1.5802  -18.9338  -42.7977 N.am      9 UNK        -0.5000 
     30 C          -1.1448  -18.7816  -44.0561 C.2       8 UNK         0.5000 
     31 O          -0.9481  -19.7173  -44.8293 O.2       8 UNK        -0.5000 
     32 CA         -0.8960  -17.3447  -44.5431 C.3       8 UNK         0.1400 
     33 CB         -1.6987  -16.2776  -43.7726 C.3       8 UNK        -0.1800 
     34 N           0.5208  -17.0199  -44.4606 N.am      8 UNK        -0.5000 
     35 C           1.4480  -17.3327  -45.3724 C.2       7 UNK         0.5000 
     36 O           1.1974  -17.9037  -46.4297 O.2       7 UNK        -0.5000 
     37 CA          2.9022  -16.9493  -45.0551 C.3       7 UNK         0.1400 
     38 CB          3.1877  -15.5041  -45.4825 C.3       7 UNK        -0.1800 
     39 N           3.1884  -17.0818  -43.6283 N.am      7 UNK        -0.5000 
     40 C           3.8763  -18.0881  -43.0754 C.2       6 UNK         0.5000 
     41 O           4.3911  -19.0009  -43.7217 O.2       6 UNK        -0.5000 
     42 CA          4.0259  -18.0781  -41.5397 C.3       6 UNK         0.1400 
     43 CB          5.3887  -17.4923  -41.1397 C.3       6 UNK        -0.1800 
     44 N           2.9714  -17.3321  -40.8504 N.am      6 UNK        -0.5000 
     45 C           1.6884  -17.7102  -40.7797 C.2       5 UNK         0.5000 
     46 O           1.2537  -18.7546  -41.2642 O.2       5 UNK        -0.5000 
     47 CA          0.7152  -16.7362  -40.0873 C.3       5 UNK         0.1400 
     48 CB          0.5777  -17.0871  -38.5988 C.3       5 UNK        -0.1800 
     49 N           1.0586  -15.3129  -40.2219 N.am      5 UNK        -0.5000 
     50 C           1.2001  -14.6641  -41.3852 C.2       4 UNK         0.5000 
     51 O           1.1917  -15.2242  -42.4815 O.2       4 UNK        -0.5000 
     52 CA          1.3975  -13.1470  -41.3360 C.3       4 UNK         0.1400 
     53 CB          2.8739  -12.7841  -41.5588 C.3       4 UNK        -0.1800 
     54 N           0.5897  -12.5705  -42.4064 N.am      4 UNK        -0.5000 
     55 C          -0.2137  -11.5076  -42.2889 C.2       3 UNK         0.5000 
     56 O          -0.2973  -10.8296  -41.2628 O.2       3 UNK        -0.5000 
     57 CA         -1.0852  -11.1636  -43.5181 C.3       3 UNK         0.1400 
     58 CB         -1.6391   -9.7233  -43.4840 C.3       3 UNK        -0.1800 
     59 N          -0.4295  -11.4404  -44.8019 N.am      3 UNK        -0.5000 
     60 C           0.6902  -10.8850  -45.2875 C.2       2 UNK         0.5000 
     61 O           1.3325  -10.0194  -44.6913 O.2       2 UNK        -0.5000 
     62 CA          1.1750  -11.3384  -46.6852 C.3       2 UNK         0.1400 
     63 CB          2.6124  -11.8900  -46.6211 C.3       2 UNK        -0.1800 
     64 N           0.2953  -12.2681  -47.4166 N.am      2 UNK        -0.5000 
     65 C          -0.0424  -13.5242  -47.0917 C.2       1 UNK         0.5000 
     66 O           0.2872  -14.0716  -46.0383 O.2       1 UNK        -0.5000 
     67 C          -0.3608  -22.5952  -46.8877 C.2       11 UNK         0.5000 
     68 O          -0.4332  -23.3531  -47.8544 O.2       11 UNK        -0.5000 
     69 N          -1.4335  -22.0881  -46.2609 N.am      12 UNK        -0.5000 
     70 CA         -2.8431  -22.2171  -46.6450 C.3       12 UNK         0.1400 
     71 CB         -3.7140  -21.5936  -45.5433 C.3       12 UNK        -0.1800 
     72 C          -3.3284  -23.6463  -46.9467 C.2       12 UNK         0.5000 
     73 O          -4.2061  -23.8111  -47.7939 O.2       12 UNK        -0.5000 
     74 N          -2.7446  -24.6463  -46.2746 N.am      13 UNK        -0.5000 
     75 CA         -3.0201  -26.0672  -46.4918 C.3       13 UNK         0.1400 
     76 CB         -2.3789  -26.8767  -45.3546 C.3       13 UNK        -0.1800 
     77 C          -2.5368  -26.5870  -47.8618 C.2       13 UNK         0.5000 
     78 O          -3.1434  -27.5136  -48.4002 O.2       13 UNK        -0.5000 
     79 N          -1.4650  -25.9883  -48.3974 N.am      14 UNK        -0.5000 
     80 CA         -0.8854  -26.3152  -49.7003 C.3       14 UNK         0.1400 
     81 CB          0.6471  -26.3091  -49.5827 C.3       14 UNK        -0.1800 
     82 C          -1.3441  -25.3192  -50.7778 C.2       14 UNK         0.5000 
     83 O          -1.6093  -25.7264  -51.9088 O.2       14 UNK        -0.5000 
     84 N          -1.4397  -24.0357  -50.4056 N.am      15 UNK        -0.5000 
     85 CA         -1.8397  -22.9311  -51.2786 C.3       15 UNK         0.1400 
     86 CB         -1.4279  -21.6097  -50.6139 C.3       15 UNK        -0.1800 
     87 C          -3.3430  -22.9059  -51.6106 C.2       15 UNK         0.5000 
     88 O          -3.7344  -22.2164  -52.5538 O.2       15 UNK        -0.5000 
     89 N          -4.1460  -23.6397  -50.8250 N.am      16 UNK        -0.5000 
     90 CA         -5.6091  -23.6634  -50.8148 C.3       16 UNK         0.1400 
     91 CB         -6.1810  -24.2095  -52.1367 C.3       16 UNK        -0.1800 
     92 C          -6.1594  -22.2829  -50.4178 C.2       16 UNK         0.5000 
     93 O          -6.7496  -21.5760  -51.2365 O.2       16 UNK        -0.5000 
     94 N          -5.8959  -21.9204  -49.1553 N.am      17 UNK        -0.5000 
     95 CA         -6.2175  -20.6433  -48.5180 C.3       17 UNK         0.1400 
     96 CB         -7.7449  -20.4980  -48.3300 C.3       17 UNK        -0.1800 
     97 C          -5.5449  -19.4683  -49.2552 C.2       17 UNK         0.5000 
     98 O          -4.3177  -19.4585  -49.3754 O.2       17 UNK        -0.5000 
     99 N          -6.3436  -18.5131  -49.7459 N.am      18 UNK        -0.5000 
    100 CA        -5.9120  -17.3230  -50.4762 C.3       18 UNK         0.1400 
    101 CB        -7.0204  -16.2592  -50.3826 C.3       18 UNK        -0.1800 
    102 C         -5.4979  -17.6331  -51.9313 C.2       18 UNK         0.5000 
    103 O         -6.0667  -17.0743  -52.8707 O.2       18 UNK        -0.5000 
    104 N         -4.4930  -18.5058  -52.0774 N.am      19 UNK        -0.5000 
    105 CA        -3.7630  -18.8315  -53.3052 C.3       19 UNK         0.1400 
    106 CB        -3.0670  -17.5670  -53.8583 C.3       19 UNK        -0.1800 
    107 C         -4.6018  -19.5294  -54.3945 C.2       19 UNK         0.5000 
    108 O         -4.2425  -19.4405  -55.5697 O.2       19 UNK        -0.5000 
    109 N         -5.6840  -20.2323  -54.0312 N.am      20 UNK        -0.5000 
    110 CA        -6.5781  -20.8754  -55.0019 C.3       20 UNK         0.1400 
    111 CB        -7.8558  -21.3610  -54.3023 C.3       20 UNK        -0.1800 
    112 C         -5.9222  -22.0094  -55.8210 C.2       20 UNK         0.5000 
    113 O         -6.4178  -22.3209  -56.9050 O.2       20 UNK        -0.5000 
    114 N         -4.8227  -22.5869  -55.3156 N.am      21 UNK        -0.5000 
    115 CA        -4.0555  -23.6376  -55.9855 C.3       21 UNK         0.1400 
    116 CB        -3.7168  -24.7323  -54.9595 C.3       21 UNK        -0.1800 
    117 C         -2.7679  -23.1243  -56.6622 C.2       21 UNK         0.5000 
    118 O         -2.0844  -23.9326  -57.2940 O.2       21 UNK        -0.5000 
    119 N         -2.4229  -21.8352  -56.5211 N.am      22 UNK        -0.5000 
    120 CA        -1.1118  -21.3056  -56.9506 C.3       22 UNK         0.1400 
    121 C         -1.0688  -19.8113  -57.3784 C.2       22 UNK         0.5000 
    122 N         -2.1334  -19.0316  -57.2642 N.am      22 UNK        -0.7600 
    123 O         -0.0419  -19.3485  -57.8681 O.2       22 UNK        -0.5000 
    124 C124        0.0304  -21.6794  -55.9642 C.3       23 UNK        -0.0398 
    125 S125       -0.2910  -21.1806  -54.2369 S.3       23 UNK        -0.2404 
    126 C126        0.9784  -19.9063  -53.9711 C.3       23 UNK        -0.0205 
    127 H127       -4.9441  -14.9065  -48.3747 H         1 UNK         0.0600 
    128 H128       -3.5524  -14.7748  -49.4440 H         1 UNK         0.0600 
    129 H129       -3.8477  -13.5408  -48.2055 H         1 UNK         0.0600 
    130 H130       -1.2254  -15.6915  -46.6213 H         1 UNK         0.3000 
    131 H131       -1.5250  -13.5476  -48.6254 H         1 UNK         0.0600 
    132 H132        0.7437  -14.3503  -49.5409 H         1 UNK         0.0800 
    133 H133        0.5167  -15.8508  -48.6831 H         1 UNK         0.0800 
    134 H134       -2.1328  -17.7231  -50.6372 H         1 UNK         0.0800 
    135 H135       -1.3302  -17.5117  -49.1095 H         1 UNK         0.0800 
    136 H136       -0.7776  -18.2718  -52.7233 H         1 UNK         0.1150 
    137 H137        2.7530  -20.5719  -51.9932 H         1 UNK         0.1150 
    138 H138        0.9239  -18.3731  -48.8019 H         1 UNK         0.1150 
    139 H139        3.9816  -20.1287  -49.8900 H         1 UNK         0.0800 
    140 H140        3.2412  -19.2584  -48.5722 H         1 UNK         0.0800 
    141 H141        0.8698  -20.3230  -47.4511 H         1 UNK         0.0800 
    142 H142        2.3235  -20.4661  -46.5047 H         1 UNK         0.0800 
    143 H143        1.6691  -23.0806  -46.4757 H         1 UNK         0.0600 
    144 H144        0.5940  -20.9972  -44.6502 H         1 UNK         0.3000 
    145 H145        0.8793  -23.1199  -41.8507 H         1 UNK         0.0600 
    146 H146        2.4827  -21.4492  -40.9305 H         1 UNK         0.0600 
    147 H147        3.2887  -22.5497  -42.0402 H         1 UNK         0.0600 
    148 H148        2.8808  -20.9217  -42.5649 H         1 UNK         0.0600 
    149 H149        0.5246  -20.2801  -42.0675 H         1 UNK         0.3000 
    150 H150       -3.0111  -20.4117  -42.6280 H         1 UNK         0.0600 
    151 H151       -2.6718  -20.7947  -40.1704 H         1 UNK         0.0600 
    152 H152       -3.0388  -19.1159  -40.5301 H         1 UNK         0.0600 
    153 H153       -1.3814  -19.5983  -40.1660 H         1 UNK         0.0600 
    154 H154       -1.6841  -18.0990  -42.2423 H         1 UNK         0.3000 
    155 H155       -1.2119  -17.3128  -45.5866 H         1 UNK         0.0600 
    156 H156       -2.7677  -16.4926  -43.8037 H         1 UNK         0.0600 
    157 H157       -1.5578  -15.2923  -44.2176 H         1 UNK         0.0600 
    158 H158       -1.3994  -16.2058  -42.7270 H         1 UNK         0.0600 
    159 H159        0.8053  -16.4698  -43.6536 H         1 UNK         0.3000 
    160 H160        3.5495  -17.6059  -45.6402 H         1 UNK         0.0600 
    161 H161        2.6186  -14.7965  -44.8791 H         1 UNK         0.0600 
    162 H162        2.9191  -15.3406  -46.5271 H         1 UNK         0.0600 
    163 H163        4.2446  -15.2618  -45.3730 H         1 UNK         0.0600 
    164 H164        2.7551  -16.3948  -43.0225 H         1 UNK         0.3000 
    165 H165        3.9868  -19.1143  -41.1979 H         1 UNK         0.0600 
    166 H166        5.5418  -17.5487  -40.0618 H         1 UNK         0.0600 
    167 H167        6.2042  -18.0423  -41.6113 H         1 UNK         0.0600 
    168 H168        5.4808  -16.4475  -41.4392 H         1 UNK         0.0600 
    169 H169        3.2356  -16.4546  -40.4275 H         1 UNK         0.3000 
    170 H170       -0.2604  -16.8779  -40.5558 H         1 UNK         0.0600 
    171 H171       -0.1958  -16.4858  -38.1208 H         1 UNK         0.0600 
    172 H172        0.2996  -18.1339  -38.4674 H         1 UNK         0.0600 
    173 H173        1.5119  -16.9251  -38.0596 H         1 UNK         0.0600 
    174 H174        1.1016  -14.7840  -39.3624 H         1 UNK         0.3000 
    175 H175        1.0735  -12.7781  -40.3607 H         1 UNK         0.0600 
    176 H176        3.2394  -13.1536  -42.5182 H         1 UNK         0.0600 
    177 H177        3.0183  -11.7037  -41.5417 H         1 UNK         0.0600 
    178 H178        3.5047  -13.2106  -40.7780 H         1 UNK         0.0600 
    179 H179        0.5735  -13.1102  -43.2632 H         1 UNK         0.3000 
    180 H180       -1.9403  -11.8393  -43.4693 H         1 UNK         0.0600 
    181 H181       -0.8404   -8.9815  -43.4620 H         1 UNK         0.0600 
    182 H182       -2.2578   -9.5625  -42.6004 H         1 UNK         0.0600 
    183 H183       -2.2624   -9.5199  -44.3548 H         1 UNK         0.0600 
    184 H184       -0.8361  -12.1861  -45.3491 H         1 UNK         0.3000 
    185 H185        1.2042  -10.4321  -47.2919 H         1 UNK         0.0600 
    186 H186        3.3062  -11.1321  -46.2556 H         1 UNK         0.0600 
    187 H187        2.6845  -12.7424  -45.9485 H         1 UNK         0.0600 
    188 H188        2.9635  -12.2037  -47.6041 H         1 UNK         0.0600 
    189 H189       -0.0637  -11.8962  -48.2855 H         1 UNK         0.3000 
    190 H190       -1.2539  -21.4108  -45.5247 H         1 UNK         0.3000 
    191 H191       -2.9832  -21.6334  -47.5561 H         1 UNK         0.0600 
    192 H192       -3.5064  -22.0417  -44.5714 H         1 UNK         0.0600 
    193 H193       -4.7761  -21.7382  -45.7412 H         1 UNK         0.0600 
    194 H194       -3.5414  -20.5203  -45.4634 H         1 UNK         0.0600 
    195 H195       -2.0351  -24.4153  -45.5945 H         1 UNK         0.3000 
    196 H196       -4.1016  -26.2125  -46.4474 H         1 UNK         0.0600 
    197 H197       -2.5846  -27.9419  -45.4686 H         1 UNK         0.0600 
    198 H198       -2.7715  -26.5732  -44.3839 H         1 UNK         0.0600 
    199 H199       -1.2954  -26.7517  -45.3332 H         1 UNK         0.0600 
    200 H200       -1.0596  -25.1909  -47.9176 H         1 UNK         0.3000 
    201 H201       -1.1947  -27.3149  -50.0125 H         1 UNK         0.0600 
    202 H202        1.0262  -25.3334  -49.2753 H         1 UNK         0.0600 
    203 H203        1.1127  -26.5566  -50.5375 H         1 UNK         0.0600 
    204 H204        0.9879  -27.0446  -48.8540 H         1 UNK         0.0600 
    205 H205       -1.1454  -23.7807  -49.4654 H         1 UNK         0.3000 
    206 H206       -1.2989  -23.0309  -52.2205 H         1 UNK         0.0600 
    207 H207       -0.3525  -21.5724  -50.4387 H         1 UNK         0.0600 
    208 H208       -1.6839  -20.7605  -51.2471 H         1 UNK         0.0600 
    209 H209       -1.9295  -21.4631  -49.6579 H         1 UNK         0.0600 
    210 H210       -3.7088  -24.1274  -50.0547 H         1 UNK         0.3000 
    211 H211       -5.9036  -24.3586  -50.0270 H         1 UNK         0.0600 
    212 H212       -5.9141  -23.5859  -52.9868 H         1 UNK         0.0600 
    213 H213       -7.2695  -24.2594  -52.0972 H         1 UNK         0.0600 
    214 H214       -5.8155  -25.2172  -52.3328 H         1 UNK         0.0600 
    215 H215       -5.3506  -22.5700  -48.5940 H         1 UNK         0.3000 
    216 H216       -5.7681  -20.6669  -47.5264 H         1 UNK         0.0600 
    217 H217       -7.9901  -19.5903  -47.7770 H         1 UNK         0.0600 
    218 H218       -8.1446  -21.3352  -47.7577 H         1 UNK         0.0600 
    219 H219       -8.2795  -20.4670  -49.2800 H         1 UNK         0.0600 
    220 H220       -7.3409  -18.6342  -49.6469 H         1 UNK         0.3000 
    221 H221       -5.0279  -16.9196  -49.9783 H         1 UNK         0.0600 
    222 H222       -7.9432  -16.5958  -50.8565 H         1 UNK         0.0600 
    223 H223       -7.2457  -16.0147  -49.3443 H         1 UNK         0.0600 
    224 H224       -6.7163  -15.3331  -50.8723 H         1 UNK         0.0600 
    225 H225       -4.1601  -18.9591  -51.2304 H         1 UNK         0.3000 
    226 H226       -2.9873  -19.5409  -53.0148 H         1 UNK         0.0600 
    227 H227       -2.5912  -16.9872  -53.0680 H         1 UNK         0.0600 
    228 H228       -2.2956  -17.8311  -54.5825 H         1 UNK         0.0600 
    229 H229       -3.7734  -16.9072  -54.3634 H         1 UNK         0.0600 
    230 H230       -5.9058  -20.3442  -53.0494 H         1 UNK         0.3000 
    231 H231       -6.8757  -20.1056  -55.7171 H         1 UNK         0.0600 
    232 H232       -8.3259  -20.5590  -53.7328 H         1 UNK         0.0600 
    233 H233       -7.6575  -22.1851  -53.6201 H         1 UNK         0.0600 
    234 H234       -8.5862  -21.7142  -55.0311 H         1 UNK         0.0600 
    235 H235       -4.4851  -22.2902  -54.4033 H         1 UNK         0.3000 
    236 H236       -4.6586  -24.1010  -56.7687 H         1 UNK         0.0600 
    237 H237       -4.6175  -25.1317  -54.4954 H         1 UNK         0.0600 
    238 H238       -3.2036  -25.5701  -55.4329 H         1 UNK         0.0600 
    239 H239       -3.0648  -24.3586  -54.1702 H         1 UNK         0.0600 
    240 H240       -3.0323  -21.2017  -56.0210 H         1 UNK         0.3000 
    241 H241       -0.8729  -21.8072  -57.8905 H         1 UNK         0.0600 
    242 H242       -2.9826  -19.3261  -56.7861 H         1 UNK         0.3800 
    243 H243       -2.0636  -18.0779  -57.5793 H         1 UNK         0.3800 
    244 H244        0.9872  -21.2766  -56.3003 H         1 UNK         0.0800 
    245 H245        0.1643  -22.7617  -55.9649 H         1 UNK         0.0800 
    246 H246        0.7809  -19.0535  -54.6226 H         1 UNK         0.0800 
    247 H247        1.9562  -20.2989  -54.2540 H         1 UNK         0.0800 
@<TRIPOS>BOND
     1    1    2 1    
     2    1  127 1    
     3    1  128 1    
     4    1  129 1    
     5    2    3 2    
     6    2    4 am   BACKBONE|DICT|INTERRES
     7    4    5 1    
     8    4  130 1    
     9    5    6 1    
    10    5   65 1    
    11    5  131 1    
    12    6    7 1    
    13    6  132 1    
    14    6  133 1    
    15    7    8 1    
    16    8    9 1    
    17    8  134 1    
    18    8  135 1    
    19    9   10 ar   
    20    9   14 ar   
    21   10   11 ar   
    22   10  136 1    
    23   11   12 ar   
    24   11  126 1    
    25   12   13 ar   
    26   12  137 1    
    27   13   14 ar   
    28   13   15 1    
    29   14  138 1    
    30   15   16 1    
    31   15  139 1    
    32   15  140 1    
    33   16   17 1    
    34   17   18 1    
    35   17  141 1    
    36   17  142 1    
    37   18   19 1    
    38   18   67 1    
    39   18  143 1    
    40   19   20 am   BACKBONE|DICT|INTERRES
    41   19  144 1    
    42   20   21 2    
    43   20   22 1    
    44   22   23 1    
    45   22   24 1    
    46   22  145 1    
    47   23  146 1    
    48   23  147 1    
    49   23  148 1    
    50   24   25 am   BACKBONE|DICT|INTERRES
    51   24  149 1    
    52   25   26 2    
    53   25   27 1    
    54   27   28 1    
    55   27   29 1    
    56   27  150 1    
    57   28  151 1    
    58   28  152 1    
    59   28  153 1    
    60   29   30 am   BACKBONE|DICT|INTERRES
    61   29  154 1    
    62   30   31 2    
    63   30   32 1    
    64   32   33 1    
    65   32   34 1    
    66   32  155 1    
    67   33  156 1    
    68   33  157 1    
    69   33  158 1    
    70   34   35 am   BACKBONE|DICT|INTERRES
    71   34  159 1    
    72   35   36 2    
    73   35   37 1    
    74   37   38 1    
    75   37   39 1    
    76   37  160 1    
    77   38  161 1    
    78   38  162 1    
    79   38  163 1    
    80   39   40 am   BACKBONE|DICT|INTERRES
    81   39  164 1    
    82   40   41 2    
    83   40   42 1    
    84   42   43 1    
    85   42   44 1    
    86   42  165 1    
    87   43  166 1    
    88   43  167 1    
    89   43  168 1    
    90   44   45 am   BACKBONE|DICT|INTERRES
    91   44  169 1    
    92   45   46 2    
    93   45   47 1    
    94   47   48 1    
    95   47   49 1    
    96   47  170 1    
    97   48  171 1    
    98   48  172 1    
    99   48  173 1    
   100   49   50 am   BACKBONE|DICT|INTERRES
   101   49  174 1    
   102   50   51 2    
   103   50   52 1    
   104   52   53 1    
   105   52   54 1    
   106   52  175 1    
   107   53  176 1    
   108   53  177 1    
   109   53  178 1    
   110   54   55 am   BACKBONE|DICT|INTERRES
   111   54  179 1    
   112   55   56 2    
   113   55   57 1    
   114   57   58 1    
   115   57   59 1    
   116   57  180 1    
   117   58  181 1    
   118   58  182 1    
   119   58  183 1    
   120   59   60 am   BACKBONE|DICT|INTERRES
   121   59  184 1    
   122   60   61 2    
   123   60   62 1    
   124   62   63 1    
   125   62   64 1    
   126   62  185 1    
   127   63  186 1    
   128   63  187 1    
   129   63  188 1    
   130   64   65 am   BACKBONE|DICT|INTERRES
   131   64  189 1    
   132   65   66 2    
   133   67   68 2    
   134   67   69 am   BACKBONE|DICT|INTERRES
   135   69   70 1    
   136   69  190 1    
   137   70   71 1    
   138   70   72 1    
   139   70  191 1    
   140   71  192 1    
   141   71  193 1    
   142   71  194 1    
   143   72   73 2    
   144   72   74 am   BACKBONE|DICT|INTERRES
   145   74   75 1    
   146   74  195 1    
   147   75   76 1    
   148   75   77 1    
   149   75  196 1    
   150   76  197 1    
   151   76  198 1    
   152   76  199 1    
   153   77   78 2    
   154   77   79 am   BACKBONE|DICT|INTERRES
   155   79   80 1    
   156   79  200 1    
   157   80   81 1    
   158   80   82 1    
   159   80  201 1    
   160   81  202 1    
   161   81  203 1    
   162   81  204 1    
   163   82   83 2    
   164   82   84 am   BACKBONE|DICT|INTERRES
   165   84   85 1    
   166   84  205 1    
   167   85   86 1    
   168   85   87 1    
   169   85  206 1    
   170   86  207 1    
   171   86  208 1    
   172   86  209 1    
   173   87   88 2    
   174   87   89 am   BACKBONE|DICT|INTERRES
   175   89   90 1    
   176   89  210 1    
   177   90   91 1    
   178   90   92 1    
   179   90  211 1    
   180   91  212 1    
   181   91  213 1    
   182   91  214 1    
   183   92   93 2    
   184   92   94 am   BACKBONE|DICT|INTERRES
   185   94   95 1    
   186   94  215 1    
   187   95   96 1    
   188   95   97 1    
   189   95  216 1    
   190   96  217 1    
   191   96  218 1    
   192   96  219 1    
   193   97   98 2    
   194   97   99 am   BACKBONE|DICT|INTERRES
   195   99  100 1    
   196   99  220 1    
   197  100  101 1    
   198  100  102 1    
   199  100  221 1    
   200  101  222 1    
   201  101  223 1    
   202  101  224 1    
   203  102  103 2    
   204  102  104 am   BACKBONE|DICT|INTERRES
   205  104  105 1    
   206  104  225 1    
   207  105  106 1    
   208  105  107 1    
   209  105  226 1    
   210  106  227 1    
   211  106  228 1    
   212  106  229 1    
   213  107  108 2    
   214  107  109 am   BACKBONE|DICT|INTERRES
   215  109  110 1    
   216  109  230 1    
   217  110  111 1    
   218  110  112 1    
   219  110  231 1    
   220  111  232 1    
   221  111  233 1    
   222  111  234 1    
   223  112  113 2    
   224  112  114 am   BACKBONE|DICT|INTERRES
   225  114  115 1    
   226  114  235 1    
   227  115  116 1    
   228  115  117 1    
   229  115  236 1    
   230  116  237 1    
   231  116  238 1    
   232  116  239 1    
   233  117  118 2    
   234  117  119 am   BACKBONE|DICT|INTERRES
   235  119  120 1    
   236  119  240 1    
   237  120  121 1    
   238  120  124 1    
   239  120  241 1    
   240  121  122 am   BACKBONE|DICT|INTERRES
   241  121  123 2    
   242  122  242 1    
   243  122  243 1    
   244  124  125 1    
   245  124  244 1    
   246  124  245 1    
   247  125  126 1    
   248  126  246 1    
   249  126  247 1    
@<TRIPOS>SUBSTRUCTURE
     1 UNK         1 GROUP             0       ****    0 ROOT    
