@<TRIPOS>MOLECULE
3R540
247   249    1
SMALL
USER_CHARGES


@<TRIPOS>ATOM
      1 CA         -1.7873  -13.3679  -49.0697 C.3       0 UNK        -0.1800 
      2 C          -0.5260  -12.5160  -49.0605 C.2       0 UNK         0.5000 
      3 O          -0.4990  -11.4566  -49.6876 O.2       0 UNK        -0.5000 
      4 N           0.5169  -12.9735  -48.3577 N.am      1 UNK        -0.5000 
      5 CA          1.7822  -12.2546  -48.1836 C.3       1 UNK         0.1400 
      6 C6          2.9300  -13.1890  -47.7283 C.3       23 UNK        -0.0398 
      7 S7          3.2811  -14.5121  -48.9374 S.3       23 UNK        -0.2404 
      8 C8          2.7161  -15.9934  -48.0414 C.3       23 UNK        -0.0205 
      9 C9          1.9617  -16.9480  -48.9540 C.ar      23 UNK        -0.0193 
     10 C10         0.6966  -16.5992  -49.4350 C.ar      23 UNK        -0.1150 
     11 C11        -0.0412  -17.4912  -50.2149 C.ar      23 UNK        -0.0193 
     12 C12         0.5102  -18.7318  -50.5433 C.ar      23 UNK        -0.1150 
     13 C13         1.7753  -19.0967  -50.0711 C.ar      23 UNK        -0.0193 
     14 C14         2.4966  -18.1986  -49.2767 C.ar      23 UNK        -0.1150 
     15 C15         2.3590  -20.4662  -50.4018 C.3       23 UNK        -0.0205 
     16 S16         1.2716  -21.8480  -49.9116 S.3       23 UNK        -0.2404 
     17 C17         0.9641  -21.4580  -48.1552 C.3       23 UNK        -0.0398 
     18 CA          0.3969  -22.6348  -47.3246 C.3       11 UNK         0.1400 
     19 N           0.3455  -22.2938  -45.9011 N.am      11 UNK        -0.5000 
     20 C           0.0141  -23.1334  -44.9106 C.2       10 UNK         0.5000 
     21 O          -0.2484  -24.3235  -45.0783 O.2       10 UNK        -0.5000 
     22 CA         -0.0864  -22.5313  -43.4980 C.3       10 UNK         0.1400 
     23 CB          1.3082  -22.3583  -42.8787 C.3       10 UNK        -0.1800 
     24 N          -0.8016  -21.2540  -43.4754 N.am      10 UNK        -0.5000 
     25 C          -2.0867  -21.0976  -43.8268 C.2       9 UNK         0.5000 
     26 O          -2.8155  -22.0212  -44.1863 O.2       9 UNK        -0.5000 
     27 CA         -2.6417  -19.6627  -43.8247 C.3       9 UNK         0.1400 
     28 CB         -2.9456  -19.1902  -42.3953 C.3       9 UNK        -0.1800 
     29 N          -1.7428  -18.7127  -44.4773 N.am      9 UNK        -0.5000 
     30 C          -1.3708  -18.7747  -45.7636 C.2       8 UNK         0.5000 
     31 O          -1.7731  -19.6242  -46.5586 O.2       8 UNK        -0.5000 
     32 CA         -0.3288  -17.7428  -46.2229 C.3       8 UNK         0.1400 
     33 CB         -0.9803  -16.3687  -46.4458 C.3       8 UNK        -0.1800 
     34 N           0.7854  -17.6232  -45.2814 N.am      8 UNK        -0.5000 
     35 C           1.6302  -18.6222  -44.9837 C.2       7 UNK         0.5000 
     36 O           1.5957  -19.7321  -45.5121 O.2       7 UNK        -0.5000 
     37 CA          2.6491  -18.3563  -43.8650 C.3       7 UNK         0.1400 
     38 CB          3.8847  -17.6281  -44.4143 C.3       7 UNK        -0.1800 
     39 N           2.0569  -17.5927  -42.7661 N.am      7 UNK        -0.5000 
     40 C           1.1287  -18.0817  -41.9291 C.2       6 UNK         0.5000 
     41 O           0.7140  -19.2396  -41.9709 O.2       6 UNK        -0.5000 
     42 CA          0.5278  -17.1012  -40.9051 C.3       6 UNK         0.1400 
     43 CB          1.4059  -17.0259  -39.6475 C.3       6 UNK        -0.1800 
     44 N           0.3493  -15.7569  -41.4541 N.am      6 UNK        -0.5000 
     45 C          -0.4917  -15.4476  -42.4517 C.2       5 UNK         0.5000 
     46 O          -1.2579  -16.2586  -42.9704 O.2       5 UNK        -0.5000 
     47 CA         -0.4254  -14.0066  -42.9934 C.3       5 UNK         0.1400 
     48 CB         -1.4434  -13.1092  -42.2757 C.3       5 UNK        -0.1800 
     49 N           0.9096  -13.4175  -42.8682 N.am      5 UNK        -0.5000 
     50 C           1.9983  -13.8361  -43.5247 C.2       4 UNK         0.5000 
     51 O           1.9720  -14.7522  -44.3498 O.2       4 UNK        -0.5000 
     52 CA          3.3292  -13.1381  -43.1648 C.3       4 UNK         0.1400 
     53 CB          4.5070  -13.6055  -44.0376 C.3       4 UNK        -0.1800 
     54 N           3.2481  -11.6788  -43.2337 N.am      4 UNK        -0.5000 
     55 C           2.6777  -10.8608  -42.3420 C.2       3 UNK         0.5000 
     56 O           2.1099  -11.2642  -41.3259 O.2       3 UNK        -0.5000 
     57 CA          2.7136   -9.3465  -42.6399 C.3       3 UNK         0.1400 
     58 CB          4.0534   -8.7246  -42.2021 C.3       3 UNK        -0.1800 
     59 N           2.3767   -8.9896  -44.0269 N.am      3 UNK        -0.5000 
     60 C           3.0507   -9.2620  -45.1522 C.2       2 UNK         0.5000 
     61 O           4.1372   -9.8451  -45.1882 O.2       2 UNK        -0.5000 
     62 CA          2.3720   -8.8570  -46.4726 C.3       2 UNK         0.1400 
     63 CB          3.1267   -7.6992  -47.1436 C.3       2 UNK        -0.1800 
     64 N           2.3129   -9.9946  -47.3911 N.am      2 UNK        -0.5000 
     65 C           1.6002  -11.1074  -47.1706 C.2       1 UNK         0.5000 
     66 O           0.8513  -11.2595  -46.2014 O.2       1 UNK        -0.5000 
     67 C          -0.9781  -23.1121  -47.8392 C.2       11 UNK         0.5000 
     68 O          -1.0628  -24.1846  -48.4399 O.2       11 UNK        -0.5000 
     69 N          -2.0349  -22.3396  -47.5476 N.am      12 UNK        -0.5000 
     70 CA         -3.4103  -22.6597  -47.9248 C.3       12 UNK         0.1400 
     71 CB         -4.3264  -21.4676  -47.6144 C.3       12 UNK        -0.1800 
     72 C          -3.9365  -23.9459  -47.2625 C.2       12 UNK         0.5000 
     73 O          -4.5998  -24.7379  -47.9322 O.2       12 UNK        -0.5000 
     74 N          -3.6065  -24.1486  -45.9790 N.am      13 UNK        -0.5000 
     75 CA         -3.9398  -25.3511  -45.2148 C.3       13 UNK         0.1400 
     76 CB         -3.6293  -25.1258  -43.7276 C.3       13 UNK        -0.1800 
     77 C          -3.2200  -26.6073  -45.7357 C.2       13 UNK         0.5000 
     78 O          -3.8470  -27.6625  -45.8291 O.2       13 UNK        -0.5000 
     79 N          -1.9341  -26.4698  -46.0911 N.am      14 UNK        -0.5000 
     80 CA         -1.1190  -27.5314  -46.6856 C.3       14 UNK         0.1400 
     81 CB          0.3541  -27.0967  -46.7195 C.3       14 UNK        -0.1800 
     82 C          -1.6029  -27.9314  -48.0910 C.2       14 UNK         0.5000 
     83 O          -1.6255  -29.1209  -48.4099 O.2       14 UNK        -0.5000 
     84 N          -2.0064  -26.9364  -48.8930 N.am      15 UNK        -0.5000 
     85 CA         -2.6131  -27.1278  -50.2109 C.3       15 UNK         0.1400 
     86 CB         -2.6336  -25.7839  -50.9500 C.3       15 UNK        -0.1800 
     87 C          -4.0361  -27.7155  -50.1448 C.2       15 UNK         0.5000 
     88 O          -4.4633  -28.3690  -51.0971 O.2       15 UNK        -0.5000 
     89 N          -4.7494  -27.4455  -49.0418 N.am      16 UNK        -0.5000 
     90 CA         -6.1195  -27.8361  -48.6825 C.3       16 UNK         0.1400 
     91 CB         -6.2889  -29.3665  -48.6650 C.3       16 UNK        -0.1800 
     92 C          -7.2086  -27.1558  -49.5344 C.2       16 UNK         0.5000 
     93 O          -8.1922  -26.6620  -48.9833 O.2       16 UNK        -0.5000 
     94 N          -6.9963  -27.1035  -50.8529 N.am      17 UNK        -0.5000 
     95 CA         -7.8309  -26.4182  -51.8409 C.3       17 UNK         0.1400 
     96 CB         -7.8261  -27.2526  -53.1335 C.3       17 UNK        -0.1800 
     97 C          -7.3529  -24.9736  -52.1063 C.2       17 UNK         0.5000 
     98 O          -7.7483  -24.3796  -53.1108 O.2       17 UNK        -0.5000 
     99 N          -6.4791  -24.4472  -51.2344 N.am      18 UNK        -0.5000 
    100 CA        -5.7734  -23.1607  -51.2858 C.3       18 UNK         0.1400 
    101 CB        -6.7379  -21.9617  -51.3503 C.3       18 UNK        -0.1800 
    102 C         -4.7023  -23.0953  -52.3903 C.2       18 UNK         0.5000 
    103 O         -3.5563  -22.7657  -52.0880 O.2       18 UNK        -0.5000 
    104 N         -5.0876  -23.4376  -53.6279 N.am      19 UNK        -0.5000 
    105 CA        -4.2998  -23.6370  -54.8554 C.3       19 UNK         0.1400 
    106 CB        -3.3454  -24.8334  -54.6878 C.3       19 UNK        -0.1800 
    107 C         -3.5324  -22.4133  -55.4023 C.2       19 UNK         0.5000 
    108 O         -3.4092  -22.2797  -56.6210 O.2       19 UNK        -0.5000 
    109 N         -3.0107  -21.5649  -54.5127 N.am      20 UNK        -0.5000 
    110 CA        -2.2188  -20.3742  -54.8058 C.3       20 UNK         0.1400 
    111 CB        -1.6546  -19.8383  -53.4807 C.3       20 UNK        -0.1800 
    112 C         -3.0128  -19.2733  -55.5335 C.2       20 UNK         0.5000 
    113 O         -4.2420  -19.2168  -55.4442 O.2       20 UNK        -0.5000 
    114 N         -2.2720  -18.3722  -56.1908 N.am      21 UNK        -0.5000 
    115 CA        -2.7857  -17.2065  -56.9190 C.3       21 UNK         0.1400 
    116 CB        -1.6642  -16.6651  -57.8212 C.3       21 UNK        -0.1800 
    117 C         -3.3503  -16.0859  -56.0164 C.2       21 UNK         0.5000 
    118 O         -3.8699  -15.0986  -56.5384 O.2       21 UNK        -0.5000 
    119 N         -3.2354  -16.2474  -54.6918 N.am      22 UNK        -0.5000 
    120 CA        -3.7371  -15.3322  -53.6542 C.3       22 UNK         0.1400 
    121 C         -5.2817  -15.1247  -53.6467 C.2       22 UNK         0.5000 
    122 N         -6.0752  -16.0265  -54.2131 N.am      22 UNK        -0.7600 
    123 O         -5.7652  -14.1300  -53.1133 O.2       22 UNK        -0.5000 
    124 C124       -3.2715  -15.7647  -52.2399 C.3       23 UNK        -0.0398 
    125 S125       -1.4711  -16.0321  -52.0933 S.3       23 UNK        -0.2404 
    126 C126       -1.4533  -17.1340  -50.6477 C.3       23 UNK        -0.0205 
    127 H127       -2.0184  -13.6780  -50.0881 H         1 UNK         0.0600 
    128 H128       -1.6809  -14.2620  -48.4571 H         1 UNK         0.0600 
    129 H129       -2.6312  -12.7938  -48.6873 H         1 UNK         0.0600 
    130 H130        0.4248  -13.8216  -47.8218 H         1 UNK         0.3000 
    131 H131        2.0617  -11.8201  -49.1461 H         1 UNK         0.0600 
    132 H132        2.7079  -13.6206  -46.7518 H         1 UNK         0.0800 
    133 H133        3.8521  -12.6191  -47.5992 H         1 UNK         0.0800 
    134 H134        3.5809  -16.4845  -47.5930 H         1 UNK         0.0800 
    135 H135        2.0640  -15.7210  -47.2122 H         1 UNK         0.0800 
    136 H136        0.2734  -15.6393  -49.1834 H         1 UNK         0.1150 
    137 H137       -0.0564  -19.4305  -51.1406 H         1 UNK         0.1150 
    138 H138        3.4694  -18.4780  -48.8975 H         1 UNK         0.1150 
    139 H139        2.5388  -20.5228  -51.4760 H         1 UNK         0.0800 
    140 H140        3.3289  -20.5993  -49.9202 H         1 UNK         0.0800 
    141 H141        0.3002  -20.5939  -48.0986 H         1 UNK         0.0800 
    142 H142        1.9130  -21.1379  -47.7231 H         1 UNK         0.0800 
    143 H143        1.0880  -23.4747  -47.4219 H         1 UNK         0.0600 
    144 H144        0.5852  -21.3341  -45.6656 H         1 UNK         0.3000 
    145 H145       -0.6464  -23.2346  -42.8784 H         1 UNK         0.0600 
    146 H146        1.2404  -22.0186  -41.8451 H         1 UNK         0.0600 
    147 H147        1.8546  -23.3022  -42.8757 H         1 UNK         0.0600 
    148 H148        1.9069  -21.6329  -43.4302 H         1 UNK         0.0600 
    149 H149       -0.2776  -20.4466  -43.1508 H         1 UNK         0.3000 
    150 H150       -3.5782  -19.6691  -44.3860 H         1 UNK         0.0600 
    151 H151       -3.6387  -19.8704  -41.8987 H         1 UNK         0.0600 
    152 H152       -3.4042  -18.2012  -42.3968 H         1 UNK         0.0600 
    153 H153       -2.0431  -19.1380  -41.7862 H         1 UNK         0.0600 
    154 H154       -1.3965  -17.9470  -43.9060 H         1 UNK         0.3000 
    155 H155        0.0782  -18.0943  -47.1715 H         1 UNK         0.0600 
    156 H156       -1.4922  -16.0083  -45.5546 H         1 UNK         0.0600 
    157 H157       -1.7215  -16.4227  -47.2436 H         1 UNK         0.0600 
    158 H158       -0.2453  -15.6174  -46.7287 H         1 UNK         0.0600 
    159 H159        0.8968  -16.7378  -44.8046 H         1 UNK         0.3000 
    160 H160        2.9750  -19.3207  -43.4697 H         1 UNK         0.0600 
    161 H161        4.6041  -17.4141  -43.6239 H         1 UNK         0.0600 
    162 H162        3.6222  -16.6874  -44.8972 H         1 UNK         0.0600 
    163 H163        4.3929  -18.2411  -45.1597 H         1 UNK         0.0600 
    164 H164        2.3093  -16.6179  -42.7020 H         1 UNK         0.3000 
    165 H165       -0.4538  -17.4818  -40.6153 H         1 UNK         0.0600 
    166 H166        0.9510  -16.3915  -38.8865 H         1 UNK         0.0600 
    167 H167        1.5404  -18.0146  -39.2066 H         1 UNK         0.0600 
    168 H168        2.3968  -16.6276  -39.8692 H         1 UNK         0.0600 
    169 H169        0.9353  -15.0268  -41.0772 H         1 UNK         0.3000 
    170 H170       -0.6825  -14.0384  -44.0542 H         1 UNK         0.0600 
    171 H171       -2.4529  -13.5121  -42.3688 H         1 UNK         0.0600 
    172 H172       -1.2213  -13.0186  -41.2117 H         1 UNK         0.0600 
    173 H173       -1.4534  -12.1064  -42.7032 H         1 UNK         0.0600 
    174 H174        1.0238  -12.6573  -42.2052 H         1 UNK         0.3000 
    175 H175        3.5575  -13.4179  -42.1345 H         1 UNK         0.0600 
    176 H176        4.3617  -13.3464  -45.0856 H         1 UNK         0.0600 
    177 H177        5.4416  -13.1495  -43.7105 H         1 UNK         0.0600 
    178 H178        4.6403  -14.6856  -43.9769 H         1 UNK         0.0600 
    179 H179        3.6723  -11.2381  -44.0458 H         1 UNK         0.3000 
    180 H180        1.9331   -8.8939  -42.0261 H         1 UNK         0.0600 
    181 H181        4.8995   -9.1456  -42.7458 H         1 UNK         0.0600 
    182 H182        4.2325   -8.8994  -41.1405 H         1 UNK         0.0600 
    183 H183        4.0571   -7.6460  -42.3586 H         1 UNK         0.0600 
    184 H184        1.4766   -8.5411  -44.1288 H         1 UNK         0.3000 
    185 H185        1.3502   -8.5298  -46.2688 H         1 UNK         0.0600 
    186 H186        3.1714   -6.8305  -46.4856 H         1 UNK         0.0600 
    187 H187        4.1523   -7.9758  -47.3918 H         1 UNK         0.0600 
    188 H188        2.6316   -7.3849  -48.0626 H         1 UNK         0.0600 
    189 H189        2.9254   -9.9510  -48.1926 H         1 UNK         0.3000 
    190 H190       -1.8908  -21.4598  -47.0578 H         1 UNK         0.3000 
    191 H191       -3.4134  -22.8191  -49.0041 H         1 UNK         0.0600 
    192 H192       -4.3247  -21.2268  -46.5506 H         1 UNK         0.0600 
    193 H193       -5.3564  -21.6789  -47.9047 H         1 UNK         0.0600 
    194 H194       -4.0106  -20.5774  -48.1587 H         1 UNK         0.0600 
    195 H195       -3.1048  -23.4195  -45.4787 H         1 UNK         0.3000 
    196 H196       -5.0140  -25.5210  -45.3131 H         1 UNK         0.0600 
    197 H197       -2.5739  -24.9046  -43.5657 H         1 UNK         0.0600 
    198 H198       -3.8751  -26.0096  -43.1377 H         1 UNK         0.0600 
    199 H199       -4.2103  -24.2955  -43.3260 H         1 UNK         0.0600 
    200 H200       -1.4709  -25.5793  -45.9315 H         1 UNK         0.3000 
    201 H201       -1.1968  -28.4123  -46.0451 H         1 UNK         0.0600 
    202 H202        0.7291  -26.9001  -45.7150 H         1 UNK         0.0600 
    203 H203        0.4939  -26.1913  -47.3111 H         1 UNK         0.0600 
    204 H204        0.9821  -27.8750  -47.1546 H         1 UNK         0.0600 
    205 H205       -1.8803  -25.9768  -48.5828 H         1 UNK         0.3000 
    206 H206       -1.9930  -27.8235  -50.7797 H         1 UNK         0.0600 
    207 H207       -1.6251  -25.4006  -51.1059 H         1 UNK         0.0600 
    208 H208       -3.1006  -25.8842  -51.9296 H         1 UNK         0.0600 
    209 H209       -3.1927  -25.0306  -50.3946 H         1 UNK         0.0600 
    210 H210       -4.3193  -26.8133  -48.3768 H         1 UNK         0.3000 
    211 H211       -6.2586  -27.4822  -47.6595 H         1 UNK         0.0600 
    212 H212       -6.1914  -29.8021  -49.6596 H         1 UNK         0.0600 
    213 H213       -7.2730  -29.6427  -48.2849 H         1 UNK         0.0600 
    214 H214       -5.5468  -29.8351  -48.0184 H         1 UNK         0.0600 
    215 H215       -6.1498  -27.5480  -51.2005 H         1 UNK         0.3000 
    216 H216       -8.8585  -26.3583  -51.4773 H         1 UNK         0.0600 
    217 H217       -8.4913  -26.8240  -53.8841 H         1 UNK         0.0600 
    218 H218       -8.1676  -28.2708  -52.9458 H         1 UNK         0.0600 
    219 H219       -6.8281  -27.3093  -53.5705 H         1 UNK         0.0600 
    220 H220       -6.2181  -25.0367  -50.4566 H         1 UNK         0.3000 
    221 H221       -5.2473  -23.0912  -50.3347 H         1 UNK         0.0600 
    222 H222       -7.2904  -21.9245  -52.2892 H         1 UNK         0.0600 
    223 H223       -7.4615  -21.9951  -50.5359 H         1 UNK         0.0600 
    224 H224       -6.1910  -21.0223  -51.2605 H         1 UNK         0.0600 
    225 H225       -6.0736  -23.6684  -53.7208 H         1 UNK         0.3000 
    226 H226       -5.0281  -23.9065  -55.6217 H         1 UNK         0.0600 
    227 H227       -3.8839  -25.7284  -54.3758 H         1 UNK         0.0600 
    228 H228       -2.8442  -25.0672  -55.6278 H         1 UNK         0.0600 
    229 H229       -2.5701  -24.6294  -53.9486 H         1 UNK         0.0600 
    230 H230       -3.1476  -21.7936  -53.5308 H         1 UNK         0.3000 
    231 H231       -1.3873  -20.6774  -55.4452 H         1 UNK         0.0600 
    232 H232       -1.0118  -18.9715  -53.6398 H         1 UNK         0.0600 
    233 H233       -1.0552  -20.5971  -52.9771 H         1 UNK         0.0600 
    234 H234       -2.4521  -19.5378  -52.8000 H         1 UNK         0.0600 
    235 H235       -1.2677  -18.4806  -56.1918 H         1 UNK         0.3000 
    236 H236       -3.6046  -17.5420  -57.5586 H         1 UNK         0.0600 
    237 H237       -2.0147  -15.8279  -58.4263 H         1 UNK         0.0600 
    238 H238       -0.8133  -16.3135  -57.2364 H         1 UNK         0.0600 
    239 H239       -1.3064  -17.4309  -58.5098 H         1 UNK         0.0600 
    240 H240       -2.7749  -17.0790  -54.3565 H         1 UNK         0.3000 
    241 H241       -3.2980  -14.3550  -53.8634 H         1 UNK         0.0600 
    242 H242       -7.0731  -15.8848  -54.2066 H         1 UNK         0.3800 
    243 H243       -5.6877  -16.8494  -54.6493 H         1 UNK         0.3800 
    244 H244       -3.5584  -15.0146  -51.5009 H         1 UNK         0.0800 
    245 H245       -3.7826  -16.6854  -51.9517 H         1 UNK         0.0800 
    246 H246       -1.9733  -16.6493  -49.8200 H         1 UNK         0.0800 
    247 H247       -2.0171  -18.0402  -50.8729 H         1 UNK         0.0800 
@<TRIPOS>BOND
     1    1    2 1    
     2    1  127 1    
     3    1  128 1    
     4    1  129 1    
     5    2    3 2    
     6    2    4 am   BACKBONE|DICT|INTERRES
     7    4    5 1    
     8    4  130 1    
     9    5    6 1    
    10    5   65 1    
    11    5  131 1    
    12    6    7 1    
    13    6  132 1    
    14    6  133 1    
    15    7    8 1    
    16    8    9 1    
    17    8  134 1    
    18    8  135 1    
    19    9   10 ar   
    20    9   14 ar   
    21   10   11 ar   
    22   10  136 1    
    23   11   12 ar   
    24   11  126 1    
    25   12   13 ar   
    26   12  137 1    
    27   13   14 ar   
    28   13   15 1    
    29   14  138 1    
    30   15   16 1    
    31   15  139 1    
    32   15  140 1    
    33   16   17 1    
    34   17   18 1    
    35   17  141 1    
    36   17  142 1    
    37   18   19 1    
    38   18   67 1    
    39   18  143 1    
    40   19   20 am   BACKBONE|DICT|INTERRES
    41   19  144 1    
    42   20   21 2    
    43   20   22 1    
    44   22   23 1    
    45   22   24 1    
    46   22  145 1    
    47   23  146 1    
    48   23  147 1    
    49   23  148 1    
    50   24   25 am   BACKBONE|DICT|INTERRES
    51   24  149 1    
    52   25   26 2    
    53   25   27 1    
    54   27   28 1    
    55   27   29 1    
    56   27  150 1    
    57   28  151 1    
    58   28  152 1    
    59   28  153 1    
    60   29   30 am   BACKBONE|DICT|INTERRES
    61   29  154 1    
    62   30   31 2    
    63   30   32 1    
    64   32   33 1    
    65   32   34 1    
    66   32  155 1    
    67   33  156 1    
    68   33  157 1    
    69   33  158 1    
    70   34   35 am   BACKBONE|DICT|INTERRES
    71   34  159 1    
    72   35   36 2    
    73   35   37 1    
    74   37   38 1    
    75   37   39 1    
    76   37  160 1    
    77   38  161 1    
    78   38  162 1    
    79   38  163 1    
    80   39   40 am   BACKBONE|DICT|INTERRES
    81   39  164 1    
    82   40   41 2    
    83   40   42 1    
    84   42   43 1    
    85   42   44 1    
    86   42  165 1    
    87   43  166 1    
    88   43  167 1    
    89   43  168 1    
    90   44   45 am   BACKBONE|DICT|INTERRES
    91   44  169 1    
    92   45   46 2    
    93   45   47 1    
    94   47   48 1    
    95   47   49 1    
    96   47  170 1    
    97   48  171 1    
    98   48  172 1    
    99   48  173 1    
   100   49   50 am   BACKBONE|DICT|INTERRES
   101   49  174 1    
   102   50   51 2    
   103   50   52 1    
   104   52   53 1    
   105   52   54 1    
   106   52  175 1    
   107   53  176 1    
   108   53  177 1    
   109   53  178 1    
   110   54   55 am   BACKBONE|DICT|INTERRES
   111   54  179 1    
   112   55   56 2    
   113   55   57 1    
   114   57   58 1    
   115   57   59 1    
   116   57  180 1    
   117   58  181 1    
   118   58  182 1    
   119   58  183 1    
   120   59   60 am   BACKBONE|DICT|INTERRES
   121   59  184 1    
   122   60   61 2    
   123   60   62 1    
   124   62   63 1    
   125   62   64 1    
   126   62  185 1    
   127   63  186 1    
   128   63  187 1    
   129   63  188 1    
   130   64   65 am   BACKBONE|DICT|INTERRES
   131   64  189 1    
   132   65   66 2    
   133   67   68 2    
   134   67   69 am   BACKBONE|DICT|INTERRES
   135   69   70 1    
   136   69  190 1    
   137   70   71 1    
   138   70   72 1    
   139   70  191 1    
   140   71  192 1    
   141   71  193 1    
   142   71  194 1    
   143   72   73 2    
   144   72   74 am   BACKBONE|DICT|INTERRES
   145   74   75 1    
   146   74  195 1    
   147   75   76 1    
   148   75   77 1    
   149   75  196 1    
   150   76  197 1    
   151   76  198 1    
   152   76  199 1    
   153   77   78 2    
   154   77   79 am   BACKBONE|DICT|INTERRES
   155   79   80 1    
   156   79  200 1    
   157   80   81 1    
   158   80   82 1    
   159   80  201 1    
   160   81  202 1    
   161   81  203 1    
   162   81  204 1    
   163   82   83 2    
   164   82   84 am   BACKBONE|DICT|INTERRES
   165   84   85 1    
   166   84  205 1    
   167   85   86 1    
   168   85   87 1    
   169   85  206 1    
   170   86  207 1    
   171   86  208 1    
   172   86  209 1    
   173   87   88 2    
   174   87   89 am   BACKBONE|DICT|INTERRES
   175   89   90 1    
   176   89  210 1    
   177   90   91 1    
   178   90   92 1    
   179   90  211 1    
   180   91  212 1    
   181   91  213 1    
   182   91  214 1    
   183   92   93 2    
   184   92   94 am   BACKBONE|DICT|INTERRES
   185   94   95 1    
   186   94  215 1    
   187   95   96 1    
   188   95   97 1    
   189   95  216 1    
   190   96  217 1    
   191   96  218 1    
   192   96  219 1    
   193   97   98 2    
   194   97   99 am   BACKBONE|DICT|INTERRES
   195   99  100 1    
   196   99  220 1    
   197  100  101 1    
   198  100  102 1    
   199  100  221 1    
   200  101  222 1    
   201  101  223 1    
   202  101  224 1    
   203  102  103 2    
   204  102  104 am   BACKBONE|DICT|INTERRES
   205  104  105 1    
   206  104  225 1    
   207  105  106 1    
   208  105  107 1    
   209  105  226 1    
   210  106  227 1    
   211  106  228 1    
   212  106  229 1    
   213  107  108 2    
   214  107  109 am   BACKBONE|DICT|INTERRES
   215  109  110 1    
   216  109  230 1    
   217  110  111 1    
   218  110  112 1    
   219  110  231 1    
   220  111  232 1    
   221  111  233 1    
   222  111  234 1    
   223  112  113 2    
   224  112  114 am   BACKBONE|DICT|INTERRES
   225  114  115 1    
   226  114  235 1    
   227  115  116 1    
   228  115  117 1    
   229  115  236 1    
   230  116  237 1    
   231  116  238 1    
   232  116  239 1    
   233  117  118 2    
   234  117  119 am   BACKBONE|DICT|INTERRES
   235  119  120 1    
   236  119  240 1    
   237  120  121 1    
   238  120  124 1    
   239  120  241 1    
   240  121  122 am   BACKBONE|DICT|INTERRES
   241  121  123 2    
   242  122  242 1    
   243  122  243 1    
   244  124  125 1    
   245  124  244 1    
   246  124  245 1    
   247  125  126 1    
   248  126  246 1    
   249  126  247 1    
@<TRIPOS>SUBSTRUCTURE
     1 UNK         1 GROUP             0       ****    0 ROOT    
