@<TRIPOS>MOLECULE
3R540
247   249    1
SMALL
USER_CHARGES


@<TRIPOS>ATOM
      1 CA          1.6802  -11.0423  -47.7138 C.3       0 UNK        -0.1800 
      2 C           3.1085  -11.5668  -47.6903 C.2       0 UNK         0.5000 
      3 O           4.0177  -10.8736  -47.2323 O.2       0 UNK        -0.5000 
      4 N           3.3059  -12.7922  -48.1881 N.am      1 UNK        -0.5000 
      5 CA          4.5912  -13.4939  -48.2766 C.3       1 UNK         0.1400 
      6 C6          4.5576  -14.6439  -49.3188 C.3       23 UNK        -0.0398 
      7 S7          3.8847  -14.1800  -50.9525 S.3       23 UNK        -0.2404 
      8 C8          4.0542  -15.7449  -51.8787 C.3       23 UNK        -0.0205 
      9 C9          3.4557  -16.9322  -51.1350 C.ar      23 UNK        -0.0193 
     10 C10         2.0749  -17.1578  -51.1429 C.ar      23 UNK        -0.1150 
     11 C11         1.5274  -18.2200  -50.4156 C.ar      23 UNK        -0.0193 
     12 C12         2.3737  -19.0575  -49.6836 C.ar      23 UNK        -0.1150 
     13 C13         3.7525  -18.8422  -49.6663 C.ar      23 UNK        -0.0193 
     14 C14         4.2890  -17.7861  -50.4052 C.ar      23 UNK        -0.1150 
     15 C15         4.6625  -19.7460  -48.8498 C.3       23 UNK        -0.0205 
     16 S16         4.9840  -19.0783  -47.1825 S.3       23 UNK        -0.2404 
     17 C17         3.4050  -19.3832  -46.3163 C.3       23 UNK        -0.0398 
     18 CA          3.4092  -20.6632  -45.4478 C.3       11 UNK         0.1400 
     19 N           2.2682  -20.6865  -44.5353 N.am      11 UNK        -0.5000 
     20 C           2.2953  -21.1633  -43.2828 C.2       10 UNK         0.5000 
     21 O           3.3128  -21.5845  -42.7322 O.2       10 UNK        -0.5000 
     22 CA          0.9624  -21.1756  -42.5097 C.3       10 UNK         0.1400 
     23 CB          0.8497  -19.9340  -41.6098 C.3       10 UNK        -0.1800 
     24 N          -0.1806  -21.2443  -43.4260 N.am      10 UNK        -0.5000 
     25 C          -0.6551  -22.3993  -43.9205 C.2       9 UNK         0.5000 
     26 O          -0.3263  -23.4978  -43.4723 O.2       9 UNK        -0.5000 
     27 CA         -1.6597  -22.3496  -45.0951 C.3       9 UNK         0.1400 
     28 CB         -2.9757  -23.0575  -44.7316 C.3       9 UNK        -0.1800 
     29 N          -1.9726  -21.0005  -45.5672 N.am      9 UNK        -0.5000 
     30 C          -1.1794  -20.2351  -46.3280 C.2       8 UNK         0.5000 
     31 O          -0.0568  -20.5697  -46.7096 O.2       8 UNK        -0.5000 
     32 CA         -1.7033  -18.8138  -46.6197 C.3       8 UNK         0.1400 
     33 CB         -2.7030  -18.8164  -47.7853 C.3       8 UNK        -0.1800 
     34 N          -2.3370  -18.1761  -45.4595 N.am      8 UNK        -0.5000 
     35 C          -1.7442  -17.9942  -44.2740 C.2       7 UNK         0.5000 
     36 O          -0.6050  -18.3843  -44.0206 O.2       7 UNK        -0.5000 
     37 CA         -2.5613  -17.3143  -43.1745 C.3       7 UNK         0.1400 
     38 CB         -3.1260  -18.3663  -42.2012 C.3       7 UNK        -0.1800 
     39 N          -1.6857  -16.3778  -42.4805 N.am      7 UNK        -0.5000 
     40 C          -2.0884  -15.4014  -41.6593 C.2       6 UNK         0.5000 
     41 O          -3.2605  -15.2174  -41.3288 O.2       6 UNK        -0.5000 
     42 CA         -0.9998  -14.4360  -41.1656 C.3       6 UNK         0.1400 
     43 CB         -0.0612  -15.1145  -40.1541 C.3       6 UNK        -0.1800 
     44 N          -0.2308  -13.9171  -42.2960 N.am      6 UNK        -0.5000 
     45 C          -0.6469  -12.9198  -43.0924 C.2       5 UNK         0.5000 
     46 O          -1.6768  -12.2740  -42.8955 O.2       5 UNK        -0.5000 
     47 CA          0.2250  -12.5811  -44.3177 C.3       5 UNK         0.1400 
     48 CB          1.2068  -11.4512  -43.9711 C.3       5 UNK        -0.1800 
     49 N           0.9677  -13.7395  -44.8153 N.am      5 UNK        -0.5000 
     50 C           0.4050  -14.7806  -45.4504 C.2       4 UNK         0.5000 
     51 O          -0.7819  -14.8180  -45.7738 O.2       4 UNK        -0.5000 
     52 CA          1.3017  -15.9975  -45.7579 C.3       4 UNK         0.1400 
     53 CB          1.6629  -16.0440  -47.2475 C.3       4 UNK        -0.1800 
     54 N           2.5187  -16.0524  -44.9444 N.am      4 UNK        -0.5000 
     55 C           2.5257  -16.2314  -43.6136 C.2       3 UNK         0.5000 
     56 O           1.5025  -16.3484  -42.9390 O.2       3 UNK        -0.5000 
     57 CA          3.8935  -16.2091  -42.9046 C.3       3 UNK         0.1400 
     58 CB          4.4522  -17.6348  -42.7791 C.3       3 UNK        -0.1800 
     59 N           4.8872  -15.3562  -43.5627 N.am      3 UNK        -0.5000 
     60 C           4.7509  -14.0434  -43.8004 C.2       2 UNK         0.5000 
     61 O           3.7681  -13.3887  -43.4534 O.2       2 UNK        -0.5000 
     62 CA          5.8623  -13.3499  -44.6146 C.3       2 UNK         0.1400 
     63 CB          7.2163  -14.0936  -44.5849 C.3       2 UNK        -0.1800 
     64 N           5.4382  -13.1077  -45.9982 N.am      2 UNK        -0.5000 
     65 C           5.0165  -14.0197  -46.8856 C.2       1 UNK         0.5000 
     66 O           4.9156  -15.2210  -46.6265 O.2       1 UNK        -0.5000 
     67 C           3.4097  -21.9450  -46.3011 C.2       11 UNK         0.5000 
     68 O           4.3906  -22.6905  -46.2828 O.2       11 UNK        -0.5000 
     69 N           2.3140  -22.1749  -47.0371 N.am      12 UNK        -0.5000 
     70 CA          2.1213  -23.3454  -47.8908 C.3       12 UNK         0.1400 
     71 CB          1.0732  -23.0021  -48.9600 C.3       12 UNK        -0.1800 
     72 C           1.6825  -24.5737  -47.0758 C.2       12 UNK         0.5000 
     73 O           1.2485  -24.4349  -45.9322 O.2       12 UNK        -0.5000 
     74 N           1.7690  -25.7598  -47.6927 N.am      13 UNK        -0.5000 
     75 CA          1.3063  -27.0251  -47.1109 C.3       13 UNK         0.1400 
     76 CB          1.8026  -28.1906  -47.9804 C.3       13 UNK        -0.1800 
     77 C          -0.2261  -27.0906  -46.9417 C.2       13 UNK         0.5000 
     78 O          -0.7104  -27.7563  -46.0256 O.2       13 UNK        -0.5000 
     79 N          -0.9515  -26.3867  -47.8166 N.am      14 UNK        -0.5000 
     80 CA         -2.3961  -26.2039  -47.8037 C.3       14 UNK         0.1400 
     81 CB         -3.1016  -27.4698  -48.3250 C.3       14 UNK        -0.1800 
     82 C          -2.7240  -24.9886  -48.6818 C.2       14 UNK         0.5000 
     83 O          -1.9261  -24.6304  -49.5523 O.2       14 UNK        -0.5000 
     84 N          -3.8948  -24.3925  -48.4510 N.am      15 UNK        -0.5000 
     85 CA         -4.4430  -23.2677  -49.2006 C.3       15 UNK         0.1400 
     86 CB         -3.7709  -21.9587  -48.7506 C.3       15 UNK        -0.1800 
     87 C          -5.9567  -23.2264  -48.9497 C.2       15 UNK         0.5000 
     88 O          -6.4122  -23.7306  -47.9184 O.2       15 UNK        -0.5000 
     89 N          -6.7095  -22.6256  -49.8758 N.am      16 UNK        -0.5000 
     90 CA         -8.1606  -22.4732  -49.7919 C.3       16 UNK         0.1400 
     91 CB         -8.8534  -23.7794  -50.2231 C.3       16 UNK        -0.1800 
     92 C          -8.6025  -21.3162  -50.6927 C.2       16 UNK         0.5000 
     93 O          -7.9301  -21.0257  -51.6836 O.2       16 UNK        -0.5000 
     94 N          -9.7520  -20.7063  -50.3777 N.am      17 UNK        -0.5000 
     95 CA        -10.3590  -19.6313  -51.1712 C.3       17 UNK         0.1400 
     96 CB        -11.5782  -19.0688  -50.4257 C.3       17 UNK        -0.1800 
     97 C         -10.7494  -20.0861  -52.5907 C.2       17 UNK         0.5000 
     98 O         -10.5360  -19.3455  -53.5505 O.2       17 UNK        -0.5000 
     99 N         -11.2460  -21.3266  -52.7020 N.am      18 UNK        -0.5000 
    100 CA       -11.5862  -21.9891  -53.9646 C.3       18 UNK         0.1400 
    101 CB       -12.3750  -23.2705  -53.6547 C.3       18 UNK        -0.1800 
    102 C        -10.3585  -22.3126  -54.8412 C.2       18 UNK         0.5000 
    103 O        -10.5004  -22.4400  -56.0575 O.2       18 UNK        -0.5000 
    104 N         -9.1794  -22.4220  -54.2145 N.am      19 UNK        -0.5000 
    105 CA        -7.8890  -22.6316  -54.8720 C.3       19 UNK         0.1400 
    106 CB        -7.0135  -23.5108  -53.9617 C.3       19 UNK        -0.1800 
    107 C         -7.1749  -21.3046  -55.2047 C.2       19 UNK         0.5000 
    108 O         -6.0701  -21.3465  -55.7463 O.2       19 UNK        -0.5000 
    109 N         -7.8007  -20.1627  -54.8701 N.am      20 UNK        -0.5000 
    110 CA        -7.2679  -18.7989  -54.9502 C.3       20 UNK         0.1400 
    111 CB        -7.0225  -18.3773  -56.4142 C.3       20 UNK        -0.1800 
    112 C         -6.0321  -18.6274  -54.0449 C.2       20 UNK         0.5000 
    113 O         -4.9745  -18.1872  -54.5026 O.2       20 UNK        -0.5000 
    114 N         -6.1917  -19.0328  -52.7762 N.am      21 UNK        -0.5000 
    115 CA        -5.1644  -19.1537  -51.7434 C.3       21 UNK         0.1400 
    116 CB        -4.5744  -17.7784  -51.3558 C.3       21 UNK        -0.1800 
    117 C         -4.1240  -20.2030  -52.1687 C.2       21 UNK         0.5000 
    118 O         -4.4276  -21.3958  -52.1125 O.2       21 UNK        -0.5000 
    119 N         -2.9470  -19.7399  -52.5981 N.am      22 UNK        -0.5000 
    120 CA        -1.8570  -20.5686  -53.1335 C.3       22 UNK         0.1400 
    121 C         -1.8391  -20.6283  -54.6891 C.2       22 UNK         0.5000 
    122 N         -2.7297  -19.9458  -55.4006 N.am      22 UNK        -0.7600 
    123 O         -1.0040  -21.3186  -55.2672 O.2       22 UNK        -0.5000 
    124 C124       -0.4785  -20.1356  -52.5698 C.3       23 UNK        -0.0398 
    125 S125       -0.4595  -20.1474  -50.7454 S.3       23 UNK        -0.2404 
    126 C126        0.0209  -18.4314  -50.3615 C.3       23 UNK        -0.0205 
    127 H127        1.4592  -10.5988  -48.6846 H         1 UNK         0.0600 
    128 H128        1.5379  -10.2767  -46.9511 H         1 UNK         0.0600 
    129 H129        0.9641  -11.8432  -47.5268 H         1 UNK         0.0600 
    130 H130        2.5200  -13.2935  -48.5753 H         1 UNK         0.3000 
    131 H131        5.3484  -12.7786  -48.6047 H         1 UNK         0.0600 
    132 H132        3.9504  -15.4676  -48.9454 H         1 UNK         0.0800 
    133 H133        5.5614  -15.0479  -49.4614 H         1 UNK         0.0800 
    134 H134        3.5672  -15.6379  -52.8489 H         1 UNK         0.0800 
    135 H135        5.1106  -15.9215  -52.0874 H         1 UNK         0.0800 
    136 H136        1.4284  -16.4896  -51.6943 H         1 UNK         0.1150 
    137 H137        1.9502  -19.8735  -49.1161 H         1 UNK         0.1150 
    138 H138        5.3555  -17.6111  -50.3866 H         1 UNK         0.1150 
    139 H139        4.2405  -20.7488  -48.7829 H         1 UNK         0.0800 
    140 H140        5.6167  -19.8595  -49.3662 H         1 UNK         0.0800 
    141 H141        3.2472  -18.5240  -45.6679 H         1 UNK         0.0800 
    142 H142        2.5652  -19.3714  -47.0079 H         1 UNK         0.0800 
    143 H143        4.3308  -20.6555  -44.8612 H         1 UNK         0.0600 
    144 H144        1.3790  -20.4002  -44.9218 H         1 UNK         0.3000 
    145 H145        0.9611  -22.0516  -41.8577 H         1 UNK         0.0600 
    146 H146       -0.1232  -19.8819  -41.1219 H         1 UNK         0.0600 
    147 H147        1.6061  -19.9594  -40.8248 H         1 UNK         0.0600 
    148 H148        1.0006  -19.0091  -42.1656 H         1 UNK         0.0600 
    149 H149       -0.5069  -20.3587  -43.7982 H         1 UNK         0.3000 
    150 H150       -1.2026  -22.8989  -45.9213 H         1 UNK         0.0600 
    151 H151       -2.7964  -24.0908  -44.4317 H         1 UNK         0.0600 
    152 H152       -3.6585  -23.0856  -45.5807 H         1 UNK         0.0600 
    153 H153       -3.4845  -22.5589  -43.9059 H         1 UNK         0.0600 
    154 H154       -2.8544  -20.6149  -45.2636 H         1 UNK         0.3000 
    155 H155       -0.8435  -18.2064  -46.9077 H         1 UNK         0.0600 
    156 H156       -2.9062  -17.8019  -48.1285 H         1 UNK         0.0600 
    157 H157       -3.6534  -19.2682  -47.5003 H         1 UNK         0.0600 
    158 H158       -2.3198  -19.3757  -48.6374 H         1 UNK         0.0600 
    159 H159       -3.2768  -17.8324  -45.5947 H         1 UNK         0.3000 
    160 H160       -3.3822  -16.7584  -43.6321 H         1 UNK         0.0600 
    161 H161       -2.3290  -18.9106  -41.6937 H         1 UNK         0.0600 
    162 H162       -3.7390  -19.0982  -42.7286 H         1 UNK         0.0600 
    163 H163       -3.7563  -17.9100  -41.4383 H         1 UNK         0.0600 
    164 H164       -0.6988  -16.4756  -42.7029 H         1 UNK         0.3000 
    165 H165       -1.4887  -13.6029  -40.6556 H         1 UNK         0.0600 
    166 H166        0.4397  -15.9859  -40.5757 H         1 UNK         0.0600 
    167 H167        0.7065  -14.4239  -39.8051 H         1 UNK         0.0600 
    168 H168       -0.6171  -15.4524  -39.2788 H         1 UNK         0.0600 
    169 H169        0.5976  -14.4390  -42.5539 H         1 UNK         0.3000 
    170 H170       -0.4318  -12.2296  -45.1163 H         1 UNK         0.0600 
    171 H171        0.6726  -10.5197  -43.7808 H         1 UNK         0.0600 
    172 H172        1.7854  -11.6811  -43.0760 H         1 UNK         0.0600 
    173 H173        1.9114  -11.2657  -44.7807 H         1 UNK         0.0600 
    174 H174        1.9463  -13.7893  -44.5565 H         1 UNK         0.3000 
    175 H175        0.7281  -16.8953  -45.5381 H         1 UNK         0.0600 
    176 H176        2.1333  -15.1176  -47.5640 H         1 UNK         0.0600 
    177 H177        2.3434  -16.8641  -47.4751 H         1 UNK         0.0600 
    178 H178        0.7716  -16.1810  -47.8608 H         1 UNK         0.0600 
    179 H179        3.4014  -15.9142  -45.4277 H         1 UNK         0.3000 
    180 H180        3.7311  -15.8138  -41.8999 H         1 UNK         0.0600 
    181 H181        4.7042  -18.0570  -43.7523 H         1 UNK         0.0600 
    182 H182        3.7268  -18.3015  -42.3101 H         1 UNK         0.0600 
    183 H183        5.3521  -17.6522  -42.1641 H         1 UNK         0.0600 
    184 H184        5.7039  -15.8203  -43.9327 H         1 UNK         0.3000 
    185 H185        6.0126  -12.3711  -44.1568 H         1 UNK         0.0600 
    186 H186        7.9913  -13.5038  -45.0745 H         1 UNK         0.0600 
    187 H187        7.5462  -14.2672  -43.5598 H         1 UNK         0.0600 
    188 H188        7.1746  -15.0595  -45.0892 H         1 UNK         0.0600 
    189 H189        5.3621  -12.1336  -46.2721 H         1 UNK         0.3000 
    190 H190        1.5104  -21.5582  -46.9461 H         1 UNK         0.3000 
    191 H191        3.0628  -23.5824  -48.3908 H         1 UNK         0.0600 
    192 H192        0.8895  -23.8454  -49.6264 H         1 UNK         0.0600 
    193 H193        1.4099  -22.1738  -49.5819 H         1 UNK         0.0600 
    194 H194        0.1167  -22.7222  -48.5159 H         1 UNK         0.0600 
    195 H195        2.1380  -25.8033  -48.6318 H         1 UNK         0.3000 
    196 H196        1.7519  -27.1256  -46.1188 H         1 UNK         0.0600 
    197 H197        1.4954  -29.1491  -47.5600 H         1 UNK         0.0600 
    198 H198        2.8908  -28.1997  -48.0453 H         1 UNK         0.0600 
    199 H199        1.4047  -28.1347  -48.9945 H         1 UNK         0.0600 
    200 H200       -0.4824  -25.8441  -48.5312 H         1 UNK         0.3000 
    201 H201       -2.7184  -25.9929  -46.7817 H         1 UNK         0.0600 
    202 H202       -2.8947  -28.3320  -47.6911 H         1 UNK         0.0600 
    203 H203       -2.7832  -27.7160  -49.3387 H         1 UNK         0.0600 
    204 H204       -4.1839  -27.3366  -48.3432 H         1 UNK         0.0600 
    205 H205       -4.5291  -24.7562  -47.7496 H         1 UNK         0.3000 
    206 H206       -4.2701  -23.4265  -50.2671 H         1 UNK         0.0600 
    207 H207       -2.7026  -21.9631  -48.9688 H         1 UNK         0.0600 
    208 H208       -4.2017  -21.1005  -49.2654 H         1 UNK         0.0600 
    209 H209       -3.8947  -21.7946  -47.6804 H         1 UNK         0.0600 
    210 H210       -6.2820  -22.2039  -50.6933 H         1 UNK         0.3000 
    211 H211       -8.4397  -22.2309  -48.7643 H         1 UNK         0.0600 
    212 H212       -8.5813  -24.0609  -51.2411 H         1 UNK         0.0600 
    213 H213       -9.9390  -23.6813  -50.1876 H         1 UNK         0.0600 
    214 H214       -8.5849  -24.6068  -49.5662 H         1 UNK         0.0600 
    215 H215      -10.2570  -20.9991  -49.5533 H         1 UNK         0.3000 
    216 H216       -9.6221  -18.8315  -51.2720 H         1 UNK         0.0600 
    217 H217      -12.0382  -18.2550  -50.9881 H         1 UNK         0.0600 
    218 H218      -11.2947  -18.6688  -49.4520 H         1 UNK         0.0600 
    219 H219      -12.3421  -19.8308  -50.2665 H         1 UNK         0.0600 
    220 H220      -11.3828  -21.8645  -51.8590 H         1 UNK         0.3000 
    221 H221      -12.2307  -21.3185  -54.5369 H         1 UNK         0.0600 
    222 H222      -11.7847  -23.9740  -53.0660 H         1 UNK         0.0600 
    223 H223      -13.2866  -23.0486  -53.0995 H         1 UNK         0.0600 
    224 H224      -12.6717  -23.7790  -54.5731 H         1 UNK         0.0600 
    225 H225       -9.1425  -22.2563  -53.2186 H         1 UNK         0.3000 
    226 H226       -8.0384  -23.1653  -55.8127 H         1 UNK         0.0600 
    227 H227       -7.5115  -24.4498  -53.7198 H         1 UNK         0.0600 
    228 H228       -6.0705  -23.7611  -54.4491 H         1 UNK         0.0600 
    229 H229       -6.7694  -23.0082  -53.0258 H         1 UNK         0.0600 
    230 H230       -8.7120  -20.2380  -54.4365 H         1 UNK         0.3000 
    231 H231       -8.0398  -18.1426  -54.5457 H         1 UNK         0.0600 
    232 H232       -6.7386  -17.3259  -56.4717 H         1 UNK         0.0600 
    233 H233       -7.9221  -18.5042  -57.0162 H         1 UNK         0.0600 
    234 H234       -6.2231  -18.9546  -56.8793 H         1 UNK         0.0600 
    235 H235       -7.0590  -19.5064  -52.5424 H         1 UNK         0.3000 
    236 H236       -5.6601  -19.5545  -50.8581 H         1 UNK         0.0600 
    237 H237       -5.3520  -17.1218  -50.9657 H         1 UNK         0.0600 
    238 H238       -3.8221  -17.8849  -50.5734 H         1 UNK         0.0600 
    239 H239       -4.1056  -17.2659  -52.1957 H         1 UNK         0.0600 
    240 H240       -2.8096  -18.7415  -52.6447 H         1 UNK         0.3000 
    241 H241       -2.0146  -21.6003  -52.8131 H         1 UNK         0.0600 
    242 H242       -3.4494  -19.3863  -54.9540 H         1 UNK         0.3800 
    243 H243       -2.7093  -20.0105  -56.4055 H         1 UNK         0.3800 
    244 H244        0.3053  -20.8138  -52.9111 H         1 UNK         0.0800 
    245 H245       -0.2061  -19.1461  -52.9400 H         1 UNK         0.0800 
    246 H246       -0.3106  -18.1944  -49.3514 H         1 UNK         0.0800 
    247 H247       -0.5043  -17.7421  -51.0241 H         1 UNK         0.0800 
@<TRIPOS>BOND
     1    1    2 1    
     2    1  127 1    
     3    1  128 1    
     4    1  129 1    
     5    2    3 2    
     6    2    4 am   BACKBONE|DICT|INTERRES
     7    4    5 1    
     8    4  130 1    
     9    5    6 1    
    10    5   65 1    
    11    5  131 1    
    12    6    7 1    
    13    6  132 1    
    14    6  133 1    
    15    7    8 1    
    16    8    9 1    
    17    8  134 1    
    18    8  135 1    
    19    9   10 ar   
    20    9   14 ar   
    21   10   11 ar   
    22   10  136 1    
    23   11   12 ar   
    24   11  126 1    
    25   12   13 ar   
    26   12  137 1    
    27   13   14 ar   
    28   13   15 1    
    29   14  138 1    
    30   15   16 1    
    31   15  139 1    
    32   15  140 1    
    33   16   17 1    
    34   17   18 1    
    35   17  141 1    
    36   17  142 1    
    37   18   19 1    
    38   18   67 1    
    39   18  143 1    
    40   19   20 am   BACKBONE|DICT|INTERRES
    41   19  144 1    
    42   20   21 2    
    43   20   22 1    
    44   22   23 1    
    45   22   24 1    
    46   22  145 1    
    47   23  146 1    
    48   23  147 1    
    49   23  148 1    
    50   24   25 am   BACKBONE|DICT|INTERRES
    51   24  149 1    
    52   25   26 2    
    53   25   27 1    
    54   27   28 1    
    55   27   29 1    
    56   27  150 1    
    57   28  151 1    
    58   28  152 1    
    59   28  153 1    
    60   29   30 am   BACKBONE|DICT|INTERRES
    61   29  154 1    
    62   30   31 2    
    63   30   32 1    
    64   32   33 1    
    65   32   34 1    
    66   32  155 1    
    67   33  156 1    
    68   33  157 1    
    69   33  158 1    
    70   34   35 am   BACKBONE|DICT|INTERRES
    71   34  159 1    
    72   35   36 2    
    73   35   37 1    
    74   37   38 1    
    75   37   39 1    
    76   37  160 1    
    77   38  161 1    
    78   38  162 1    
    79   38  163 1    
    80   39   40 am   BACKBONE|DICT|INTERRES
    81   39  164 1    
    82   40   41 2    
    83   40   42 1    
    84   42   43 1    
    85   42   44 1    
    86   42  165 1    
    87   43  166 1    
    88   43  167 1    
    89   43  168 1    
    90   44   45 am   BACKBONE|DICT|INTERRES
    91   44  169 1    
    92   45   46 2    
    93   45   47 1    
    94   47   48 1    
    95   47   49 1    
    96   47  170 1    
    97   48  171 1    
    98   48  172 1    
    99   48  173 1    
   100   49   50 am   BACKBONE|DICT|INTERRES
   101   49  174 1    
   102   50   51 2    
   103   50   52 1    
   104   52   53 1    
   105   52   54 1    
   106   52  175 1    
   107   53  176 1    
   108   53  177 1    
   109   53  178 1    
   110   54   55 am   BACKBONE|DICT|INTERRES
   111   54  179 1    
   112   55   56 2    
   113   55   57 1    
   114   57   58 1    
   115   57   59 1    
   116   57  180 1    
   117   58  181 1    
   118   58  182 1    
   119   58  183 1    
   120   59   60 am   BACKBONE|DICT|INTERRES
   121   59  184 1    
   122   60   61 2    
   123   60   62 1    
   124   62   63 1    
   125   62   64 1    
   126   62  185 1    
   127   63  186 1    
   128   63  187 1    
   129   63  188 1    
   130   64   65 am   BACKBONE|DICT|INTERRES
   131   64  189 1    
   132   65   66 2    
   133   67   68 2    
   134   67   69 am   BACKBONE|DICT|INTERRES
   135   69   70 1    
   136   69  190 1    
   137   70   71 1    
   138   70   72 1    
   139   70  191 1    
   140   71  192 1    
   141   71  193 1    
   142   71  194 1    
   143   72   73 2    
   144   72   74 am   BACKBONE|DICT|INTERRES
   145   74   75 1    
   146   74  195 1    
   147   75   76 1    
   148   75   77 1    
   149   75  196 1    
   150   76  197 1    
   151   76  198 1    
   152   76  199 1    
   153   77   78 2    
   154   77   79 am   BACKBONE|DICT|INTERRES
   155   79   80 1    
   156   79  200 1    
   157   80   81 1    
   158   80   82 1    
   159   80  201 1    
   160   81  202 1    
   161   81  203 1    
   162   81  204 1    
   163   82   83 2    
   164   82   84 am   BACKBONE|DICT|INTERRES
   165   84   85 1    
   166   84  205 1    
   167   85   86 1    
   168   85   87 1    
   169   85  206 1    
   170   86  207 1    
   171   86  208 1    
   172   86  209 1    
   173   87   88 2    
   174   87   89 am   BACKBONE|DICT|INTERRES
   175   89   90 1    
   176   89  210 1    
   177   90   91 1    
   178   90   92 1    
   179   90  211 1    
   180   91  212 1    
   181   91  213 1    
   182   91  214 1    
   183   92   93 2    
   184   92   94 am   BACKBONE|DICT|INTERRES
   185   94   95 1    
   186   94  215 1    
   187   95   96 1    
   188   95   97 1    
   189   95  216 1    
   190   96  217 1    
   191   96  218 1    
   192   96  219 1    
   193   97   98 2    
   194   97   99 am   BACKBONE|DICT|INTERRES
   195   99  100 1    
   196   99  220 1    
   197  100  101 1    
   198  100  102 1    
   199  100  221 1    
   200  101  222 1    
   201  101  223 1    
   202  101  224 1    
   203  102  103 2    
   204  102  104 am   BACKBONE|DICT|INTERRES
   205  104  105 1    
   206  104  225 1    
   207  105  106 1    
   208  105  107 1    
   209  105  226 1    
   210  106  227 1    
   211  106  228 1    
   212  106  229 1    
   213  107  108 2    
   214  107  109 am   BACKBONE|DICT|INTERRES
   215  109  110 1    
   216  109  230 1    
   217  110  111 1    
   218  110  112 1    
   219  110  231 1    
   220  111  232 1    
   221  111  233 1    
   222  111  234 1    
   223  112  113 2    
   224  112  114 am   BACKBONE|DICT|INTERRES
   225  114  115 1    
   226  114  235 1    
   227  115  116 1    
   228  115  117 1    
   229  115  236 1    
   230  116  237 1    
   231  116  238 1    
   232  116  239 1    
   233  117  118 2    
   234  117  119 am   BACKBONE|DICT|INTERRES
   235  119  120 1    
   236  119  240 1    
   237  120  121 1    
   238  120  124 1    
   239  120  241 1    
   240  121  122 am   BACKBONE|DICT|INTERRES
   241  121  123 2    
   242  122  242 1    
   243  122  243 1    
   244  124  125 1    
   245  124  244 1    
   246  124  245 1    
   247  125  126 1    
   248  126  246 1    
   249  126  247 1    
@<TRIPOS>SUBSTRUCTURE
     1 UNK         1 GROUP             0       ****    0 ROOT    
