@<TRIPOS>MOLECULE
3R540
247   249    1
SMALL
USER_CHARGES


@<TRIPOS>ATOM
      1 CA          1.7705   -9.8085  -48.4392 C.3       0 UNK        -0.1800 
      2 C           1.0745  -11.1197  -48.7724 C.2       0 UNK         0.5000 
      3 O          -0.1531  -11.1911  -48.7084 O.2       0 UNK        -0.5000 
      4 N           1.8560  -12.1558  -49.1085 N.am      1 UNK        -0.5000 
      5 CA          1.4235  -13.5122  -49.4748 C.3       1 UNK         0.1400 
      6 C6          0.7460  -13.5874  -50.8693 C.3       23 UNK        -0.0398 
      7 S7          1.9116  -13.0948  -52.1860 S.3       23 UNK        -0.2404 
      8 C8          1.9711  -14.5841  -53.2417 C.3       23 UNK        -0.0205 
      9 C9          2.4666  -15.8623  -52.5631 C.ar      23 UNK        -0.0193 
     10 C10         1.9983  -17.0907  -53.0339 C.ar      23 UNK        -0.1150 
     11 C11         2.4321  -18.2917  -52.4678 C.ar      23 UNK        -0.0193 
     12 C12         3.3541  -18.2604  -51.4175 C.ar      23 UNK        -0.1150 
     13 C13         3.8290  -17.0404  -50.9239 C.ar      23 UNK        -0.0193 
     14 C14         3.3963  -15.8488  -51.5161 C.ar      23 UNK        -0.1150 
     15 C15         4.8203  -16.9908  -49.7628 C.3       23 UNK        -0.0205 
     16 S16         4.3187  -17.9639  -48.2970 S.3       23 UNK        -0.2404 
     17 C17         2.5958  -17.4279  -48.0231 C.3       23 UNK        -0.0398 
     18 CA          1.6141  -18.6044  -48.2475 C.3       11 UNK         0.1400 
     19 N           1.7143  -19.6209  -47.1875 N.am      11 UNK        -0.5000 
     20 C           1.3936  -20.9122  -47.3448 C.2       10 UNK         0.5000 
     21 O           0.9292  -21.3767  -48.3842 O.2       10 UNK        -0.5000 
     22 CA          1.5487  -21.8194  -46.1123 C.3       10 UNK         0.1400 
     23 CB          3.0309  -22.0653  -45.7899 C.3       10 UNK        -0.1800 
     24 N           0.8706  -21.3067  -44.9196 N.am      10 UNK        -0.5000 
     25 C          -0.4461  -21.0767  -44.8061 C.2       9 UNK         0.5000 
     26 O          -1.2372  -21.1667  -45.7470 O.2       9 UNK        -0.5000 
     27 CA         -0.9546  -20.6689  -43.4067 C.3       9 UNK         0.1400 
     28 CB         -2.4589  -20.9410  -43.2052 C.3       9 UNK        -0.1800 
     29 N          -0.1715  -21.2455  -42.3073 N.am      9 UNK        -0.5000 
     30 C          -0.0190  -22.5450  -41.9982 C.2       8 UNK         0.5000 
     31 O          -0.5245  -23.4651  -42.6413 O.2       8 UNK        -0.5000 
     32 CA          0.8614  -22.8880  -40.7755 C.3       8 UNK         0.1400 
     33 CB          2.2227  -23.4313  -41.2387 C.3       8 UNK        -0.1800 
     34 N           1.0944  -21.7539  -39.8791 N.am      8 UNK        -0.5000 
     35 C           0.1742  -21.1913  -39.0827 C.2       7 UNK         0.5000 
     36 O          -0.9586  -21.6469  -38.9233 O.2       7 UNK        -0.5000 
     37 CA          0.5733  -19.8794  -38.3694 C.3       7 UNK         0.1400 
     38 CB          0.9380  -20.1573  -36.9029 C.3       7 UNK        -0.1800 
     39 N           1.6773  -19.1416  -39.0017 N.am      7 UNK        -0.5000 
     40 C           1.6885  -18.6849  -40.2620 C.2       6 UNK         0.5000 
     41 O           0.7594  -18.8659  -41.0526 O.2       6 UNK        -0.5000 
     42 CA          2.9748  -17.9707  -40.7266 C.3       6 UNK         0.1400 
     43 CB          4.1837  -18.9213  -40.6619 C.3       6 UNK        -0.1800 
     44 N           2.8540  -17.4839  -42.1011 N.am      6 UNK        -0.5000 
     45 C           2.1301  -16.4256  -42.4832 C.2       5 UNK         0.5000 
     46 O           1.5626  -15.6565  -41.7027 O.2       5 UNK        -0.5000 
     47 CA          1.9918  -16.2323  -44.0052 C.3       5 UNK         0.1400 
     48 CB          0.7360  -16.9534  -44.5253 C.3       5 UNK        -0.1800 
     49 N           1.9240  -14.8280  -44.3986 N.am      5 UNK        -0.5000 
     50 C           2.8936  -13.9194  -44.2254 C.2       4 UNK         0.5000 
     51 O           3.9717  -14.1671  -43.6829 O.2       4 UNK        -0.5000 
     52 CA          2.6404  -12.5024  -44.7759 C.3       4 UNK         0.1400 
     53 CB          3.5750  -12.2182  -45.9631 C.3       4 UNK        -0.1800 
     54 N           1.2562  -12.3081  -45.2149 N.am      4 UNK        -0.5000 
     55 C           0.2878  -11.7485  -44.4762 C.2       3 UNK         0.5000 
     56 O           0.4639  -11.3204  -43.3352 O.2       3 UNK        -0.5000 
     57 CA         -1.1133  -11.6356  -45.1109 C.3       3 UNK         0.1400 
     58 CB         -1.3818  -10.1942  -45.5707 C.3       3 UNK        -0.1800 
     59 N          -1.2993  -12.5402  -46.2470 N.am      3 UNK        -0.5000 
     60 C          -1.6010  -13.8418  -46.1323 C.2       2 UNK         0.5000 
     61 O          -1.7987  -14.4034  -45.0557 O.2       2 UNK        -0.5000 
     62 CA         -1.6477  -14.6680  -47.4330 C.3       2 UNK         0.1400 
     63 CB         -3.0751  -14.7112  -47.9977 C.3       2 UNK        -0.1800 
     64 N          -0.7343  -14.1809  -48.4669 N.am      2 UNK        -0.5000 
     65 C           0.5985  -14.1416  -48.3363 C.2       1 UNK         0.5000 
     66 O           1.1877  -14.5280  -47.3273 O.2       1 UNK        -0.5000 
     67 C           0.1677  -18.1199  -48.4912 C.2       11 UNK         0.5000 
     68 O          -0.0551  -17.3391  -49.4147 O.2       11 UNK        -0.5000 
     69 N          -0.7926  -18.6072  -47.6940 N.am      12 UNK        -0.5000 
     70 CA         -2.2256  -18.4810  -47.9546 C.3       12 UNK         0.1400 
     71 CB         -2.9484  -18.2124  -46.6227 C.3       12 UNK        -0.1800 
     72 C          -2.7964  -19.7508  -48.6171 C.2       12 UNK         0.5000 
     73 O          -3.9767  -19.7547  -48.9645 O.2       12 UNK        -0.5000 
     74 N          -1.9900  -20.8209  -48.7227 N.am      13 UNK        -0.5000 
     75 CA         -2.3613  -22.1831  -49.1211 C.3       13 UNK         0.1400 
     76 CB         -2.6038  -22.2611  -50.6394 C.3       13 UNK        -0.1800 
     77 C          -3.5310  -22.7478  -48.2876 C.2       13 UNK         0.5000 
     78 O          -4.4588  -23.3390  -48.8425 O.2       13 UNK        -0.5000 
     79 N          -3.4837  -22.5088  -46.9677 N.am      14 UNK        -0.5000 
     80 CA         -4.5220  -22.8309  -45.9817 C.3       14 UNK         0.1400 
     81 CB         -4.6599  -24.3589  -45.8136 C.3       14 UNK        -0.1800 
     82 C          -5.8636  -22.1283  -46.2860 C.2       14 UNK         0.5000 
     83 O          -6.9219  -22.7466  -46.1817 O.2       14 UNK        -0.5000 
     84 N          -5.7816  -20.8528  -46.6953 N.am      15 UNK        -0.5000 
     85 CA         -6.8727  -20.0151  -47.2117 C.3       15 UNK         0.1400 
     86 CB         -7.9360  -19.7417  -46.1273 C.3       15 UNK        -0.1800 
     87 C          -7.4568  -20.5894  -48.5205 C.2       15 UNK         0.5000 
     88 O          -8.6739  -20.7110  -48.6682 O.2       15 UNK        -0.5000 
     89 N          -6.5451  -20.9563  -49.4316 N.am      16 UNK        -0.5000 
     90 CA         -6.7572  -21.5868  -50.7383 C.3       16 UNK         0.1400 
     91 CB         -7.4906  -20.6266  -51.6964 C.3       16 UNK        -0.1800 
     92 C          -7.4084  -22.9884  -50.6877 C.2       16 UNK         0.5000 
     93 O          -7.9080  -23.4619  -51.7101 O.2       16 UNK        -0.5000 
     94 N          -7.3945  -23.6389  -49.5164 N.am      17 UNK        -0.5000 
     95 CA         -7.9477  -24.9765  -49.3109 C.3       17 UNK         0.1400 
     96 CB         -8.3673  -25.1397  -47.8432 C.3       17 UNK        -0.1800 
     97 C          -6.9622  -26.0879  -49.7085 C.2       17 UNK         0.5000 
     98 O          -7.4065  -27.1526  -50.1406 O.2       17 UNK        -0.5000 
     99 N          -5.6531  -25.8404  -49.5520 N.am      18 UNK        -0.5000 
    100 CA        -4.5992  -26.7983  -49.8925 C.3       18 UNK         0.1400 
    101 CB        -3.3091  -26.4425  -49.1369 C.3       18 UNK        -0.1800 
    102 C         -4.3421  -26.8498  -51.4075 C.2       18 UNK         0.5000 
    103 O         -4.1042  -27.9299  -51.9495 O.2       18 UNK        -0.5000 
    104 N         -4.4112  -25.6839  -52.0581 N.am      19 UNK        -0.5000 
    105 CA        -4.2329  -25.4761  -53.4890 C.3       19 UNK         0.1400 
    106 CB        -2.7555  -25.6754  -53.8844 C.3       19 UNK        -0.1800 
    107 C         -4.6785  -24.0474  -53.8210 C.2       19 UNK         0.5000 
    108 O         -4.6667  -23.1836  -52.9433 O.2       19 UNK        -0.5000 
    109 N         -5.0085  -23.8040  -55.0933 N.am      20 UNK        -0.5000 
    110 CA        -5.3200  -22.4695  -55.6161 C.3       20 UNK         0.1400 
    111 CB        -6.2014  -22.6254  -56.8655 C.3       20 UNK        -0.1800 
    112 C         -4.0580  -21.6413  -55.9436 C.2       20 UNK         0.5000 
    113 O         -4.1797  -20.4542  -56.2475 O.2       20 UNK        -0.5000 
    114 N         -2.8783  -22.2794  -55.8943 N.am      21 UNK        -0.5000 
    115 CA        -1.5736  -21.7639  -56.3198 C.3       21 UNK         0.1400 
    116 CB        -0.5077  -22.8380  -56.0513 C.3       21 UNK        -0.1800 
    117 C         -1.1484  -20.4246  -55.6892 C.2       21 UNK         0.5000 
    118 O         -0.5048  -19.6242  -56.3695 O.2       21 UNK        -0.5000 
    119 N         -1.5178  -20.2005  -54.4219 N.am      22 UNK        -0.5000 
    120 CA        -1.2673  -18.9395  -53.7028 C.3       22 UNK         0.1400 
    121 C         -2.4467  -17.9248  -53.7814 C.2       22 UNK         0.5000 
    122 N         -3.5184  -18.1891  -54.5198 N.am      22 UNK        -0.7600 
    123 O         -2.3833  -16.8599  -53.1742 O.2       22 UNK        -0.5000 
    124 C124       -0.8007  -19.1595  -52.2381 C.3       23 UNK        -0.0398 
    125 S125        0.5836  -20.3355  -52.0162 S.3       23 UNK        -0.2404 
    126 C126        1.9301  -19.6203  -53.0152 C.3       23 UNK        -0.0205 
    127 H127        1.6148   -9.5578  -47.3900 H         1 UNK         0.0600 
    128 H128        1.3624   -9.0021  -49.0484 H         1 UNK         0.0600 
    129 H129        2.8441   -9.8615  -48.6213 H         1 UNK         0.0600 
    130 H130        2.8559  -12.0152  -49.1293 H         1 UNK         0.3000 
    131 H131        2.3340  -14.1095  -49.5193 H         1 UNK         0.0600 
    132 H132        0.3862  -14.5992  -51.0675 H         1 UNK         0.0800 
    133 H133       -0.1242  -12.9317  -50.9221 H         1 UNK         0.0800 
    134 H134        2.6213  -14.3761  -54.0922 H         1 UNK         0.0800 
    135 H135        0.9722  -14.7437  -53.6513 H         1 UNK         0.0800 
    136 H136        1.3023  -17.1078  -53.8590 H         1 UNK         0.1150 
    137 H137        3.6956  -19.1870  -50.9777 H         1 UNK         0.1150 
    138 H138        3.7900  -14.9078  -51.1612 H         1 UNK         0.1150 
    139 H139        5.7863  -17.3571  -50.1122 H         1 UNK         0.0800 
    140 H140        4.9822  -15.9601  -49.4435 H         1 UNK         0.0800 
    141 H141        2.3778  -16.5963  -48.6931 H         1 UNK         0.0800 
    142 H142        2.5057  -17.0258  -47.0143 H         1 UNK         0.0800 
    143 H143        1.8950  -19.0850  -49.1866 H         1 UNK         0.0600 
    144 H144        2.0907  -19.3179  -46.3021 H         1 UNK         0.3000 
    145 H145        1.0935  -22.7817  -46.3565 H         1 UNK         0.0600 
    146 H146        3.1430  -22.7978  -44.9901 H         1 UNK         0.0600 
    147 H147        3.5607  -22.4542  -46.6606 H         1 UNK         0.0600 
    148 H148        3.5374  -21.1507  -45.4794 H         1 UNK         0.0600 
    149 H149        1.4348  -21.2106  -44.0889 H         1 UNK         0.3000 
    150 H150       -0.8127  -19.5896  -43.3432 H         1 UNK         0.0600 
    151 H151       -3.0605  -20.4209  -43.9506 H         1 UNK         0.0600 
    152 H152       -2.7903  -20.5940  -42.2265 H         1 UNK         0.0600 
    153 H153       -2.6890  -22.0038  -43.2760 H         1 UNK         0.0600 
    154 H154        0.2725  -20.5530  -41.7090 H         1 UNK         0.3000 
    155 H155        0.3504  -23.6720  -40.2129 H         1 UNK         0.0600 
    156 H156        2.7859  -22.6837  -41.7988 H         1 UNK         0.0600 
    157 H157        2.0982  -24.3006  -41.8859 H         1 UNK         0.0600 
    158 H158        2.8316  -23.7454  -40.3906 H         1 UNK         0.0600 
    159 H159        2.0030  -21.3184  -39.9300 H         1 UNK         0.3000 
    160 H160       -0.3036  -19.2291  -38.3855 H         1 UNK         0.0600 
    161 H161        1.8309  -20.7785  -36.8220 H         1 UNK         0.0600 
    162 H162        0.1284  -20.6780  -36.3895 H         1 UNK         0.0600 
    163 H163        1.1215  -19.2308  -36.3585 H         1 UNK         0.0600 
    164 H164        2.4818  -18.9666  -38.4167 H         1 UNK         0.3000 
    165 H165        3.1532  -17.1214  -40.0638 H         1 UNK         0.0600 
    166 H166        5.0908  -18.4271  -41.0109 H         1 UNK         0.0600 
    167 H167        4.3775  -19.2544  -39.6418 H         1 UNK         0.0600 
    168 H168        4.0315  -19.8107  -41.2750 H         1 UNK         0.0600 
    169 H169        3.2680  -18.0692  -42.8107 H         1 UNK         0.3000 
    170 H170        2.8679  -16.6626  -44.4948 H         1 UNK         0.0600 
    171 H171       -0.1651  -16.5983  -44.0230 H         1 UNK         0.0600 
    172 H172        0.5971  -16.7994  -45.5949 H         1 UNK         0.0600 
    173 H173        0.8050  -18.0276  -44.3540 H         1 UNK         0.0600 
    174 H174        1.0822  -14.5356  -44.8721 H         1 UNK         0.3000 
    175 H175        2.8830  -11.7951  -43.9802 H         1 UNK         0.0600 
    176 H176        3.4123  -12.9214  -46.7803 H         1 UNK         0.0600 
    177 H177        3.4288  -11.2094  -46.3479 H         1 UNK         0.0600 
    178 H178        4.6211  -12.3007  -45.6658 H         1 UNK         0.0600 
    179 H179        1.0204  -12.6924  -46.1203 H         1 UNK         0.3000 
    180 H180       -1.8444  -11.8825  -44.3381 H         1 UNK         0.0600 
    181 H181       -2.3852  -10.0929  -45.9846 H         1 UNK         0.0600 
    182 H182       -0.6714   -9.8733  -46.3324 H         1 UNK         0.0600 
    183 H183       -1.3035   -9.4968  -44.7358 H         1 UNK         0.0600 
    184 H184       -1.1229  -12.1535  -47.1694 H         1 UNK         0.3000 
    185 H185       -1.3403  -15.6842  -47.1844 H         1 UNK         0.0600 
    186 H186       -3.1292  -15.3319  -48.8921 H         1 UNK         0.0600 
    187 H187       -3.7702  -15.1298  -47.2688 H         1 UNK         0.0600 
    188 H188       -3.4334  -13.7149  -48.2597 H         1 UNK         0.0600 
    189 H189       -1.1589  -13.7975  -49.2980 H         1 UNK         0.3000 
    190 H190       -0.5312  -19.2507  -46.9601 H         1 UNK         0.3000 
    191 H191       -2.4208  -17.6449  -48.6280 H         1 UNK         0.0600 
    192 H192       -4.0038  -17.9935  -46.7893 H         1 UNK         0.0600 
    193 H193       -2.5221  -17.3592  -46.0962 H         1 UNK         0.0600 
    194 H194       -2.8943  -19.0700  -45.9533 H         1 UNK         0.0600 
    195 H195       -1.0242  -20.7282  -48.4311 H         1 UNK         0.3000 
    196 H196       -1.5022  -22.8157  -48.8943 H         1 UNK         0.0600 
    197 H197       -3.4159  -21.6078  -50.9564 H         1 UNK         0.0600 
    198 H198       -1.7109  -21.9785  -51.1935 H         1 UNK         0.0600 
    199 H199       -2.8545  -23.2770  -50.9446 H         1 UNK         0.0600 
    200 H200       -2.6713  -22.0146  -46.6025 H         1 UNK         0.3000 
    201 H201       -4.1812  -22.4271  -45.0298 H         1 UNK         0.0600 
    202 H202       -5.0522  -24.8349  -46.7121 H         1 UNK         0.0600 
    203 H203       -5.3375  -24.6019  -44.9945 H         1 UNK         0.0600 
    204 H204       -3.6978  -24.8172  -45.5849 H         1 UNK         0.0600 
    205 H205       -4.8574  -20.4606  -46.7999 H         1 UNK         0.3000 
    206 H206       -6.4234  -19.0564  -47.4752 H         1 UNK         0.0600 
    207 H207       -7.4816  -19.3348  -45.2240 H         1 UNK         0.0600 
    208 H208       -8.6688  -19.0144  -46.4782 H         1 UNK         0.0600 
    209 H209       -8.4819  -20.6442  -45.8515 H         1 UNK         0.0600 
    210 H210       -5.5713  -20.7638  -49.2095 H         1 UNK         0.3000 
    211 H211       -5.7577  -21.7418  -51.1398 H         1 UNK         0.0600 
    212 H212       -7.5047  -21.0229  -52.7124 H         1 UNK         0.0600 
    213 H213       -6.9950  -19.6566  -51.7370 H         1 UNK         0.0600 
    214 H214       -8.5252  -20.4648  -51.3929 H         1 UNK         0.0600 
    215 H215       -6.9363  -23.2027  -48.7274 H         1 UNK         0.3000 
    216 H216       -8.8438  -25.0869  -49.9254 H         1 UNK         0.0600 
    217 H217       -7.5062  -25.1315  -47.1748 H         1 UNK         0.0600 
    218 H218       -8.8875  -26.0860  -47.6910 H         1 UNK         0.0600 
    219 H219       -9.0424  -24.3420  -47.5322 H         1 UNK         0.0600 
    220 H220       -5.3519  -24.9252  -49.2233 H         1 UNK         0.3000 
    221 H221       -4.9127  -27.7930  -49.5682 H         1 UNK         0.0600 
    222 H222       -3.4822  -26.3805  -48.0626 H         1 UNK         0.0600 
    223 H223       -2.8958  -25.4897  -49.4675 H         1 UNK         0.0600 
    224 H224       -2.5436  -27.2019  -49.3003 H         1 UNK         0.0600 
    225 H225       -4.6373  -24.8390  -51.5470 H         1 UNK         0.3000 
    226 H226       -4.8657  -26.1809  -54.0320 H         1 UNK         0.0600 
    227 H227       -2.1011  -24.9897  -53.3443 H         1 UNK         0.0600 
    228 H228       -2.4168  -26.6904  -53.6778 H         1 UNK         0.0600 
    229 H229       -2.6053  -25.5031  -54.9506 H         1 UNK         0.0600 
    230 H230       -5.0020  -24.5607  -55.7629 H         1 UNK         0.3000 
    231 H231       -5.8895  -21.9140  -54.8675 H         1 UNK         0.0600 
    232 H232       -7.1203  -23.1647  -56.6345 H         1 UNK         0.0600 
    233 H233       -5.6840  -23.1660  -57.6590 H         1 UNK         0.0600 
    234 H234       -6.4905  -21.6526  -57.2655 H         1 UNK         0.0600 
    235 H235       -2.8963  -23.2489  -55.6195 H         1 UNK         0.3000 
    236 H236       -1.6317  -21.6056  -57.3985 H         1 UNK         0.0600 
    237 H237       -0.7292  -23.7599  -56.5893 H         1 UNK         0.0600 
    238 H238        0.4777  -22.5025  -56.3776 H         1 UNK         0.0600 
    239 H239       -0.4375  -23.0766  -54.9891 H         1 UNK         0.0600 
    240 H240       -2.0557  -20.9026  -53.9358 H         1 UNK         0.3000 
    241 H241       -0.4539  -18.4203  -54.2060 H         1 UNK         0.0600 
    242 H242       -4.2620  -17.5108  -54.5597 H         1 UNK         0.3800 
    243 H243       -3.5910  -19.0365  -55.0746 H         1 UNK         0.3800 
    244 H244       -1.6341  -19.5128  -51.6295 H         1 UNK         0.0800 
    245 H245       -0.4960  -18.2080  -51.8017 H         1 UNK         0.0800 
    246 H246        1.6078  -19.5168  -54.0520 H         1 UNK         0.0800 
    247 H247        2.7566  -20.3321  -53.0347 H         1 UNK         0.0800 
@<TRIPOS>BOND
     1    1    2 1    
     2    1  127 1    
     3    1  128 1    
     4    1  129 1    
     5    2    3 2    
     6    2    4 am   BACKBONE|DICT|INTERRES
     7    4    5 1    
     8    4  130 1    
     9    5    6 1    
    10    5   65 1    
    11    5  131 1    
    12    6    7 1    
    13    6  132 1    
    14    6  133 1    
    15    7    8 1    
    16    8    9 1    
    17    8  134 1    
    18    8  135 1    
    19    9   10 ar   
    20    9   14 ar   
    21   10   11 ar   
    22   10  136 1    
    23   11   12 ar   
    24   11  126 1    
    25   12   13 ar   
    26   12  137 1    
    27   13   14 ar   
    28   13   15 1    
    29   14  138 1    
    30   15   16 1    
    31   15  139 1    
    32   15  140 1    
    33   16   17 1    
    34   17   18 1    
    35   17  141 1    
    36   17  142 1    
    37   18   19 1    
    38   18   67 1    
    39   18  143 1    
    40   19   20 am   BACKBONE|DICT|INTERRES
    41   19  144 1    
    42   20   21 2    
    43   20   22 1    
    44   22   23 1    
    45   22   24 1    
    46   22  145 1    
    47   23  146 1    
    48   23  147 1    
    49   23  148 1    
    50   24   25 am   BACKBONE|DICT|INTERRES
    51   24  149 1    
    52   25   26 2    
    53   25   27 1    
    54   27   28 1    
    55   27   29 1    
    56   27  150 1    
    57   28  151 1    
    58   28  152 1    
    59   28  153 1    
    60   29   30 am   BACKBONE|DICT|INTERRES
    61   29  154 1    
    62   30   31 2    
    63   30   32 1    
    64   32   33 1    
    65   32   34 1    
    66   32  155 1    
    67   33  156 1    
    68   33  157 1    
    69   33  158 1    
    70   34   35 am   BACKBONE|DICT|INTERRES
    71   34  159 1    
    72   35   36 2    
    73   35   37 1    
    74   37   38 1    
    75   37   39 1    
    76   37  160 1    
    77   38  161 1    
    78   38  162 1    
    79   38  163 1    
    80   39   40 am   BACKBONE|DICT|INTERRES
    81   39  164 1    
    82   40   41 2    
    83   40   42 1    
    84   42   43 1    
    85   42   44 1    
    86   42  165 1    
    87   43  166 1    
    88   43  167 1    
    89   43  168 1    
    90   44   45 am   BACKBONE|DICT|INTERRES
    91   44  169 1    
    92   45   46 2    
    93   45   47 1    
    94   47   48 1    
    95   47   49 1    
    96   47  170 1    
    97   48  171 1    
    98   48  172 1    
    99   48  173 1    
   100   49   50 am   BACKBONE|DICT|INTERRES
   101   49  174 1    
   102   50   51 2    
   103   50   52 1    
   104   52   53 1    
   105   52   54 1    
   106   52  175 1    
   107   53  176 1    
   108   53  177 1    
   109   53  178 1    
   110   54   55 am   BACKBONE|DICT|INTERRES
   111   54  179 1    
   112   55   56 2    
   113   55   57 1    
   114   57   58 1    
   115   57   59 1    
   116   57  180 1    
   117   58  181 1    
   118   58  182 1    
   119   58  183 1    
   120   59   60 am   BACKBONE|DICT|INTERRES
   121   59  184 1    
   122   60   61 2    
   123   60   62 1    
   124   62   63 1    
   125   62   64 1    
   126   62  185 1    
   127   63  186 1    
   128   63  187 1    
   129   63  188 1    
   130   64   65 am   BACKBONE|DICT|INTERRES
   131   64  189 1    
   132   65   66 2    
   133   67   68 2    
   134   67   69 am   BACKBONE|DICT|INTERRES
   135   69   70 1    
   136   69  190 1    
   137   70   71 1    
   138   70   72 1    
   139   70  191 1    
   140   71  192 1    
   141   71  193 1    
   142   71  194 1    
   143   72   73 2    
   144   72   74 am   BACKBONE|DICT|INTERRES
   145   74   75 1    
   146   74  195 1    
   147   75   76 1    
   148   75   77 1    
   149   75  196 1    
   150   76  197 1    
   151   76  198 1    
   152   76  199 1    
   153   77   78 2    
   154   77   79 am   BACKBONE|DICT|INTERRES
   155   79   80 1    
   156   79  200 1    
   157   80   81 1    
   158   80   82 1    
   159   80  201 1    
   160   81  202 1    
   161   81  203 1    
   162   81  204 1    
   163   82   83 2    
   164   82   84 am   BACKBONE|DICT|INTERRES
   165   84   85 1    
   166   84  205 1    
   167   85   86 1    
   168   85   87 1    
   169   85  206 1    
   170   86  207 1    
   171   86  208 1    
   172   86  209 1    
   173   87   88 2    
   174   87   89 am   BACKBONE|DICT|INTERRES
   175   89   90 1    
   176   89  210 1    
   177   90   91 1    
   178   90   92 1    
   179   90  211 1    
   180   91  212 1    
   181   91  213 1    
   182   91  214 1    
   183   92   93 2    
   184   92   94 am   BACKBONE|DICT|INTERRES
   185   94   95 1    
   186   94  215 1    
   187   95   96 1    
   188   95   97 1    
   189   95  216 1    
   190   96  217 1    
   191   96  218 1    
   192   96  219 1    
   193   97   98 2    
   194   97   99 am   BACKBONE|DICT|INTERRES
   195   99  100 1    
   196   99  220 1    
   197  100  101 1    
   198  100  102 1    
   199  100  221 1    
   200  101  222 1    
   201  101  223 1    
   202  101  224 1    
   203  102  103 2    
   204  102  104 am   BACKBONE|DICT|INTERRES
   205  104  105 1    
   206  104  225 1    
   207  105  106 1    
   208  105  107 1    
   209  105  226 1    
   210  106  227 1    
   211  106  228 1    
   212  106  229 1    
   213  107  108 2    
   214  107  109 am   BACKBONE|DICT|INTERRES
   215  109  110 1    
   216  109  230 1    
   217  110  111 1    
   218  110  112 1    
   219  110  231 1    
   220  111  232 1    
   221  111  233 1    
   222  111  234 1    
   223  112  113 2    
   224  112  114 am   BACKBONE|DICT|INTERRES
   225  114  115 1    
   226  114  235 1    
   227  115  116 1    
   228  115  117 1    
   229  115  236 1    
   230  116  237 1    
   231  116  238 1    
   232  116  239 1    
   233  117  118 2    
   234  117  119 am   BACKBONE|DICT|INTERRES
   235  119  120 1    
   236  119  240 1    
   237  120  121 1    
   238  120  124 1    
   239  120  241 1    
   240  121  122 am   BACKBONE|DICT|INTERRES
   241  121  123 2    
   242  122  242 1    
   243  122  243 1    
   244  124  125 1    
   245  124  244 1    
   246  124  245 1    
   247  125  126 1    
   248  126  246 1    
   249  126  247 1    
@<TRIPOS>SUBSTRUCTURE
     1 UNK         1 GROUP             0       ****    0 ROOT    
