@<TRIPOS>MOLECULE
3R540
247   249    1
SMALL
USER_CHARGES


@<TRIPOS>ATOM
      1 CA         -2.0749  -15.6563  -48.2237 C.3       0 UNK        -0.1800 
      2 C          -1.1595  -14.4419  -48.1589 C.2       0 UNK         0.5000 
      3 O          -1.3230  -13.6042  -47.2722 O.2       0 UNK        -0.5000 
      4 N          -0.1895  -14.3443  -49.0803 N.am      1 UNK        -0.5000 
      5 CA          0.7196  -13.1952  -49.2429 C.3       1 UNK         0.1400 
      6 C6          1.5780  -13.2963  -50.5265 C.3       23 UNK        -0.0398 
      7 S7          0.5672  -13.4035  -52.0420 S.3       23 UNK        -0.2404 
      8 C8          1.1328  -14.9783  -52.7581 C.3       23 UNK        -0.0205 
      9 C9          0.6533  -16.1800  -51.9594 C.ar      23 UNK        -0.0193 
     10 C10        -0.6770  -16.5973  -52.0615 C.ar      23 UNK        -0.1150 
     11 C11        -1.1201  -17.7275  -51.3714 C.ar      23 UNK        -0.0193 
     12 C12        -0.2216  -18.4363  -50.5713 C.ar      23 UNK        -0.1150 
     13 C13         1.1068  -18.0211  -50.4436 C.ar      23 UNK        -0.0193 
     14 C14         1.5394  -16.8909  -51.1426 C.ar      23 UNK        -0.1150 
     15 C15         2.0776  -18.8164  -49.5791 C.3       23 UNK        -0.0205 
     16 S16         2.2261  -18.1751  -47.8751 S.3       23 UNK        -0.2404 
     17 C17         0.5117  -18.2425  -47.2610 C.3       23 UNK        -0.0398 
     18 CA         -0.0407  -19.6755  -47.0762 C.3       11 UNK         0.1400 
     19 N           0.6730  -20.4415  -46.0551 N.am      11 UNK        -0.5000 
     20 C           0.5133  -21.7530  -45.8293 C.2       10 UNK         0.5000 
     21 O          -0.2285  -22.4660  -46.5075 O.2       10 UNK        -0.5000 
     22 CA          1.2364  -22.3479  -44.6040 C.3       10 UNK         0.1400 
     23 CB          1.7942  -23.7603  -44.8718 C.3       10 UNK        -0.1800 
     24 N           2.2506  -21.4558  -44.0293 N.am      10 UNK        -0.5000 
     25 C           3.4359  -21.1000  -44.5483 C.2       9 UNK         0.5000 
     26 O           3.8812  -21.5312  -45.6115 O.2       9 UNK        -0.5000 
     27 CA          4.2513  -20.0539  -43.7610 C.3       9 UNK         0.1400 
     28 CB          4.2195  -18.6991  -44.4875 C.3       9 UNK        -0.1800 
     29 N           3.7774  -19.8561  -42.3892 N.am      9 UNK        -0.5000 
     30 C           3.9514  -20.7173  -41.3773 C.2       8 UNK         0.5000 
     31 O           4.5565  -21.7845  -41.4811 O.2       8 UNK        -0.5000 
     32 CA          3.3172  -20.3272  -40.0324 C.3       8 UNK         0.1400 
     33 CB          4.2149  -19.3344  -39.2768 C.3       8 UNK        -0.1800 
     34 N           1.9912  -19.7354  -40.2176 N.am      8 UNK        -0.5000 
     35 C           0.8482  -20.4315  -40.2956 C.2       7 UNK         0.5000 
     36 O           0.7890  -21.6581  -40.2121 O.2       7 UNK        -0.5000 
     37 CA         -0.4491  -19.6252  -40.5096 C.3       7 UNK         0.1400 
     38 CB         -1.0716  -19.2369  -39.1604 C.3       7 UNK        -0.1800 
     39 N          -0.2369  -18.4151  -41.3039 N.am      7 UNK        -0.5000 
     40 C          -0.0126  -18.4169  -42.6230 C.2       6 UNK         0.5000 
     41 O          -0.0547  -19.4301  -43.3218 O.2       6 UNK        -0.5000 
     42 CA          0.3512  -17.0767  -43.2840 C.3       6 UNK         0.1400 
     43 CB         -0.8661  -16.4724  -43.9978 C.3       6 UNK        -0.1800 
     44 N           0.9526  -16.0798  -42.3892 N.am      6 UNK        -0.5000 
     45 C           2.1198  -16.2442  -41.7445 C.2       5 UNK         0.5000 
     46 O           2.7531  -17.2988  -41.7800 O.2       5 UNK        -0.5000 
     47 CA          2.6892  -15.0713  -40.9236 C.3       5 UNK         0.1400 
     48 CB          4.1086  -14.7110  -41.3919 C.3       5 UNK        -0.1800 
     49 N           1.8526  -13.8741  -40.9849 N.am      5 UNK        -0.5000 
     50 C           0.8972  -13.5654  -40.0973 C.2       4 UNK         0.5000 
     51 O           0.6344  -14.2552  -39.1116 O.2       4 UNK        -0.5000 
     52 CA          0.0805  -12.2824  -40.3584 C.3       4 UNK         0.1400 
     53 CB          0.6377  -11.1138  -39.5313 C.3       4 UNK        -0.1800 
     54 N           0.0305  -11.8850  -41.7679 N.am      4 UNK        -0.5000 
     55 C          -0.5163  -12.6122  -42.7509 C.2       3 UNK         0.5000 
     56 O          -1.0527  -13.7031  -42.5616 O.2       3 UNK        -0.5000 
     57 CA         -0.4224  -12.0602  -44.1871 C.3       3 UNK         0.1400 
     58 CB         -0.0386  -10.5656  -44.2630 C.3       3 UNK        -0.1800 
     59 N           0.4792  -12.8539  -45.0273 N.am      3 UNK        -0.5000 
     60 C           1.7756  -13.1283  -44.8036 C.2       2 UNK         0.5000 
     61 O           2.3701  -12.8063  -43.7737 O.2       2 UNK        -0.5000 
     62 CA          2.5556  -13.8740  -45.9113 C.3       2 UNK         0.1400 
     63 CB          2.9310  -15.2959  -45.4732 C.3       2 UNK        -0.1800 
     64 N           1.8426  -13.9584  -47.1870 N.am      2 UNK        -0.5000 
     65 C           1.6284  -12.9321  -48.0211 C.2       1 UNK         0.5000 
     66 O           2.0962  -11.8063  -47.8469 O.2       1 UNK        -0.5000 
     67 C          -1.5577  -19.6302  -46.8115 C.2       11 UNK         0.5000 
     68 O          -2.3236  -19.5861  -47.7708 O.2       11 UNK        -0.5000 
     69 N          -1.9690  -19.6792  -45.5352 N.am      12 UNK        -0.5000 
     70 CA         -3.3732  -19.7476  -45.1272 C.3       12 UNK         0.1400 
     71 CB         -3.4776  -19.5256  -43.6106 C.3       12 UNK        -0.1800 
     72 C          -4.0309  -21.0795  -45.5313 C.2       12 UNK         0.5000 
     73 O          -5.1673  -21.0818  -46.0047 O.2       12 UNK        -0.5000 
     74 N          -3.2846  -22.1829  -45.3798 N.am      13 UNK        -0.5000 
     75 CA         -3.6961  -23.5187  -45.8096 C.3       13 UNK         0.1400 
     76 CB         -2.7589  -24.5738  -45.2027 C.3       13 UNK        -0.1800 
     77 C          -3.7410  -23.6304  -47.3422 C.2       13 UNK         0.5000 
     78 O          -4.7042  -24.1734  -47.8823 O.2       13 UNK        -0.5000 
     79 N          -2.7274  -23.0679  -48.0163 N.am      14 UNK        -0.5000 
     80 CA         -2.6563  -22.9875  -49.4754 C.3       14 UNK         0.1400 
     81 CB         -1.2734  -22.4773  -49.8997 C.3       14 UNK        -0.1800 
     82 C          -3.7764  -22.1222  -50.0833 C.2       14 UNK         0.5000 
     83 O          -4.3026  -22.4841  -51.1320 O.2       14 UNK        -0.5000 
     84 N          -4.1495  -21.0260  -49.4063 N.am      15 UNK        -0.5000 
     85 CA         -5.2814  -20.1709  -49.7679 C.3       15 UNK         0.1400 
     86 CB         -5.2679  -18.8870  -48.9213 C.3       15 UNK        -0.1800 
     87 C          -6.6295  -20.8951  -49.6190 C.2       15 UNK         0.5000 
     88 O          -7.4671  -20.7992  -50.5156 O.2       15 UNK        -0.5000 
     89 N          -6.8038  -21.6294  -48.5100 N.am      16 UNK        -0.5000 
     90 CA         -7.9940  -22.4354  -48.2260 C.3       16 UNK         0.1400 
     91 CB         -7.9335  -22.9492  -46.7796 C.3       16 UNK        -0.1800 
     92 C          -8.1770  -23.6016  -49.2160 C.2       16 UNK         0.5000 
     93 O          -9.3003  -23.8670  -49.6451 O.2       16 UNK        -0.5000 
     94 N          -7.0661  -24.2523  -49.5852 N.am      17 UNK        -0.5000 
     95 CA         -7.0117  -25.3147  -50.5915 C.3       17 UNK         0.1400 
     96 CB         -5.7211  -26.1215  -50.3774 C.3       17 UNK        -0.1800 
     97 C          -7.0716  -24.7930  -52.0423 C.2       17 UNK         0.5000 
     98 O          -7.2305  -25.5969  -52.9619 O.2       17 UNK        -0.5000 
     99 N          -6.8848  -23.4791  -52.2303 N.am      18 UNK        -0.5000 
    100 CA        -6.7275  -22.7149  -53.4754 C.3       18 UNK         0.1400 
    101 CB        -7.9579  -22.8510  -54.3915 C.3       18 UNK        -0.1800 
    102 C         -5.4220  -23.0183  -54.2382 C.2       18 UNK         0.5000 
    103 O         -4.7796  -22.0865  -54.7244 O.2       18 UNK        -0.5000 
    104 N         -5.0584  -24.3072  -54.3272 N.am      19 UNK        -0.5000 
    105 CA        -3.8263  -24.8669  -54.8965 C.3       19 UNK         0.1400 
    106 CB        -2.6191  -24.4837  -54.0149 C.3       19 UNK        -0.1800 
    107 C         -3.6081  -24.5103  -56.3830 C.2       19 UNK         0.5000 
    108 O         -2.4631  -24.4168  -56.8294 O.2       19 UNK        -0.5000 
    109 N         -4.7123  -24.2795  -57.1108 N.am      20 UNK        -0.5000 
    110 CA        -4.8332  -23.7483  -58.4767 C.3       20 UNK         0.1400 
    111 CB        -4.1466  -24.6606  -59.5115 C.3       20 UNK        -0.1800 
    112 C         -4.3639  -22.2842  -58.6107 C.2       20 UNK         0.5000 
    113 O         -5.1051  -21.4536  -59.1375 O.2       20 UNK        -0.5000 
    114 N         -3.1618  -21.9932  -58.1098 N.am      21 UNK        -0.5000 
    115 CA        -2.5475  -20.6786  -58.0175 C.3       21 UNK         0.1400 
    116 CB        -1.9355  -20.2793  -59.3745 C.3       21 UNK        -0.1800 
    117 C         -1.5085  -20.7486  -56.8901 C.2       21 UNK         0.5000 
    118 O         -0.3453  -21.0660  -57.1473 O.2       21 UNK        -0.5000 
    119 N         -1.9650  -20.5189  -55.6535 N.am      22 UNK        -0.5000 
    120 CA        -1.1437  -20.4990  -54.4325 C.3       22 UNK         0.1400 
    121 C          0.0156  -19.4564  -54.4473 C.2       22 UNK         0.5000 
    122 N          1.0844  -19.7062  -53.7019 N.am      22 UNK        -0.7600 
    123 O         -0.0482  -18.4215  -55.1082 O.2       22 UNK        -0.5000 
    124 C124       -2.0270  -20.3716  -53.1624 C.3       23 UNK        -0.0398 
    125 S125       -3.0266  -18.8417  -53.0887 S.3       23 UNK        -0.2404 
    126 C126       -2.5740  -18.1674  -51.4585 C.3       23 UNK        -0.0205 
    127 H127       -1.8021  -16.3279  -49.0357 H         1 UNK         0.0600 
    128 H128       -2.0317  -16.2135  -47.2878 H         1 UNK         0.0600 
    129 H129       -3.1055  -15.3390  -48.3818 H         1 UNK         0.0600 
    130 H130       -0.1092  -15.0573  -49.7928 H         1 UNK         0.3000 
    131 H131        0.0857  -12.3112  -49.3414 H         1 UNK         0.0600 
    132 H132        2.2131  -12.4143  -50.6296 H         1 UNK         0.0800 
    133 H133        2.2570  -14.1478  -50.4660 H         1 UNK         0.0800 
    134 H134        2.2208  -14.9737  -52.8411 H         1 UNK         0.0800 
    135 H135        0.7532  -15.0564  -53.7781 H         1 UNK         0.0800 
    136 H136       -1.3658  -16.0494  -52.6893 H         1 UNK         0.1150 
    137 H137       -0.5638  -19.3094  -50.0394 H         1 UNK         0.1150 
    138 H138        2.5701  -16.5756  -51.0607 H         1 UNK         0.1150 
    139 H139        1.7873  -19.8672  -49.5515 H         1 UNK         0.0800 
    140 H140        3.0667  -18.7992  -50.0390 H         1 UNK         0.0800 
    141 H141       -0.1081  -17.6710  -47.9497 H         1 UNK         0.0800 
    142 H142        0.4752  -17.6998  -46.3179 H         1 UNK         0.0800 
    143 H143        0.0889  -20.2149  -48.0135 H         1 UNK         0.0600 
    144 H144        1.2716  -19.9253  -45.4290 H         1 UNK         0.3000 
    145 H145        0.4697  -22.4454  -43.8341 H         1 UNK         0.0600 
    146 H146        2.3040  -24.1563  -43.9936 H         1 UNK         0.0600 
    147 H147        0.9912  -24.4550  -45.1208 H         1 UNK         0.0600 
    148 H148        2.4981  -23.7700  -45.7040 H         1 UNK         0.0600 
    149 H149        1.9798  -21.0069  -43.1653 H         1 UNK         0.3000 
    150 H150        5.2857  -20.4013  -43.7233 H         1 UNK         0.0600 
    151 H151        4.6162  -18.7856  -45.4999 H         1 UNK         0.0600 
    152 H152        4.8214  -17.9551  -43.9652 H         1 UNK         0.0600 
    153 H153        3.2049  -18.3097  -44.5675 H         1 UNK         0.0600 
    154 H154        3.3204  -18.9674  -42.1939 H         1 UNK         0.3000 
    155 H155        3.2301  -21.2307  -39.4248 H         1 UNK         0.0600 
    156 H156        4.3480  -18.4036  -39.8294 H         1 UNK         0.0600 
    157 H157        5.2053  -19.7579  -39.1052 H         1 UNK         0.0600 
    158 H158        3.7941  -19.0873  -38.3021 H         1 UNK         0.0600 
    159 H159        1.9656  -18.7363  -40.3714 H         1 UNK         0.3000 
    160 H160       -1.1568  -20.2682  -41.0377 H         1 UNK         0.0600 
    161 H161       -2.0248  -18.7263  -39.2990 H         1 UNK         0.0600 
    162 H162       -0.4170  -18.5778  -38.5887 H         1 UNK         0.0600 
    163 H163       -1.2629  -20.1204  -38.5499 H         1 UNK         0.0600 
    164 H164       -0.2001  -17.5368  -40.8075 H         1 UNK         0.3000 
    165 H165        1.0973  -17.3215  -44.0376 H         1 UNK         0.0600 
    166 H166       -0.5927  -15.5797  -44.5602 H         1 UNK         0.0600 
    167 H167       -1.3044  -17.1728  -44.7067 H         1 UNK         0.0600 
    168 H168       -1.6489  -16.1992  -43.2896 H         1 UNK         0.0600 
    169 H169        0.4566  -15.2005  -42.2970 H         1 UNK         0.3000 
    170 H170        2.7635  -15.4181  -39.8910 H         1 UNK         0.0600 
    171 H171        4.7753  -15.5722  -41.3313 H         1 UNK         0.0600 
    172 H172        4.1197  -14.3599  -42.4233 H         1 UNK         0.0600 
    173 H173        4.5388  -13.9265  -40.7693 H         1 UNK         0.0600 
    174 H174        1.9873  -13.2760  -41.7946 H         1 UNK         0.3000 
    175 H175       -0.9430  -12.4762  -40.0310 H         1 UNK         0.0600 
    176 H176        0.0190  -10.2228  -39.6393 H         1 UNK         0.0600 
    177 H177        0.6630  -11.3631  -38.4696 H         1 UNK         0.0600 
    178 H178        1.6541  -10.8571  -39.8326 H         1 UNK         0.0600 
    179 H179        0.4810  -11.0143  -42.0092 H         1 UNK         0.3000 
    180 H180       -1.4185  -12.1670  -44.6189 H         1 UNK         0.0600 
    181 H181        0.9718  -10.3771  -43.8987 H         1 UNK         0.0600 
    182 H182       -0.7260   -9.9513  -43.6800 H         1 UNK         0.0600 
    183 H183       -0.0855  -10.2081  -45.2918 H         1 UNK         0.0600 
    184 H184        0.0586  -13.1911  -45.8876 H         1 UNK         0.3000 
    185 H185        3.4810  -13.3169  -46.0708 H         1 UNK         0.0600 
    186 H186        2.0547  -15.9382  -45.4433 H         1 UNK         0.0600 
    187 H187        3.6438  -15.7440  -46.1657 H         1 UNK         0.0600 
    188 H188        3.3906  -15.3081  -44.4852 H         1 UNK         0.0600 
    189 H189        1.4287  -14.8492  -47.4179 H         1 UNK         0.3000 
    190 H190       -1.2739  -19.7157  -44.7950 H         1 UNK         0.3000 
    191 H191       -3.9146  -18.9425  -45.6287 H         1 UNK         0.0600 
    192 H192       -2.9083  -20.2703  -43.0529 H         1 UNK         0.0600 
    193 H193       -4.5144  -19.5860  -43.2773 H         1 UNK         0.0600 
    194 H194       -3.1053  -18.5408  -43.3296 H         1 UNK         0.0600 
    195 H195       -2.3449  -22.0881  -45.0261 H         1 UNK         0.3000 
    196 H196       -4.7037  -23.7036  -45.4311 H         1 UNK         0.0600 
    197 H197       -3.0753  -25.5795  -45.4823 H         1 UNK         0.0600 
    198 H198       -2.7618  -24.5239  -44.1138 H         1 UNK         0.0600 
    199 H199       -1.7302  -24.4498  -45.5413 H         1 UNK         0.0600 
    200 H200       -1.9445  -22.6870  -47.4940 H         1 UNK         0.3000 
    201 H201       -2.7742  -24.0004  -49.8662 H         1 UNK         0.0600 
    202 H202       -0.4774  -23.0878  -49.4728 H         1 UNK         0.0600 
    203 H203       -1.1155  -21.4497  -49.5802 H         1 UNK         0.0600 
    204 H204       -1.1631  -22.5103  -50.9838 H         1 UNK         0.0600 
    205 H205       -3.6087  -20.7395  -48.5959 H         1 UNK         0.3000 
    206 H206       -5.1681  -19.8892  -50.8170 H         1 UNK         0.0600 
    207 H207       -4.3502  -18.3182  -49.0632 H         1 UNK         0.0600 
    208 H208       -6.0968  -18.2328  -49.1938 H         1 UNK         0.0600 
    209 H209       -5.3590  -19.1039  -47.8571 H         1 UNK         0.0600 
    210 H210       -6.0802  -21.6215  -47.7990 H         1 UNK         0.3000 
    211 H211       -8.8659  -21.7844  -48.3172 H         1 UNK         0.0600 
    212 H212       -7.0663  -23.5887  -46.6139 H         1 UNK         0.0600 
    213 H213       -8.8227  -23.5309  -46.5341 H         1 UNK         0.0600 
    214 H214       -7.8788  -22.1230  -46.0703 H         1 UNK         0.0600 
    215 H215       -6.1897  -24.0186  -49.1259 H         1 UNK         0.3000 
    216 H216       -7.8631  -25.9825  -50.4451 H         1 UNK         0.0600 
    217 H217       -5.6579  -26.9571  -51.0756 H         1 UNK         0.0600 
    218 H218       -5.6772  -26.5361  -49.3701 H         1 UNK         0.0600 
    219 H219       -4.8345  -25.5028  -50.5232 H         1 UNK         0.0600 
    220 H220       -6.7025  -22.9353  -51.3972 H         1 UNK         0.3000 
    221 H221       -6.6656  -21.6709  -53.1641 H         1 UNK         0.0600 
    222 H222       -8.0766  -23.8648  -54.7739 H         1 UNK         0.0600 
    223 H223       -8.8724  -22.5818  -53.8630 H         1 UNK         0.0600 
    224 H224       -7.8729  -22.1878  -55.2532 H         1 UNK         0.0600 
    225 H225       -5.7012  -24.9804  -53.9189 H         1 UNK         0.3000 
    226 H226       -3.9364  -25.9513  -54.8566 H         1 UNK         0.0600 
    227 H227       -2.3980  -23.4187  -54.0805 H         1 UNK         0.0600 
    228 H228       -1.7220  -25.0236  -54.3194 H         1 UNK         0.0600 
    229 H229       -2.8025  -24.7226  -52.9670 H         1 UNK         0.0600 
    230 H230       -5.5898  -24.3687  -56.6183 H         1 UNK         0.3000 
    231 H231       -5.9014  -23.7550  -58.6991 H         1 UNK         0.0600 
    232 H232       -3.0643  -24.6870  -59.3847 H         1 UNK         0.0600 
    233 H233       -4.3442  -24.3108  -60.5254 H         1 UNK         0.0600 
    234 H234       -4.5175  -25.6831  -59.4422 H         1 UNK         0.0600 
    235 H235       -2.6463  -22.7519  -57.6677 H         1 UNK         0.3000 
    236 H236       -3.3043  -19.9406  -57.7431 H         1 UNK         0.0600 
    237 H237       -2.7050  -20.1696  -60.1386 H         1 UNK         0.0600 
    238 H238       -1.4139  -19.3245  -59.2992 H         1 UNK         0.0600 
    239 H239       -1.2182  -21.0210  -59.7280 H         1 UNK         0.0600 
    240 H240       -2.9450  -20.3117  -55.5196 H         1 UNK         0.3000 
    241 H241       -0.6675  -21.4804  -54.3892 H         1 UNK         0.0600 
    242 H242        1.8288  -19.0279  -53.6866 H         1 UNK         0.3800 
    243 H243        1.1703  -20.5467  -53.1543 H         1 UNK         0.3800 
    244 H244       -2.7173  -21.2141  -53.1113 H         1 UNK         0.0800 
    245 H245       -1.4102  -20.4531  -52.2678 H         1 UNK         0.0800 
    246 H246       -2.7849  -18.9181  -50.6976 H         1 UNK         0.0800 
    247 H247       -3.2183  -17.3157  -51.2372 H         1 UNK         0.0800 
@<TRIPOS>BOND
     1    1    2 1    
     2    1  127 1    
     3    1  128 1    
     4    1  129 1    
     5    2    3 2    
     6    2    4 am   BACKBONE|DICT|INTERRES
     7    4    5 1    
     8    4  130 1    
     9    5    6 1    
    10    5   65 1    
    11    5  131 1    
    12    6    7 1    
    13    6  132 1    
    14    6  133 1    
    15    7    8 1    
    16    8    9 1    
    17    8  134 1    
    18    8  135 1    
    19    9   10 ar   
    20    9   14 ar   
    21   10   11 ar   
    22   10  136 1    
    23   11   12 ar   
    24   11  126 1    
    25   12   13 ar   
    26   12  137 1    
    27   13   14 ar   
    28   13   15 1    
    29   14  138 1    
    30   15   16 1    
    31   15  139 1    
    32   15  140 1    
    33   16   17 1    
    34   17   18 1    
    35   17  141 1    
    36   17  142 1    
    37   18   19 1    
    38   18   67 1    
    39   18  143 1    
    40   19   20 am   BACKBONE|DICT|INTERRES
    41   19  144 1    
    42   20   21 2    
    43   20   22 1    
    44   22   23 1    
    45   22   24 1    
    46   22  145 1    
    47   23  146 1    
    48   23  147 1    
    49   23  148 1    
    50   24   25 am   BACKBONE|DICT|INTERRES
    51   24  149 1    
    52   25   26 2    
    53   25   27 1    
    54   27   28 1    
    55   27   29 1    
    56   27  150 1    
    57   28  151 1    
    58   28  152 1    
    59   28  153 1    
    60   29   30 am   BACKBONE|DICT|INTERRES
    61   29  154 1    
    62   30   31 2    
    63   30   32 1    
    64   32   33 1    
    65   32   34 1    
    66   32  155 1    
    67   33  156 1    
    68   33  157 1    
    69   33  158 1    
    70   34   35 am   BACKBONE|DICT|INTERRES
    71   34  159 1    
    72   35   36 2    
    73   35   37 1    
    74   37   38 1    
    75   37   39 1    
    76   37  160 1    
    77   38  161 1    
    78   38  162 1    
    79   38  163 1    
    80   39   40 am   BACKBONE|DICT|INTERRES
    81   39  164 1    
    82   40   41 2    
    83   40   42 1    
    84   42   43 1    
    85   42   44 1    
    86   42  165 1    
    87   43  166 1    
    88   43  167 1    
    89   43  168 1    
    90   44   45 am   BACKBONE|DICT|INTERRES
    91   44  169 1    
    92   45   46 2    
    93   45   47 1    
    94   47   48 1    
    95   47   49 1    
    96   47  170 1    
    97   48  171 1    
    98   48  172 1    
    99   48  173 1    
   100   49   50 am   BACKBONE|DICT|INTERRES
   101   49  174 1    
   102   50   51 2    
   103   50   52 1    
   104   52   53 1    
   105   52   54 1    
   106   52  175 1    
   107   53  176 1    
   108   53  177 1    
   109   53  178 1    
   110   54   55 am   BACKBONE|DICT|INTERRES
   111   54  179 1    
   112   55   56 2    
   113   55   57 1    
   114   57   58 1    
   115   57   59 1    
   116   57  180 1    
   117   58  181 1    
   118   58  182 1    
   119   58  183 1    
   120   59   60 am   BACKBONE|DICT|INTERRES
   121   59  184 1    
   122   60   61 2    
   123   60   62 1    
   124   62   63 1    
   125   62   64 1    
   126   62  185 1    
   127   63  186 1    
   128   63  187 1    
   129   63  188 1    
   130   64   65 am   BACKBONE|DICT|INTERRES
   131   64  189 1    
   132   65   66 2    
   133   67   68 2    
   134   67   69 am   BACKBONE|DICT|INTERRES
   135   69   70 1    
   136   69  190 1    
   137   70   71 1    
   138   70   72 1    
   139   70  191 1    
   140   71  192 1    
   141   71  193 1    
   142   71  194 1    
   143   72   73 2    
   144   72   74 am   BACKBONE|DICT|INTERRES
   145   74   75 1    
   146   74  195 1    
   147   75   76 1    
   148   75   77 1    
   149   75  196 1    
   150   76  197 1    
   151   76  198 1    
   152   76  199 1    
   153   77   78 2    
   154   77   79 am   BACKBONE|DICT|INTERRES
   155   79   80 1    
   156   79  200 1    
   157   80   81 1    
   158   80   82 1    
   159   80  201 1    
   160   81  202 1    
   161   81  203 1    
   162   81  204 1    
   163   82   83 2    
   164   82   84 am   BACKBONE|DICT|INTERRES
   165   84   85 1    
   166   84  205 1    
   167   85   86 1    
   168   85   87 1    
   169   85  206 1    
   170   86  207 1    
   171   86  208 1    
   172   86  209 1    
   173   87   88 2    
   174   87   89 am   BACKBONE|DICT|INTERRES
   175   89   90 1    
   176   89  210 1    
   177   90   91 1    
   178   90   92 1    
   179   90  211 1    
   180   91  212 1    
   181   91  213 1    
   182   91  214 1    
   183   92   93 2    
   184   92   94 am   BACKBONE|DICT|INTERRES
   185   94   95 1    
   186   94  215 1    
   187   95   96 1    
   188   95   97 1    
   189   95  216 1    
   190   96  217 1    
   191   96  218 1    
   192   96  219 1    
   193   97   98 2    
   194   97   99 am   BACKBONE|DICT|INTERRES
   195   99  100 1    
   196   99  220 1    
   197  100  101 1    
   198  100  102 1    
   199  100  221 1    
   200  101  222 1    
   201  101  223 1    
   202  101  224 1    
   203  102  103 2    
   204  102  104 am   BACKBONE|DICT|INTERRES
   205  104  105 1    
   206  104  225 1    
   207  105  106 1    
   208  105  107 1    
   209  105  226 1    
   210  106  227 1    
   211  106  228 1    
   212  106  229 1    
   213  107  108 2    
   214  107  109 am   BACKBONE|DICT|INTERRES
   215  109  110 1    
   216  109  230 1    
   217  110  111 1    
   218  110  112 1    
   219  110  231 1    
   220  111  232 1    
   221  111  233 1    
   222  111  234 1    
   223  112  113 2    
   224  112  114 am   BACKBONE|DICT|INTERRES
   225  114  115 1    
   226  114  235 1    
   227  115  116 1    
   228  115  117 1    
   229  115  236 1    
   230  116  237 1    
   231  116  238 1    
   232  116  239 1    
   233  117  118 2    
   234  117  119 am   BACKBONE|DICT|INTERRES
   235  119  120 1    
   236  119  240 1    
   237  120  121 1    
   238  120  124 1    
   239  120  241 1    
   240  121  122 am   BACKBONE|DICT|INTERRES
   241  121  123 2    
   242  122  242 1    
   243  122  243 1    
   244  124  125 1    
   245  124  244 1    
   246  124  245 1    
   247  125  126 1    
   248  126  246 1    
   249  126  247 1    
@<TRIPOS>SUBSTRUCTURE
     1 UNK         1 GROUP             0       ****    0 ROOT    
