@<TRIPOS>MOLECULE
3R540
247   249    1
SMALL
USER_CHARGES


@<TRIPOS>ATOM
      1 CA         -2.2520  -15.4191  -53.0989 C.3       0 UNK        -0.1800 
      2 C          -1.1778  -14.8393  -52.1920 C.2       0 UNK         0.5000 
      3 O          -0.4314  -13.9545  -52.6124 O.2       0 UNK        -0.5000 
      4 N          -1.0905  -15.3447  -50.9582 N.am      1 UNK        -0.5000 
      5 CA         -0.1381  -14.9082  -49.9337 C.3       1 UNK         0.1400 
      6 C6          0.0547  -15.9704  -48.8209 C.3       23 UNK        -0.0398 
      7 S7          0.3886  -17.6409  -49.4651 S.3       23 UNK        -0.2404 
      8 C8          2.1673  -17.5760  -49.8504 C.3       23 UNK        -0.0205 
      9 C9          2.6481  -18.8453  -50.5485 C.ar      23 UNK        -0.0193 
     10 C10         2.0310  -19.2769  -51.7283 C.ar      23 UNK        -0.1150 
     11 C11         2.4571  -20.4394  -52.3784 C.ar      23 UNK        -0.0193 
     12 C12         3.5531  -21.1396  -51.8696 C.ar      23 UNK        -0.1150 
     13 C13         4.1909  -20.7166  -50.7003 C.ar      23 UNK        -0.0193 
     14 C14         3.7267  -19.5755  -50.0359 C.ar      23 UNK        -0.1150 
     15 C15         5.4054  -21.4788  -50.1909 C.3       23 UNK        -0.0205 
     16 S16         4.9842  -23.1539  -49.6113 S.3       23 UNK        -0.2404 
     17 C17         4.4127  -22.8355  -47.9112 C.3       23 UNK        -0.0398 
     18 CA          3.0187  -23.4467  -47.6183 C.3       11 UNK         0.1400 
     19 N           2.8990  -23.8360  -46.2091 N.am      11 UNK        -0.5000 
     20 C           1.8714  -24.5142  -45.6787 C.2       10 UNK         0.5000 
     21 O           0.9338  -24.9569  -46.3417 O.2       10 UNK        -0.5000 
     22 CA          1.8672  -24.6755  -44.1454 C.3       10 UNK         0.1400 
     23 CB          2.5065  -26.0127  -43.7441 C.3       10 UNK        -0.1800 
     24 N           2.5558  -23.5810  -43.4526 N.am      10 UNK        -0.5000 
     25 C           2.1232  -22.3133  -43.4091 C.2       9 UNK         0.5000 
     26 O           1.0773  -21.9293  -43.9351 O.2       9 UNK        -0.5000 
     27 CA          3.0646  -21.2982  -42.7492 C.3       9 UNK         0.1400 
     28 CB          3.7399  -20.4291  -43.8232 C.3       9 UNK        -0.1800 
     29 N           2.3358  -20.4262  -41.8302 N.am      9 UNK        -0.5000 
     30 C           2.6330  -20.2802  -40.5316 C.2       8 UNK         0.5000 
     31 O           3.4926  -20.9428  -39.9484 O.2       8 UNK        -0.5000 
     32 CA          1.8677  -19.2053  -39.7433 C.3       8 UNK         0.1400 
     33 CB          2.4611  -17.8147  -40.0226 C.3       8 UNK        -0.1800 
     34 N           0.4444  -19.1888  -40.0714 N.am      8 UNK        -0.5000 
     35 C          -0.5311  -19.6455  -39.2734 C.2       7 UNK         0.5000 
     36 O          -0.3273  -20.1742  -38.1796 O.2       7 UNK        -0.5000 
     37 CA         -1.9861  -19.4692  -39.7561 C.3       7 UNK         0.1400 
     38 CB         -2.6391  -18.2654  -39.0595 C.3       7 UNK        -0.1800 
     39 N          -2.0928  -19.2865  -41.2022 N.am      7 UNK        -0.5000 
     40 C          -1.9189  -20.2641  -42.1024 C.2       6 UNK         0.5000 
     41 O          -1.7499  -21.4449  -41.7994 O.2       6 UNK        -0.5000 
     42 CA         -1.9195  -19.8542  -43.5884 C.3       6 UNK         0.1400 
     43 CB         -3.3037  -20.1086  -44.2030 C.3       6 UNK        -0.1800 
     44 N          -1.5534  -18.4558  -43.8323 N.am      6 UNK        -0.5000 
     45 C          -0.4131  -17.8539  -43.4621 C.2       5 UNK         0.5000 
     46 O           0.5123  -18.4392  -42.8998 O.2       5 UNK        -0.5000 
     47 CA         -0.3060  -16.3380  -43.7225 C.3       5 UNK         0.1400 
     48 CB          0.5690  -16.0561  -44.9523 C.3       5 UNK        -0.1800 
     49 N          -1.6020  -15.6790  -43.9052 N.am      5 UNK        -0.5000 
     50 C          -2.5692  -15.5754  -42.9859 C.2       4 UNK         0.5000 
     51 O          -2.4663  -16.0426  -41.8499 O.2       4 UNK        -0.5000 
     52 CA         -3.8727  -14.8697  -43.4267 C.3       4 UNK         0.1400 
     53 CB         -4.8250  -14.6059  -42.2464 C.3       4 UNK        -0.1800 
     54 N          -3.6612  -13.6086  -44.1458 N.am      4 UNK        -0.5000 
     55 C          -3.2041  -13.4588  -45.3967 C.2       3 UNK         0.5000 
     56 O          -2.8385  -14.4032  -46.1013 O.2       3 UNK        -0.5000 
     57 CA         -3.1713  -12.0245  -45.9677 C.3       3 UNK         0.1400 
     58 CB         -3.1944  -10.9134  -44.8930 C.3       3 UNK        -0.1800 
     59 N          -2.0586  -11.8272  -46.8994 N.am      3 UNK        -0.5000 
     60 C          -0.7482  -11.8856  -46.6300 C.2       2 UNK         0.5000 
     61 O          -0.2782  -12.1013  -45.5111 O.2       2 UNK        -0.5000 
     62 CA          0.1903  -11.6902  -47.8390 C.3       2 UNK         0.1400 
     63 CB          1.5694  -11.1489  -47.4226 C.3       2 UNK        -0.1800 
     64 N           0.3806  -12.9372  -48.5791 N.am      2 UNK        -0.5000 
     65 C          -0.5502  -13.5512  -49.3217 C.2       1 UNK         0.5000 
     66 O          -1.6819  -13.0938  -49.5090 O.2       1 UNK        -0.5000 
     67 C           1.8761  -22.4943  -48.0308 C.2       11 UNK         0.5000 
     68 O           1.2515  -22.6862  -49.0731 O.2       11 UNK        -0.5000 
     69 N           1.5744  -21.5291  -47.1515 N.am      12 UNK        -0.5000 
     70 CA          0.4678  -20.5939  -47.3147 C.3       12 UNK         0.1400 
     71 CB          0.6903  -19.3841  -46.4040 C.3       12 UNK        -0.1800 
     72 C          -0.9068  -21.2351  -47.0578 C.2       12 UNK         0.5000 
     73 O          -1.8966  -20.7799  -47.6280 O.2       12 UNK        -0.5000 
     74 N          -0.9599  -22.2918  -46.2348 N.am      13 UNK        -0.5000 
     75 CA         -2.1640  -23.0989  -46.0289 C.3       13 UNK         0.1400 
     76 CB         -1.9985  -24.0070  -44.8025 C.3       13 UNK        -0.1800 
     77 C          -2.5369  -23.9007  -47.2883 C.2       13 UNK         0.5000 
     78 O          -3.7129  -23.9386  -47.6487 O.2       13 UNK        -0.5000 
     79 N          -1.5301  -24.4561  -47.9798 N.am      14 UNK        -0.5000 
     80 CA         -1.6785  -25.0856  -49.2968 C.3       14 UNK         0.1400 
     81 CB         -0.3753  -25.8057  -49.6735 C.3       14 UNK        -0.1800 
     82 C          -2.0877  -24.0802  -50.3930 C.2       14 UNK         0.5000 
     83 O          -2.8517  -24.4299  -51.2937 O.2       14 UNK        -0.5000 
     84 N          -1.6118  -22.8340  -50.2708 N.am      15 UNK        -0.5000 
     85 CA         -2.0028  -21.6997  -51.1089 C.3       15 UNK         0.1400 
     86 CB         -0.9927  -20.5667  -50.9267 C.3       15 UNK        -0.1800 
     87 C          -3.4237  -21.1775  -50.8295 C.2       15 UNK         0.5000 
     88 O          -3.9311  -20.3886  -51.6270 O.2       15 UNK        -0.5000 
     89 N          -4.0299  -21.6107  -49.7143 N.am      16 UNK        -0.5000 
     90 CA         -5.3109  -21.1584  -49.1698 C.3       16 UNK         0.1400 
     91 CB         -6.4766  -21.5710  -50.0921 C.3       16 UNK        -0.1800 
     92 C          -5.2882  -19.6558  -48.8188 C.2       16 UNK         0.5000 
     93 O          -6.2503  -18.9347  -49.0894 O.2       16 UNK        -0.5000 
     94 N          -4.1678  -19.2119  -48.2287 N.am      17 UNK        -0.5000 
     95 CA         -3.8498  -17.8315  -47.8692 C.3       17 UNK         0.1400 
     96 CB         -4.7489  -17.3599  -46.7025 C.3       17 UNK        -0.1800 
     97 C          -3.8809  -16.9176  -49.1117 C.2       17 UNK         0.5000 
     98 O          -3.1233  -17.1513  -50.0540 O.2       17 UNK        -0.5000 
     99 N          -4.7551  -15.9066  -49.1059 N.am      18 UNK        -0.5000 
    100 CA        -4.9270  -14.9451  -50.1923 C.3       18 UNK         0.1400 
    101 CB        -5.5520  -13.6673  -49.6099 C.3       18 UNK        -0.1800 
    102 C         -5.7647  -15.4772  -51.3757 C.2       18 UNK         0.5000 
    103 O         -5.8362  -14.7935  -52.3975 O.2       18 UNK        -0.5000 
    104 N         -6.4015  -16.6526  -51.2364 N.am      19 UNK        -0.5000 
    105 CA        -7.3003  -17.2205  -52.2503 C.3       19 UNK         0.1400 
    106 CB        -8.1794  -18.3077  -51.6171 C.3       19 UNK        -0.1800 
    107 C         -6.5832  -17.7609  -53.5046 C.2       19 UNK         0.5000 
    108 O         -7.2282  -17.8825  -54.5469 O.2       19 UNK        -0.5000 
    109 N         -5.2771  -18.0459  -53.3919 N.am      20 UNK        -0.5000 
    110 CA        -4.3652  -18.4529  -54.4659 C.3       20 UNK         0.1400 
    111 CB        -4.2216  -17.3268  -55.5138 C.3       20 UNK        -0.1800 
    112 C         -4.7381  -19.8105  -55.0985 C.2       20 UNK         0.5000 
    113 O         -4.9621  -19.8944  -56.3080 O.2       20 UNK        -0.5000 
    114 N         -4.7848  -20.8535  -54.2609 N.am      21 UNK        -0.5000 
    115 CA        -4.8716  -22.2550  -54.6733 C.3       21 UNK         0.1400 
    116 CB        -5.4946  -23.0812  -53.5306 C.3       21 UNK        -0.1800 
    117 C         -3.4703  -22.7382  -55.1045 C.2       21 UNK         0.5000 
    118 O         -3.0511  -22.4516  -56.2269 O.2       21 UNK        -0.5000 
    119 N         -2.7457  -23.4004  -54.1939 N.am      22 UNK        -0.5000 
    120 CA        -1.3364  -23.8029  -54.3341 C.3       22 UNK         0.1400 
    121 C         -1.0919  -24.9569  -55.3530 C.2       22 UNK         0.5000 
    122 N          0.1602  -25.2894  -55.6386 N.am      22 UNK        -0.7600 
    123 O         -2.0181  -25.5875  -55.8590 O.2       22 UNK        -0.5000 
    124 C124       -0.3860  -22.5761  -54.5285 C.3       23 UNK        -0.0398 
    125 S125        1.0231  -22.6022  -53.3720 S.3       23 UNK        -0.2404 
    126 C126        1.7329  -20.9390  -53.6231 C.3       23 UNK        -0.0205 
    127 H127       -2.9887  -14.6545  -53.3455 H         1 UNK         0.0600 
    128 H128       -2.7724  -16.2539  -52.6291 H         1 UNK         0.0600 
    129 H129       -1.8044  -15.7780  -54.0255 H         1 UNK         0.0600 
    130 H130       -1.7453  -16.0668  -50.6647 H         1 UNK         0.3000 
    131 H131        0.8266  -14.7603  -50.4234 H         1 UNK         0.0600 
    132 H132        0.8681  -15.6914  -48.1495 H         1 UNK         0.0800 
    133 H133       -0.8429  -16.0361  -48.2030 H         1 UNK         0.0800 
    134 H134        2.7230  -17.4067  -48.9270 H         1 UNK         0.0800 
    135 H135        2.3674  -16.7240  -50.5010 H         1 UNK         0.0800 
    136 H136        1.1960  -18.7160  -52.1240 H         1 UNK         0.1150 
    137 H137        3.9008  -22.0286  -52.3771 H         1 UNK         0.1150 
    138 H138        4.2182  -19.2442  -49.1322 H         1 UNK         0.1150 
    139 H139        6.1247  -21.5674  -51.0062 H         1 UNK         0.0800 
    140 H140        5.9162  -20.9275  -49.3999 H         1 UNK         0.0800 
    141 H141        4.4405  -21.7676  -47.6864 H         1 UNK         0.0800 
    142 H142        5.1627  -23.2874  -47.2604 H         1 UNK         0.0800 
    143 H143        2.9068  -24.3636  -48.2017 H         1 UNK         0.0600 
    144 H144        3.6322  -23.5273  -45.5888 H         1 UNK         0.3000 
    145 H145        0.8274  -24.6819  -43.8140 H         1 UNK         0.0600 
    146 H146        2.4435  -26.1726  -42.6676 H         1 UNK         0.0600 
    147 H147        1.9968  -26.8485  -44.2256 H         1 UNK         0.0600 
    148 H148        3.5578  -26.0601  -44.0307 H         1 UNK         0.0600 
    149 H149        3.4268  -23.8174  -42.9987 H         1 UNK         0.3000 
    150 H150        3.8473  -21.8492  -42.2239 H         1 UNK         0.0600 
    151 H151        4.2739  -21.0414  -44.5508 H         1 UNK         0.0600 
    152 H152        4.4663  -19.7506  -43.3756 H         1 UNK         0.0600 
    153 H153        3.0147  -19.8233  -44.3675 H         1 UNK         0.0600 
    154 H154        1.6040  -19.8557  -42.2460 H         1 UNK         0.3000 
    155 H155        2.0091  -19.4143  -38.6808 H         1 UNK         0.0600 
    156 H156        2.3635  -17.5341  -41.0720 H         1 UNK         0.0600 
    157 H157        3.5226  -17.7860  -39.7730 H         1 UNK         0.0600 
    158 H158        1.9662  -17.0492  -39.4248 H         1 UNK         0.0600 
    159 H159        0.2029  -18.8181  -40.9836 H         1 UNK         0.3000 
    160 H160       -2.5397  -20.3679  -39.4761 H         1 UNK         0.0600 
    161 H161       -2.1264  -17.3338  -39.3031 H         1 UNK         0.0600 
    162 H162       -2.6154  -18.3800  -37.9751 H         1 UNK         0.0600 
    163 H163       -3.6839  -18.1586  -39.3520 H         1 UNK         0.0600 
    164 H164       -2.2336  -18.3385  -41.5284 H         1 UNK         0.3000 
    165 H165       -1.1886  -20.4853  -44.0937 H         1 UNK         0.0600 
    166 H166       -3.2846  -19.9809  -45.2852 H         1 UNK         0.0600 
    167 H167       -3.6433  -21.1247  -43.9996 H         1 UNK         0.0600 
    168 H168       -4.0544  -19.4307  -43.7952 H         1 UNK         0.0600 
    169 H169       -2.2519  -17.8846  -44.2821 H         1 UNK         0.3000 
    170 H170        0.1760  -15.8951  -42.8487 H         1 UNK         0.0600 
    171 H171        1.5401  -16.5459  -44.8671 H         1 UNK         0.0600 
    172 H172        0.0970  -16.4132  -45.8666 H         1 UNK         0.0600 
    173 H173        0.7516  -14.9873  -45.0680 H         1 UNK         0.0600 
    174 H174       -1.7868  -15.2671  -44.8166 H         1 UNK         0.3000 
    175 H175       -4.3804  -15.5587  -44.1035 H         1 UNK         0.0600 
    176 H176       -4.3802  -13.9297  -41.5153 H         1 UNK         0.0600 
    177 H177       -5.7624  -14.1649  -42.5858 H         1 UNK         0.0600 
    178 H178       -5.0767  -15.5321  -41.7279 H         1 UNK         0.0600 
    179 H179       -3.9003  -12.7721  -43.6336 H         1 UNK         0.3000 
    180 H180       -4.0790  -11.9224  -46.5639 H         1 UNK         0.0600 
    181 H181       -2.3718  -11.0127  -44.1837 H         1 UNK         0.0600 
    182 H182       -4.1263  -10.9261  -44.3268 H         1 UNK         0.0600 
    183 H183       -3.1181   -9.9269  -45.3505 H         1 UNK         0.0600 
    184 H184       -2.3170  -11.7892  -47.8783 H         1 UNK         0.3000 
    185 H185       -0.2654  -10.9553  -48.5062 H         1 UNK         0.0600 
    186 H186        2.1105  -11.8567  -46.7931 H         1 UNK         0.0600 
    187 H187        2.1883  -10.9349  -48.2941 H         1 UNK         0.0600 
    188 H188        1.4694  -10.2195  -46.8605 H         1 UNK         0.0600 
    189 H189        1.2825  -13.3758  -48.4647 H         1 UNK         0.3000 
    190 H190        2.0872  -21.4727  -46.2849 H         1 UNK         0.3000 
    191 H191        0.4757  -20.2483  -48.3480 H         1 UNK         0.0600 
    192 H192       -0.1458  -18.6888  -46.4794 H         1 UNK         0.0600 
    193 H193        1.5936  -18.8409  -46.6816 H         1 UNK         0.0600 
    194 H194        0.7846  -19.6833  -45.3618 H         1 UNK         0.0600 
    195 H195       -0.1212  -22.5721  -45.7441 H         1 UNK         0.3000 
    196 H196       -2.9918  -22.4186  -45.8275 H         1 UNK         0.0600 
    197 H197       -2.9461  -24.4818  -44.5463 H         1 UNK         0.0600 
    198 H198       -1.6721  -23.4398  -43.9302 H         1 UNK         0.0600 
    199 H199       -1.2777  -24.8039  -44.9781 H         1 UNK         0.0600 
    200 H200       -0.5938  -24.4228  -47.5891 H         1 UNK         0.3000 
    201 H201       -2.4706  -25.8336  -49.2233 H         1 UNK         0.0600 
    202 H202       -0.1058  -26.5507  -48.9247 H         1 UNK         0.0600 
    203 H203        0.4591  -25.1108  -49.7682 H         1 UNK         0.0600 
    204 H204       -0.4788  -26.3238  -50.6277 H         1 UNK         0.0600 
    205 H205       -0.9233  -22.6502  -49.5515 H         1 UNK         0.3000 
    206 H206       -1.9592  -22.0142  -52.1474 H         1 UNK         0.0600 
    207 H207        0.0279  -20.9455  -50.9088 H         1 UNK         0.0600 
    208 H208       -1.0678  -19.8447  -51.7403 H         1 UNK         0.0600 
    209 H209       -1.1669  -20.0229  -50.0004 H         1 UNK         0.0600 
    210 H210       -3.5215  -22.2596  -49.1278 H         1 UNK         0.3000 
    211 H211       -5.4428  -21.6830  -48.2226 H         1 UNK         0.0600 
    212 H212       -6.3988  -21.1160  -51.0787 H         1 UNK         0.0600 
    213 H213       -7.4374  -21.2776  -49.6678 H         1 UNK         0.0600 
    214 H214       -6.4999  -22.6520  -50.2292 H         1 UNK         0.0600 
    215 H215       -3.4047  -19.8732  -48.0921 H         1 UNK         0.3000 
    216 H216       -2.8171  -17.8321  -47.5169 H         1 UNK         0.0600 
    217 H217       -4.4955  -16.3482  -46.3920 H         1 UNK         0.0600 
    218 H218       -4.6249  -18.0001  -45.8306 H         1 UNK         0.0600 
    219 H219       -5.8075  -17.3683  -46.9632 H         1 UNK         0.0600 
    220 H220       -5.3583  -15.7955  -48.3044 H         1 UNK         0.3000 
    221 H221       -3.9430  -14.6829  -50.5854 H         1 UNK         0.0600 
    222 H222       -6.5411  -13.8568  -49.1914 H         1 UNK         0.0600 
    223 H223       -4.9253  -13.2492  -48.8216 H         1 UNK         0.0600 
    224 H224       -5.6601  -12.8986  -50.3762 H         1 UNK         0.0600 
    225 H225       -6.2868  -17.1864  -50.3818 H         1 UNK         0.3000 
    226 H226       -7.9643  -16.4205  -52.5847 H         1 UNK         0.0600 
    227 H227       -7.5919  -19.1771  -51.3305 H         1 UNK         0.0600 
    228 H228       -8.6931  -17.9390  -50.7292 H         1 UNK         0.0600 
    229 H229       -8.9422  -18.6489  -52.3179 H         1 UNK         0.0600 
    230 H230       -4.8625  -17.9753  -52.4724 H         1 UNK         0.3000 
    231 H231       -3.3892  -18.5877  -53.9968 H         1 UNK         0.0600 
    232 H232       -3.4108  -17.5453  -56.2095 H         1 UNK         0.0600 
    233 H233       -4.0017  -16.3692  -55.0450 H         1 UNK         0.0600 
    234 H234       -5.1302  -17.1993  -56.1030 H         1 UNK         0.0600 
    235 H235       -4.5724  -20.6809  -53.2792 H         1 UNK         0.3000 
    236 H236       -5.5293  -22.3391  -55.5409 H         1 UNK         0.0600 
    237 H237       -6.5167  -22.7579  -53.3326 H         1 UNK         0.0600 
    238 H238       -5.5364  -24.1398  -53.7902 H         1 UNK         0.0600 
    239 H239       -4.9389  -22.9897  -52.5977 H         1 UNK         0.0600 
    240 H240       -3.1732  -23.6583  -53.3124 H         1 UNK         0.3000 
    241 H241       -1.1145  -24.2604  -53.3700 H         1 UNK         0.0600 
    242 H242        0.3335  -26.0447  -56.2837 H         1 UNK         0.3800 
    243 H243        0.9394  -24.8087  -55.2149 H         1 UNK         0.3800 
    244 H244       -0.0203  -22.4995  -55.5540 H         1 UNK         0.0800 
    245 H245       -0.9224  -21.6440  -54.3473 H         1 UNK         0.0800 
    246 H246        2.4283  -20.9669  -54.4629 H         1 UNK         0.0800 
    247 H247        0.9413  -20.2410  -53.8991 H         1 UNK         0.0800 
@<TRIPOS>BOND
     1    1    2 1    
     2    1  127 1    
     3    1  128 1    
     4    1  129 1    
     5    2    3 2    
     6    2    4 am   BACKBONE|DICT|INTERRES
     7    4    5 1    
     8    4  130 1    
     9    5    6 1    
    10    5   65 1    
    11    5  131 1    
    12    6    7 1    
    13    6  132 1    
    14    6  133 1    
    15    7    8 1    
    16    8    9 1    
    17    8  134 1    
    18    8  135 1    
    19    9   10 ar   
    20    9   14 ar   
    21   10   11 ar   
    22   10  136 1    
    23   11   12 ar   
    24   11  126 1    
    25   12   13 ar   
    26   12  137 1    
    27   13   14 ar   
    28   13   15 1    
    29   14  138 1    
    30   15   16 1    
    31   15  139 1    
    32   15  140 1    
    33   16   17 1    
    34   17   18 1    
    35   17  141 1    
    36   17  142 1    
    37   18   19 1    
    38   18   67 1    
    39   18  143 1    
    40   19   20 am   BACKBONE|DICT|INTERRES
    41   19  144 1    
    42   20   21 2    
    43   20   22 1    
    44   22   23 1    
    45   22   24 1    
    46   22  145 1    
    47   23  146 1    
    48   23  147 1    
    49   23  148 1    
    50   24   25 am   BACKBONE|DICT|INTERRES
    51   24  149 1    
    52   25   26 2    
    53   25   27 1    
    54   27   28 1    
    55   27   29 1    
    56   27  150 1    
    57   28  151 1    
    58   28  152 1    
    59   28  153 1    
    60   29   30 am   BACKBONE|DICT|INTERRES
    61   29  154 1    
    62   30   31 2    
    63   30   32 1    
    64   32   33 1    
    65   32   34 1    
    66   32  155 1    
    67   33  156 1    
    68   33  157 1    
    69   33  158 1    
    70   34   35 am   BACKBONE|DICT|INTERRES
    71   34  159 1    
    72   35   36 2    
    73   35   37 1    
    74   37   38 1    
    75   37   39 1    
    76   37  160 1    
    77   38  161 1    
    78   38  162 1    
    79   38  163 1    
    80   39   40 am   BACKBONE|DICT|INTERRES
    81   39  164 1    
    82   40   41 2    
    83   40   42 1    
    84   42   43 1    
    85   42   44 1    
    86   42  165 1    
    87   43  166 1    
    88   43  167 1    
    89   43  168 1    
    90   44   45 am   BACKBONE|DICT|INTERRES
    91   44  169 1    
    92   45   46 2    
    93   45   47 1    
    94   47   48 1    
    95   47   49 1    
    96   47  170 1    
    97   48  171 1    
    98   48  172 1    
    99   48  173 1    
   100   49   50 am   BACKBONE|DICT|INTERRES
   101   49  174 1    
   102   50   51 2    
   103   50   52 1    
   104   52   53 1    
   105   52   54 1    
   106   52  175 1    
   107   53  176 1    
   108   53  177 1    
   109   53  178 1    
   110   54   55 am   BACKBONE|DICT|INTERRES
   111   54  179 1    
   112   55   56 2    
   113   55   57 1    
   114   57   58 1    
   115   57   59 1    
   116   57  180 1    
   117   58  181 1    
   118   58  182 1    
   119   58  183 1    
   120   59   60 am   BACKBONE|DICT|INTERRES
   121   59  184 1    
   122   60   61 2    
   123   60   62 1    
   124   62   63 1    
   125   62   64 1    
   126   62  185 1    
   127   63  186 1    
   128   63  187 1    
   129   63  188 1    
   130   64   65 am   BACKBONE|DICT|INTERRES
   131   64  189 1    
   132   65   66 2    
   133   67   68 2    
   134   67   69 am   BACKBONE|DICT|INTERRES
   135   69   70 1    
   136   69  190 1    
   137   70   71 1    
   138   70   72 1    
   139   70  191 1    
   140   71  192 1    
   141   71  193 1    
   142   71  194 1    
   143   72   73 2    
   144   72   74 am   BACKBONE|DICT|INTERRES
   145   74   75 1    
   146   74  195 1    
   147   75   76 1    
   148   75   77 1    
   149   75  196 1    
   150   76  197 1    
   151   76  198 1    
   152   76  199 1    
   153   77   78 2    
   154   77   79 am   BACKBONE|DICT|INTERRES
   155   79   80 1    
   156   79  200 1    
   157   80   81 1    
   158   80   82 1    
   159   80  201 1    
   160   81  202 1    
   161   81  203 1    
   162   81  204 1    
   163   82   83 2    
   164   82   84 am   BACKBONE|DICT|INTERRES
   165   84   85 1    
   166   84  205 1    
   167   85   86 1    
   168   85   87 1    
   169   85  206 1    
   170   86  207 1    
   171   86  208 1    
   172   86  209 1    
   173   87   88 2    
   174   87   89 am   BACKBONE|DICT|INTERRES
   175   89   90 1    
   176   89  210 1    
   177   90   91 1    
   178   90   92 1    
   179   90  211 1    
   180   91  212 1    
   181   91  213 1    
   182   91  214 1    
   183   92   93 2    
   184   92   94 am   BACKBONE|DICT|INTERRES
   185   94   95 1    
   186   94  215 1    
   187   95   96 1    
   188   95   97 1    
   189   95  216 1    
   190   96  217 1    
   191   96  218 1    
   192   96  219 1    
   193   97   98 2    
   194   97   99 am   BACKBONE|DICT|INTERRES
   195   99  100 1    
   196   99  220 1    
   197  100  101 1    
   198  100  102 1    
   199  100  221 1    
   200  101  222 1    
   201  101  223 1    
   202  101  224 1    
   203  102  103 2    
   204  102  104 am   BACKBONE|DICT|INTERRES
   205  104  105 1    
   206  104  225 1    
   207  105  106 1    
   208  105  107 1    
   209  105  226 1    
   210  106  227 1    
   211  106  228 1    
   212  106  229 1    
   213  107  108 2    
   214  107  109 am   BACKBONE|DICT|INTERRES
   215  109  110 1    
   216  109  230 1    
   217  110  111 1    
   218  110  112 1    
   219  110  231 1    
   220  111  232 1    
   221  111  233 1    
   222  111  234 1    
   223  112  113 2    
   224  112  114 am   BACKBONE|DICT|INTERRES
   225  114  115 1    
   226  114  235 1    
   227  115  116 1    
   228  115  117 1    
   229  115  236 1    
   230  116  237 1    
   231  116  238 1    
   232  116  239 1    
   233  117  118 2    
   234  117  119 am   BACKBONE|DICT|INTERRES
   235  119  120 1    
   236  119  240 1    
   237  120  121 1    
   238  120  124 1    
   239  120  241 1    
   240  121  122 am   BACKBONE|DICT|INTERRES
   241  121  123 2    
   242  122  242 1    
   243  122  243 1    
   244  124  125 1    
   245  124  244 1    
   246  124  245 1    
   247  125  126 1    
   248  126  246 1    
   249  126  247 1    
@<TRIPOS>SUBSTRUCTURE
     1 UNK         1 GROUP             0       ****    0 ROOT    
