@<TRIPOS>MOLECULE
3R540
247   249    1
SMALL
USER_CHARGES


@<TRIPOS>ATOM
      1 CA          3.4518  -17.1435  -47.5494 C.3       0 UNK        -0.1800 
      2 C           2.7711  -16.7095  -48.8455 C.2       0 UNK         0.5000 
      3 O           3.1607  -17.1710  -49.9154 O.2       0 UNK        -0.5000 
      4 N           1.7568  -15.8336  -48.8100 N.am      1 UNK        -0.5000 
      5 CA          1.1964  -15.1646  -47.6253 C.3       1 UNK         0.1400 
      6 C6         -0.2136  -14.5857  -47.9034 C.3       23 UNK        -0.0398 
      7 S7         -1.3903  -15.8707  -48.4423 S.3       23 UNK        -0.2404 
      8 C8         -2.9426  -15.3036  -47.6842 C.3       23 UNK        -0.0205 
      9 C9         -4.0987  -16.2470  -47.9912 C.ar      23 UNK        -0.0193 
     10 C10        -4.6288  -16.3109  -49.2831 C.ar      23 UNK        -0.1150 
     11 C11        -5.7228  -17.1345  -49.5642 C.ar      23 UNK        -0.0193 
     12 C12        -6.2793  -17.9080  -48.5422 C.ar      23 UNK        -0.1150 
     13 C13        -5.7631  -17.8600  -47.2430 C.ar      23 UNK        -0.0193 
     14 C14        -4.6706  -17.0217  -46.9772 C.ar      23 UNK        -0.1150 
     15 C15        -6.4619  -18.6662  -46.1465 C.3       23 UNK        -0.0205 
     16 S16        -5.4148  -19.1229  -44.7226 S.3       23 UNK        -0.2404 
     17 C17        -4.5495  -20.6081  -45.3321 C.3       23 UNK        -0.0398 
     18 CA         -3.2752  -20.2948  -46.1501 C.3       11 UNK         0.1400 
     19 N          -2.2788  -19.5183  -45.4071 N.am      11 UNK        -0.5000 
     20 C          -1.1920  -18.9653  -45.9647 C.2       10 UNK         0.5000 
     21 O          -0.9092  -19.0644  -47.1582 O.2       10 UNK        -0.5000 
     22 CA         -0.2199  -18.2413  -45.0166 C.3       10 UNK         0.1400 
     23 CB         -0.7960  -16.8982  -44.5390 C.3       10 UNK        -0.1800 
     24 N           0.1408  -19.0677  -43.8649 N.am      10 UNK        -0.5000 
     25 C           0.7748  -20.2470  -43.9458 C.2       9 UNK         0.5000 
     26 O           1.1675  -20.7461  -44.9997 O.2       9 UNK        -0.5000 
     27 CA          0.9630  -21.0225  -42.6320 C.3       9 UNK         0.1400 
     28 CB          2.2059  -20.5255  -41.8783 C.3       9 UNK        -0.1800 
     29 N          -0.2149  -20.9335  -41.7689 N.am      9 UNK        -0.5000 
     30 C          -1.3972  -21.5035  -42.0465 C.2       8 UNK         0.5000 
     31 O          -1.6106  -22.1899  -43.0450 O.2       8 UNK        -0.5000 
     32 CA         -2.5508  -21.2138  -41.0691 C.3       8 UNK         0.1400 
     33 CB         -2.4721  -22.1382  -39.8451 C.3       8 UNK        -0.1800 
     34 N          -2.5791  -19.8194  -40.6259 N.am      8 UNK        -0.5000 
     35 C          -2.7514  -18.7703  -41.4427 C.2       7 UNK         0.5000 
     36 O          -2.9239  -18.8719  -42.6550 O.2       7 UNK        -0.5000 
     37 CA         -2.6482  -17.3732  -40.8069 C.3       7 UNK         0.1400 
     38 CB         -4.0029  -16.9394  -40.2282 C.3       7 UNK        -0.1800 
     39 N          -1.6206  -17.2935  -39.7652 N.am      7 UNK        -0.5000 
     40 C          -0.3136  -17.4917  -39.9783 C.2       6 UNK         0.5000 
     41 O           0.1665  -17.7904  -41.0750 O.2       6 UNK        -0.5000 
     42 CA          0.6107  -17.3687  -38.7582 C.3       6 UNK         0.1400 
     43 CB          1.2379  -18.7273  -38.4083 C.3       6 UNK        -0.1800 
     44 N           1.6680  -16.4080  -39.0513 N.am      6 UNK        -0.5000 
     45 C           1.5377  -15.0810  -38.9256 C.2       5 UNK         0.5000 
     46 O           0.5574  -14.5336  -38.4188 O.2       5 UNK        -0.5000 
     47 CA          2.6905  -14.2182  -39.4733 C.3       5 UNK         0.1400 
     48 CB          3.7377  -13.9568  -38.3799 C.3       5 UNK        -0.1800 
     49 N           3.3516  -14.8073  -40.6410 N.am      5 UNK        -0.5000 
     50 C           2.7775  -14.9684  -41.8404 C.2       4 UNK         0.5000 
     51 O           1.6270  -14.6161  -42.1049 O.2       4 UNK        -0.5000 
     52 CA          3.6695  -15.5666  -42.9387 C.3       4 UNK         0.1400 
     53 CB          2.8884  -16.4847  -43.8917 C.3       4 UNK        -0.1800 
     54 N           4.2774  -14.4739  -43.6935 N.am      4 UNK        -0.5000 
     55 C           5.4189  -13.8621  -43.3465 C.2       3 UNK         0.5000 
     56 O           6.1086  -14.2283  -42.3929 O.2       3 UNK        -0.5000 
     57 CA          5.8558  -12.6164  -44.1518 C.3       3 UNK         0.1400 
     58 CB          7.3665  -12.6281  -44.4682 C.3       3 UNK        -0.1800 
     59 N           5.0649  -12.3464  -45.3602 N.am      3 UNK        -0.5000 
     60 C           5.0025  -13.0795  -46.4797 C.2       2 UNK         0.5000 
     61 O           5.6245  -14.1271  -46.6645 O.2       2 UNK        -0.5000 
     62 CA          4.0519  -12.5587  -47.5737 C.3       2 UNK         0.1400 
     63 CB          4.8319  -12.1657  -48.8379 C.3       2 UNK        -0.1800 
     64 N           3.0398  -13.5543  -47.9232 N.am      2 UNK        -0.5000 
     65 C           2.1259  -14.0579  -47.0807 C.2       1 UNK         0.5000 
     66 O           2.0089  -13.6929  -45.9106 O.2       1 UNK        -0.5000 
     67 C          -2.6855  -21.5902  -46.7414 C.2       11 UNK         0.5000 
     68 O          -3.0141  -21.9248  -47.8781 O.2       11 UNK        -0.5000 
     69 N          -1.8118  -22.2819  -45.9929 N.am      12 UNK        -0.5000 
     70 CA         -1.1045  -23.4776  -46.4588 C.3       12 UNK         0.1400 
     71 CB         -0.3423  -24.1284  -45.2955 C.3       12 UNK        -0.1800 
     72 C          -0.1565  -23.1849  -47.6349 C.2       12 UNK         0.5000 
     73 O          -0.1445  -23.9430  -48.6051 O.2       12 UNK        -0.5000 
     74 N           0.5882  -22.0736  -47.5489 N.am      13 UNK        -0.5000 
     75 CA          1.4549  -21.5795  -48.6174 C.3       13 UNK         0.1400 
     76 CB          2.2966  -20.4042  -48.1039 C.3       13 UNK        -0.1800 
     77 C           0.6626  -21.1835  -49.8747 C.2       13 UNK         0.5000 
     78 O           1.0535  -21.5683  -50.9762 O.2       13 UNK        -0.5000 
     79 N          -0.4601  -20.4744  -49.6880 N.am      14 UNK        -0.5000 
     80 CA         -1.3909  -20.1053  -50.7555 C.3       14 UNK         0.1400 
     81 CB         -2.4839  -19.1851  -50.1981 C.3       14 UNK        -0.1800 
     82 C          -2.0115  -21.3315  -51.4467 C.2       14 UNK         0.5000 
     83 O          -2.0256  -21.3879  -52.6765 O.2       14 UNK        -0.5000 
     84 N          -2.4567  -22.3102  -50.6447 N.am      15 UNK        -0.5000 
     85 CA         -3.0118  -23.5804  -51.1076 C.3       15 UNK         0.1400 
     86 CB         -3.5736  -24.3758  -49.9206 C.3       15 UNK        -0.1800 
     87 C          -2.0078  -24.4270  -51.9083 C.2       15 UNK         0.5000 
     88 O          -2.3993  -25.0599  -52.8877 O.2       15 UNK        -0.5000 
     89 N          -0.7330  -24.4105  -51.5000 N.am      16 UNK        -0.5000 
     90 CA          0.3598  -25.0623  -52.2180 C.3       16 UNK         0.1400 
     91 CB          1.5898  -25.1560  -51.3019 C.3       16 UNK        -0.1800 
     92 C           0.7092  -24.3437  -53.5351 C.2       16 UNK         0.5000 
     93 O           0.9206  -25.0083  -54.5503 O.2       16 UNK        -0.5000 
     94 N           0.7781  -23.0068  -53.4929 N.am      17 UNK        -0.5000 
     95 CA          1.2147  -22.1688  -54.6078 C.3       17 UNK         0.1400 
     96 CB          1.6415  -20.7937  -54.0703 C.3       17 UNK        -0.1800 
     97 C           0.1636  -21.9989  -55.7183 C.2       17 UNK         0.5000 
     98 O           0.5264  -22.0473  -56.8948 O.2       17 UNK        -0.5000 
     99 N          -1.0972  -21.7578  -55.3372 N.am      18 UNK        -0.5000 
    100 CA        -2.1491  -21.2732  -56.2366 C.3       18 UNK         0.1400 
    101 CB        -2.4082  -19.7892  -55.9148 C.3       18 UNK        -0.1800 
    102 C         -3.4441  -22.1012  -56.1592 C.2       18 UNK         0.5000 
    103 O         -4.4752  -21.6407  -56.6536 O.2       18 UNK        -0.5000 
    104 N         -3.3801  -23.2925  -55.5462 N.am      19 UNK        -0.5000 
    105 CA        -4.5005  -24.1786  -55.1988 C.3       19 UNK         0.1400 
    106 CB        -5.3386  -24.5620  -56.4372 C.3       19 UNK        -0.1800 
    107 C         -5.3812  -23.5910  -54.0768 C.2       19 UNK         0.5000 
    108 O         -5.2795  -22.4082  -53.7462 O.2       19 UNK        -0.5000 
    109 N         -6.2464  -24.4310  -53.4935 N.am      20 UNK        -0.5000 
    110 CA        -7.1199  -24.0796  -52.3646 C.3       20 UNK         0.1400 
    111 CB        -7.8524  -25.3437  -51.8901 C.3       20 UNK        -0.1800 
    112 C         -8.1273  -22.9465  -52.6597 C.2       20 UNK         0.5000 
    113 O         -8.5928  -22.2894  -51.7283 O.2       20 UNK        -0.5000 
    114 N         -8.4313  -22.7316  -53.9460 N.am      21 UNK        -0.5000 
    115 CA        -9.2621  -21.6367  -54.4434 C.3       21 UNK         0.1400 
    116 CB        -9.8185  -22.0397  -55.8187 C.3       21 UNK        -0.1800 
    117 C         -8.5165  -20.2880  -54.5422 C.2       21 UNK         0.5000 
    118 O         -9.1798  -19.2651  -54.7184 O.2       21 UNK        -0.5000 
    119 N         -7.1771  -20.3001  -54.4509 N.am      22 UNK        -0.5000 
    120 CA        -6.2754  -19.1546  -54.6618 C.3       22 UNK         0.1400 
    121 C         -6.3863  -18.5797  -56.1051 C.2       22 UNK         0.5000 
    122 N         -6.0438  -19.3623  -57.1187 N.am      22 UNK        -0.7600 
    123 O         -6.7825  -17.4362  -56.3190 O.2       22 UNK        -0.5000 
    124 C124       -6.3977  -18.0568  -53.5690 C.3       23 UNK        -0.0398 
    125 S125       -5.9079  -18.6264  -51.9081 S.3       23 UNK        -0.2404 
    126 C126       -6.3412  -17.1387  -50.9547 C.3       23 UNK        -0.0205 
    127 H127        3.9705  -16.3089  -47.0796 H         1 UNK         0.0600 
    128 H128        4.1910  -17.9195  -47.7488 H         1 UNK         0.0600 
    129 H129        2.7289  -17.5531  -46.8457 H         1 UNK         0.0600 
    130 H130        1.3013  -15.5997  -49.6805 H         1 UNK         0.3000 
    131 H131        1.0919  -15.9070  -46.8333 H         1 UNK         0.0600 
    132 H132       -0.6072  -14.1045  -47.0060 H         1 UNK         0.0800 
    133 H133       -0.1727  -13.8134  -48.6736 H         1 UNK         0.0800 
    134 H134       -3.1827  -14.3070  -48.0574 H         1 UNK         0.0800 
    135 H135       -2.8054  -15.2066  -46.6064 H         1 UNK         0.0800 
    136 H136       -4.1964  -15.7031  -50.0655 H         1 UNK         0.1150 
    137 H137       -7.1353  -18.5322  -48.7581 H         1 UNK         0.1150 
    138 H138       -4.2708  -16.9532  -45.9758 H         1 UNK         0.1150 
    139 H139       -7.2914  -18.0649  -45.7727 H         1 UNK         0.0800 
    140 H140       -6.9069  -19.5699  -46.5655 H         1 UNK         0.0800 
    141 H141       -5.2519  -21.1993  -45.9226 H         1 UNK         0.0800 
    142 H142       -4.2944  -21.2194  -44.4644 H         1 UNK         0.0800 
    143 H143       -3.5759  -19.6830  -47.0023 H         1 UNK         0.0600 
    144 H144       -2.4607  -19.3705  -44.4167 H         1 UNK         0.3000 
    145 H145        0.6980  -18.0386  -45.5704 H         1 UNK         0.0600 
    146 H146       -0.1406  -16.4153  -43.8142 H         1 UNK         0.0600 
    147 H147       -0.9186  -16.2117  -45.3754 H         1 UNK         0.0600 
    148 H148       -1.7735  -17.0141  -44.0729 H         1 UNK         0.0600 
    149 H149       -0.1218  -18.7197  -42.9494 H         1 UNK         0.3000 
    150 H150        1.1188  -22.0739  -42.8823 H         1 UNK         0.0600 
    151 H151        3.1037  -20.6619  -42.4825 H         1 UNK         0.0600 
    152 H152        2.3527  -21.0766  -40.9494 H         1 UNK         0.0600 
    153 H153        2.1378  -19.4652  -41.6356 H         1 UNK         0.0600 
    154 H154       -0.1425  -20.3327  -40.9616 H         1 UNK         0.3000 
    155 H155       -3.4873  -21.4170  -41.5929 H         1 UNK         0.0600 
    156 H156       -1.5695  -21.9583  -39.2597 H         1 UNK         0.0600 
    157 H157       -2.4637  -23.1861  -40.1482 H         1 UNK         0.0600 
    158 H158       -3.3316  -21.9980  -39.1893 H         1 UNK         0.0600 
    159 H159       -2.4357  -19.6470  -39.6420 H         1 UNK         0.3000 
    160 H160       -2.3748  -16.6713  -41.5976 H         1 UNK         0.0600 
    161 H161       -4.7815  -16.9752  -40.9916 H         1 UNK         0.0600 
    162 H162       -3.9629  -15.9160  -39.8546 H         1 UNK         0.0600 
    163 H163       -4.3175  -17.5855  -39.4077 H         1 UNK         0.0600 
    164 H164       -1.9362  -17.0460  -38.8383 H         1 UNK         0.3000 
    165 H165        0.0338  -17.0289  -37.8952 H         1 UNK         0.0600 
    166 H166        1.8599  -18.6531  -37.5161 H         1 UNK         0.0600 
    167 H167        0.4685  -19.4736  -38.2065 H         1 UNK         0.0600 
    168 H168        1.8618  -19.1076  -39.2172 H         1 UNK         0.0600 
    169 H169        2.4839  -16.7661  -39.5245 H         1 UNK         0.3000 
    170 H170        2.2674  -13.2578  -39.7755 H         1 UNK         0.0600 
    171 H171        3.2806  -13.4934  -37.5044 H         1 UNK         0.0600 
    172 H172        4.2159  -14.8801  -38.0507 H         1 UNK         0.0600 
    173 H173        4.5173  -13.2816  -38.7335 H         1 UNK         0.0600 
    174 H174        4.3218  -15.0675  -40.5284 H         1 UNK         0.3000 
    175 H175        4.4443  -16.1759  -42.4680 H         1 UNK         0.0600 
    176 H176        2.3764  -17.2723  -43.3374 H         1 UNK         0.0600 
    177 H177        3.5589  -16.9695  -44.6001 H         1 UNK         0.0600 
    178 H178        2.1356  -15.9381  -44.4579 H         1 UNK         0.0600 
    179 H179        3.7250  -14.0892  -44.4497 H         1 UNK         0.3000 
    180 H180        5.6739  -11.7681  -43.4906 H         1 UNK         0.0600 
    181 H181        7.6518  -13.4980  -45.0602 H         1 UNK         0.0600 
    182 H182        7.9583  -12.6521  -43.5524 H         1 UNK         0.0600 
    183 H183        7.6619  -11.7349  -45.0185 H         1 UNK         0.0600 
    184 H184        4.4842  -11.5205  -45.3073 H         1 UNK         0.3000 
    185 H185        3.5328  -11.6713  -47.2051 H         1 UNK         0.0600 
    186 H186        5.5881  -11.4131  -48.6109 H         1 UNK         0.0600 
    187 H187        5.3435  -13.0225  -49.2786 H         1 UNK         0.0600 
    188 H188        4.1708  -11.7434  -49.5949 H         1 UNK         0.0600 
    189 H189        3.0865  -13.9348  -48.8572 H         1 UNK         0.3000 
    190 H190       -1.6184  -21.9812  -45.0428 H         1 UNK         0.3000 
    191 H191       -1.8533  -24.1906  -46.8094 H         1 UNK         0.0600 
    192 H192        0.1928  -25.0187  -45.6283 H         1 UNK         0.0600 
    193 H193        0.3904  -23.4473  -44.8625 H         1 UNK         0.0600 
    194 H194       -1.0233  -24.4378  -44.5027 H         1 UNK         0.0600 
    195 H195        0.5528  -21.5176  -46.6991 H         1 UNK         0.3000 
    196 H196        2.1358  -22.3868  -48.8949 H         1 UNK         0.0600 
    197 H197        2.9542  -20.0239  -48.8864 H         1 UNK         0.0600 
    198 H198        2.9252  -20.7044  -47.2655 H         1 UNK         0.0600 
    199 H199        1.6677  -19.5788  -47.7708 H         1 UNK         0.0600 
    200 H200       -0.6908  -20.1566  -48.7500 H         1 UNK         0.3000 
    201 H201       -0.8265  -19.5466  -51.5047 H         1 UNK         0.0600 
    202 H202       -2.0518  -18.3220  -49.6976 H         1 UNK         0.0600 
    203 H203       -3.1269  -19.6960  -49.4814 H         1 UNK         0.0600 
    204 H204       -3.1176  -18.8088  -51.0003 H         1 UNK         0.0600 
    205 H205       -2.4472  -22.1624  -49.6380 H         1 UNK         0.3000 
    206 H206       -3.8433  -23.3405  -51.7661 H         1 UNK         0.0600 
    207 H207       -2.7989  -24.6085  -49.1897 H         1 UNK         0.0600 
    208 H208       -4.3600  -23.8189  -49.4109 H         1 UNK         0.0600 
    209 H209       -4.0083  -25.3192  -50.2533 H         1 UNK         0.0600 
    210 H210       -0.4957  -23.9169  -50.6460 H         1 UNK         0.3000 
    211 H211        0.0482  -26.0794  -52.4652 H         1 UNK         0.0600 
    212 H212        1.9401  -24.1710  -50.9925 H         1 UNK         0.0600 
    213 H213        2.4167  -25.6557  -51.8078 H         1 UNK         0.0600 
    214 H214        1.3659  -25.7273  -50.4007 H         1 UNK         0.0600 
    215 H215        0.6310  -22.5357  -52.6042 H         1 UNK         0.3000 
    216 H216        2.0947  -22.6344  -55.0572 H         1 UNK         0.0600 
    217 H217        1.9836  -20.1448  -54.8774 H         1 UNK         0.0600 
    218 H218        2.4618  -20.8866  -53.3584 H         1 UNK         0.0600 
    219 H219        0.8179  -20.2864  -53.5659 H         1 UNK         0.0600 
    220 H220       -1.3230  -21.7288  -54.3432 H         1 UNK         0.3000 
    221 H221       -1.8243  -21.3369  -57.2766 H         1 UNK         0.0600 
    222 H222       -3.1383  -19.3541  -56.5977 H         1 UNK         0.0600 
    223 H223       -1.4947  -19.2015  -56.0064 H         1 UNK         0.0600 
    224 H224       -2.7860  -19.6624  -54.8994 H         1 UNK         0.0600 
    225 H225       -2.4887  -23.5557  -55.1497 H         1 UNK         0.3000 
    226 H226       -4.0535  -25.0956  -54.8162 H         1 UNK         0.0600 
    227 H227       -6.0135  -25.3879  -56.2106 H         1 UNK         0.0600 
    228 H228       -5.9542  -23.7353  -56.7923 H         1 UNK         0.0600 
    229 H229       -4.7016  -24.8847  -57.2607 H         1 UNK         0.0600 
    230 H230       -6.2875  -25.3897  -53.8088 H         1 UNK         0.3000 
    231 H231       -6.4800  -23.7324  -51.5506 H         1 UNK         0.0600 
    232 H232       -7.1477  -26.1162  -51.5815 H         1 UNK         0.0600 
    233 H233       -8.4864  -25.7588  -52.6746 H         1 UNK         0.0600 
    234 H234       -8.4905  -25.1277  -51.0321 H         1 UNK         0.0600 
    235 H235       -8.0022  -23.3247  -54.6403 H         1 UNK         0.3000 
    236 H236      -10.1046  -21.4965  -53.7629 H         1 UNK         0.0600 
    237 H237      -10.3974  -22.9614  -55.7564 H         1 UNK         0.0600 
    238 H238      -10.4807  -21.2687  -56.2150 H         1 UNK         0.0600 
    239 H239       -9.0200  -22.1914  -56.5463 H         1 UNK         0.0600 
    240 H240       -6.7021  -21.1790  -54.2701 H         1 UNK         0.3000 
    241 H241       -5.2649  -19.5589  -54.5896 H         1 UNK         0.0600 
    242 H242       -6.1157  -19.0132  -58.0607 H         1 UNK         0.3800 
    243 H243       -5.6334  -20.2810  -56.9532 H         1 UNK         0.3800 
    244 H244       -7.4141  -17.6631  -53.5282 H         1 UNK         0.0800 
    245 H245       -5.7547  -17.2107  -53.8182 H         1 UNK         0.0800 
    246 H246       -7.4270  -17.0708  -50.8724 H         1 UNK         0.0800 
    247 H247       -6.0215  -16.2516  -51.5038 H         1 UNK         0.0800 
@<TRIPOS>BOND
     1    1    2 1    
     2    1  127 1    
     3    1  128 1    
     4    1  129 1    
     5    2    3 2    
     6    2    4 am   BACKBONE|DICT|INTERRES
     7    4    5 1    
     8    4  130 1    
     9    5    6 1    
    10    5   65 1    
    11    5  131 1    
    12    6    7 1    
    13    6  132 1    
    14    6  133 1    
    15    7    8 1    
    16    8    9 1    
    17    8  134 1    
    18    8  135 1    
    19    9   10 ar   
    20    9   14 ar   
    21   10   11 ar   
    22   10  136 1    
    23   11   12 ar   
    24   11  126 1    
    25   12   13 ar   
    26   12  137 1    
    27   13   14 ar   
    28   13   15 1    
    29   14  138 1    
    30   15   16 1    
    31   15  139 1    
    32   15  140 1    
    33   16   17 1    
    34   17   18 1    
    35   17  141 1    
    36   17  142 1    
    37   18   19 1    
    38   18   67 1    
    39   18  143 1    
    40   19   20 am   BACKBONE|DICT|INTERRES
    41   19  144 1    
    42   20   21 2    
    43   20   22 1    
    44   22   23 1    
    45   22   24 1    
    46   22  145 1    
    47   23  146 1    
    48   23  147 1    
    49   23  148 1    
    50   24   25 am   BACKBONE|DICT|INTERRES
    51   24  149 1    
    52   25   26 2    
    53   25   27 1    
    54   27   28 1    
    55   27   29 1    
    56   27  150 1    
    57   28  151 1    
    58   28  152 1    
    59   28  153 1    
    60   29   30 am   BACKBONE|DICT|INTERRES
    61   29  154 1    
    62   30   31 2    
    63   30   32 1    
    64   32   33 1    
    65   32   34 1    
    66   32  155 1    
    67   33  156 1    
    68   33  157 1    
    69   33  158 1    
    70   34   35 am   BACKBONE|DICT|INTERRES
    71   34  159 1    
    72   35   36 2    
    73   35   37 1    
    74   37   38 1    
    75   37   39 1    
    76   37  160 1    
    77   38  161 1    
    78   38  162 1    
    79   38  163 1    
    80   39   40 am   BACKBONE|DICT|INTERRES
    81   39  164 1    
    82   40   41 2    
    83   40   42 1    
    84   42   43 1    
    85   42   44 1    
    86   42  165 1    
    87   43  166 1    
    88   43  167 1    
    89   43  168 1    
    90   44   45 am   BACKBONE|DICT|INTERRES
    91   44  169 1    
    92   45   46 2    
    93   45   47 1    
    94   47   48 1    
    95   47   49 1    
    96   47  170 1    
    97   48  171 1    
    98   48  172 1    
    99   48  173 1    
   100   49   50 am   BACKBONE|DICT|INTERRES
   101   49  174 1    
   102   50   51 2    
   103   50   52 1    
   104   52   53 1    
   105   52   54 1    
   106   52  175 1    
   107   53  176 1    
   108   53  177 1    
   109   53  178 1    
   110   54   55 am   BACKBONE|DICT|INTERRES
   111   54  179 1    
   112   55   56 2    
   113   55   57 1    
   114   57   58 1    
   115   57   59 1    
   116   57  180 1    
   117   58  181 1    
   118   58  182 1    
   119   58  183 1    
   120   59   60 am   BACKBONE|DICT|INTERRES
   121   59  184 1    
   122   60   61 2    
   123   60   62 1    
   124   62   63 1    
   125   62   64 1    
   126   62  185 1    
   127   63  186 1    
   128   63  187 1    
   129   63  188 1    
   130   64   65 am   BACKBONE|DICT|INTERRES
   131   64  189 1    
   132   65   66 2    
   133   67   68 2    
   134   67   69 am   BACKBONE|DICT|INTERRES
   135   69   70 1    
   136   69  190 1    
   137   70   71 1    
   138   70   72 1    
   139   70  191 1    
   140   71  192 1    
   141   71  193 1    
   142   71  194 1    
   143   72   73 2    
   144   72   74 am   BACKBONE|DICT|INTERRES
   145   74   75 1    
   146   74  195 1    
   147   75   76 1    
   148   75   77 1    
   149   75  196 1    
   150   76  197 1    
   151   76  198 1    
   152   76  199 1    
   153   77   78 2    
   154   77   79 am   BACKBONE|DICT|INTERRES
   155   79   80 1    
   156   79  200 1    
   157   80   81 1    
   158   80   82 1    
   159   80  201 1    
   160   81  202 1    
   161   81  203 1    
   162   81  204 1    
   163   82   83 2    
   164   82   84 am   BACKBONE|DICT|INTERRES
   165   84   85 1    
   166   84  205 1    
   167   85   86 1    
   168   85   87 1    
   169   85  206 1    
   170   86  207 1    
   171   86  208 1    
   172   86  209 1    
   173   87   88 2    
   174   87   89 am   BACKBONE|DICT|INTERRES
   175   89   90 1    
   176   89  210 1    
   177   90   91 1    
   178   90   92 1    
   179   90  211 1    
   180   91  212 1    
   181   91  213 1    
   182   91  214 1    
   183   92   93 2    
   184   92   94 am   BACKBONE|DICT|INTERRES
   185   94   95 1    
   186   94  215 1    
   187   95   96 1    
   188   95   97 1    
   189   95  216 1    
   190   96  217 1    
   191   96  218 1    
   192   96  219 1    
   193   97   98 2    
   194   97   99 am   BACKBONE|DICT|INTERRES
   195   99  100 1    
   196   99  220 1    
   197  100  101 1    
   198  100  102 1    
   199  100  221 1    
   200  101  222 1    
   201  101  223 1    
   202  101  224 1    
   203  102  103 2    
   204  102  104 am   BACKBONE|DICT|INTERRES
   205  104  105 1    
   206  104  225 1    
   207  105  106 1    
   208  105  107 1    
   209  105  226 1    
   210  106  227 1    
   211  106  228 1    
   212  106  229 1    
   213  107  108 2    
   214  107  109 am   BACKBONE|DICT|INTERRES
   215  109  110 1    
   216  109  230 1    
   217  110  111 1    
   218  110  112 1    
   219  110  231 1    
   220  111  232 1    
   221  111  233 1    
   222  111  234 1    
   223  112  113 2    
   224  112  114 am   BACKBONE|DICT|INTERRES
   225  114  115 1    
   226  114  235 1    
   227  115  116 1    
   228  115  117 1    
   229  115  236 1    
   230  116  237 1    
   231  116  238 1    
   232  116  239 1    
   233  117  118 2    
   234  117  119 am   BACKBONE|DICT|INTERRES
   235  119  120 1    
   236  119  240 1    
   237  120  121 1    
   238  120  124 1    
   239  120  241 1    
   240  121  122 am   BACKBONE|DICT|INTERRES
   241  121  123 2    
   242  122  242 1    
   243  122  243 1    
   244  124  125 1    
   245  124  244 1    
   246  124  245 1    
   247  125  126 1    
   248  126  246 1    
   249  126  247 1    
@<TRIPOS>SUBSTRUCTURE
     1 UNK         1 GROUP             0       ****    0 ROOT    
