@<TRIPOS>MOLECULE
3R540
247   249    1
SMALL
USER_CHARGES


@<TRIPOS>ATOM
      1 CA         -4.7093  -15.1188  -45.6667 C.3       0 UNK        -0.1800 
      2 C          -3.8082  -14.0400  -46.2519 C.2       0 UNK         0.5000 
      3 O          -4.3057  -13.0534  -46.7939 O.2       0 UNK        -0.5000 
      4 N          -2.4863  -14.2281  -46.1477 N.am      1 UNK        -0.5000 
      5 CA         -1.4572  -13.3329  -46.6952 C.3       1 UNK         0.1400 
      6 C6         -0.0583  -13.9973  -46.7244 C.3       23 UNK        -0.0398 
      7 S7         -0.0711  -15.5765  -47.6284 S.3       23 UNK        -0.2404 
      8 C8          0.4416  -15.0458  -49.2841 C.3       23 UNK        -0.0205 
      9 C9          0.2005  -16.1560  -50.2909 C.ar      23 UNK        -0.0193 
     10 C10        -0.9013  -16.1042  -51.1484 C.ar      23 UNK        -0.1150 
     11 C11        -1.1285  -17.1232  -52.0784 C.ar      23 UNK        -0.0193 
     12 C12        -0.2397  -18.2015  -52.1426 C.ar      23 UNK        -0.1150 
     13 C13         0.8639  -18.2659  -51.2859 C.ar      23 UNK        -0.0193 
     14 C14         1.0805  -17.2376  -50.3651 C.ar      23 UNK        -0.1150 
     15 C15         1.8406  -19.4295  -51.3727 C.3       23 UNK        -0.0205 
     16 S16         1.1718  -20.9551  -50.6425 S.3       23 UNK        -0.2404 
     17 C17         1.0838  -20.5284  -48.8707 C.3       23 UNK        -0.0398 
     18 CA          0.0991  -21.4464  -48.1047 C.3       11 UNK         0.1400 
     19 N           0.4251  -21.5237  -46.6812 N.am      11 UNK        -0.5000 
     20 C           0.8136  -22.6504  -46.0686 C.2       10 UNK         0.5000 
     21 O           0.8065  -23.7607  -46.6004 O.2       10 UNK        -0.5000 
     22 CA          1.3520  -22.5332  -44.6343 C.3       10 UNK         0.1400 
     23 CB          2.8667  -22.2784  -44.6651 C.3       10 UNK        -0.1800 
     24 N           0.6977  -21.5037  -43.8283 N.am      10 UNK        -0.5000 
     25 C          -0.5305  -21.6341  -43.3088 C.2       9 UNK         0.5000 
     26 O          -1.2732  -22.5889  -43.5392 O.2       9 UNK        -0.5000 
     27 CA         -1.0021  -20.5231  -42.3523 C.3       9 UNK         0.1400 
     28 CB         -0.3401  -20.6763  -40.9743 C.3       9 UNK        -0.1800 
     29 N          -0.7453  -19.1796  -42.8638 N.am      9 UNK        -0.5000 
     30 C          -1.3437  -18.6557  -43.9404 C.2       8 UNK         0.5000 
     31 O          -2.1849  -19.2440  -44.6161 O.2       8 UNK        -0.5000 
     32 CA         -0.8835  -17.2553  -44.3725 C.3       8 UNK         0.1400 
     33 CB         -1.4494  -16.1687  -43.4454 C.3       8 UNK        -0.1800 
     34 N           0.5707  -17.1494  -44.4420 N.am      8 UNK        -0.5000 
     35 C           1.3481  -17.9044  -45.2338 C.2       7 UNK         0.5000 
     36 O           0.9205  -18.7519  -46.0203 O.2       7 UNK        -0.5000 
     37 CA          2.8637  -17.7016  -45.0860 C.3       7 UNK         0.1400 
     38 CB          3.3226  -16.4865  -45.9055 C.3       7 UNK        -0.1800 
     39 N           3.2605  -17.5357  -43.6858 N.am      7 UNK        -0.5000 
     40 C           3.1629  -18.4968  -42.7547 C.2       6 UNK         0.5000 
     41 O           2.7511  -19.6328  -42.9816 O.2       6 UNK        -0.5000 
     42 CA          3.5323  -18.1033  -41.3149 C.3       6 UNK         0.1400 
     43 CB          5.0564  -18.0239  -41.1404 C.3       6 UNK        -0.1800 
     44 N           2.9261  -16.8330  -40.9199 N.am      6 UNK        -0.5000 
     45 C           1.6064  -16.6209  -40.8121 C.2       5 UNK         0.5000 
     46 O           0.7555  -17.4916  -40.9921 O.2       5 UNK        -0.5000 
     47 CA          1.1642  -15.1828  -40.4870 C.3       5 UNK         0.1400 
     48 CB          1.0581  -14.9819  -38.9683 C.3       5 UNK        -0.1800 
     49 N           2.0600  -14.1692  -41.0498 N.am      5 UNK        -0.5000 
     50 C           2.2226  -13.9433  -42.3593 C.2       4 UNK         0.5000 
     51 O           1.6260  -14.5606  -43.2454 O.2       4 UNK        -0.5000 
     52 CA          3.2211  -12.8481  -42.7434 C.3       4 UNK         0.1400 
     53 CB          4.3602  -13.4000  -43.6174 C.3       4 UNK        -0.1800 
     54 N           2.4938  -11.8120  -43.4614 N.am      4 UNK        -0.5000 
     55 C           2.7818  -10.5057  -43.4328 C.2       3 UNK         0.5000 
     56 O           3.7501  -10.0317  -42.8367 O.2       3 UNK        -0.5000 
     57 CA          1.8264   -9.5627  -44.1894 C.3       3 UNK         0.1400 
     58 CB          2.3799   -9.2491  -45.5879 C.3       3 UNK        -0.1800 
     59 N           0.4692  -10.0933  -44.3289 N.am      3 UNK        -0.5000 
     60 C          -0.4166  -10.2553  -43.3392 C.2       2 UNK         0.5000 
     61 O          -0.1831   -9.9641  -42.1659 O.2       2 UNK        -0.5000 
     62 CA         -1.7893  -10.8567  -43.7083 C.3       2 UNK         0.1400 
     63 CB         -2.7633   -9.7600  -44.1784 C.3       2 UNK        -0.1800 
     64 N          -1.7477  -11.9758  -44.6633 N.am      2 UNK        -0.5000 
     65 C          -1.3777  -11.9829  -45.9542 C.2       1 UNK         0.5000 
     66 O          -0.9612  -10.9930  -46.5569 O.2       1 UNK        -0.5000 
     67 C          -1.3726  -21.0574  -48.3184 C.2       11 UNK         0.5000 
     68 O          -2.1261  -21.8546  -48.8776 O.2       11 UNK        -0.5000 
     69 N          -1.7716  -19.8537  -47.8811 N.am      12 UNK        -0.5000 
     70 CA         -3.0927  -19.2940  -48.1884 C.3       12 UNK         0.1400 
     71 CB         -3.1417  -17.8050  -47.8223 C.3       12 UNK        -0.1800 
     72 C          -4.2565  -20.0671  -47.5414 C.2       12 UNK         0.5000 
     73 O          -5.2337  -20.3708  -48.2254 O.2       12 UNK        -0.5000 
     74 N          -4.1172  -20.4023  -46.2521 N.am      13 UNK        -0.5000 
     75 CA         -5.0903  -21.1837  -45.4856 C.3       13 UNK         0.1400 
     76 CB         -4.8071  -21.0203  -43.9853 C.3       13 UNK        -0.1800 
     77 C          -5.1020  -22.6747  -45.8701 C.2       13 UNK         0.5000 
     78 O          -6.1371  -23.3260  -45.7242 O.2       13 UNK        -0.5000 
     79 N          -3.9660  -23.1862  -46.3664 N.am      14 UNK        -0.5000 
     80 CA         -3.8403  -24.5377  -46.9178 C.3       14 UNK         0.1400 
     81 CB         -2.3546  -24.9118  -47.0145 C.3       14 UNK        -0.1800 
     82 C          -4.5309  -24.6785  -48.2885 C.2       14 UNK         0.5000 
     83 O          -4.9480  -25.7813  -48.6461 O.2       14 UNK        -0.5000 
     84 N          -4.6548  -23.5565  -49.0123 N.am      15 UNK        -0.5000 
     85 CA         -5.2948  -23.4026  -50.3164 C.3       15 UNK         0.1400 
     86 CB         -6.8235  -23.5925  -50.1926 C.3       15 UNK        -0.1800 
     87 C          -4.6223  -24.2916  -51.3802 C.2       15 UNK         0.5000 
     88 O          -3.3925  -24.3220  -51.4372 O.2       15 UNK        -0.5000 
     89 N          -5.4196  -25.0172  -52.1765 N.am      16 UNK        -0.5000 
     90 CA         -5.0032  -25.8540  -53.3084 C.3       16 UNK         0.1400 
     91 CB         -6.2589  -26.4706  -53.9446 C.3       16 UNK        -0.1800 
     92 C          -3.9680  -26.9549  -52.9885 C.2       16 UNK         0.5000 
     93 O          -3.3428  -27.4797  -53.9109 O.2       16 UNK        -0.5000 
     94 N          -3.7939  -27.2855  -51.7018 N.am      17 UNK        -0.5000 
     95 CA         -2.7636  -28.1967  -51.2068 C.3       17 UNK         0.1400 
     96 CB         -3.1137  -28.6024  -49.7666 C.3       17 UNK        -0.1800 
     97 C          -1.3369  -27.6093  -51.2651 C.2       17 UNK         0.5000 
     98 O          -0.3798  -28.3824  -51.1979 O.2       17 UNK        -0.5000 
     99 N          -1.2069  -26.2786  -51.3691 N.am      18 UNK        -0.5000 
    100 CA         0.0744  -25.5708  -51.3636 C.3       18 UNK         0.1400 
    101 CB         0.3414  -25.0249  -49.9523 C.3       18 UNK        -0.1800 
    102 C          0.1258  -24.4391  -52.4019 C.2       18 UNK         0.5000 
    103 O          1.1279  -24.3128  -53.1074 O.2       18 UNK        -0.5000 
    104 N         -0.9370  -23.6323  -52.4753 N.am      19 UNK        -0.5000 
    105 CA        -1.0599  -22.4885  -53.3711 C.3       19 UNK         0.1400 
    106 CB        -1.9590  -21.4418  -52.6992 C.3       19 UNK        -0.1800 
    107 C         -1.6722  -22.8966  -54.7192 C.2       19 UNK         0.5000 
    108 O         -2.4038  -23.8857  -54.7962 O.2       19 UNK        -0.5000 
    109 N         -1.3962  -22.0913  -55.7514 N.am      20 UNK        -0.5000 
    110 CA        -2.0262  -22.2076  -57.0653 C.3       20 UNK         0.1400 
    111 CB        -1.0318  -21.7686  -58.1532 C.3       20 UNK        -0.1800 
    112 C         -3.3194  -21.3758  -57.1293 C.2       20 UNK         0.5000 
    113 O         -4.3679  -21.9068  -57.4967 O.2       20 UNK        -0.5000 
    114 N         -3.2152  -20.0835  -56.7860 N.am      21 UNK        -0.5000 
    115 CA        -4.3058  -19.1126  -56.9060 C.3       21 UNK         0.1400 
    116 CB        -3.7064  -17.7244  -57.1836 C.3       21 UNK        -0.1800 
    117 C         -5.2124  -19.0581  -55.6642 C.2       21 UNK         0.5000 
    118 O         -6.4177  -18.8462  -55.8064 O.2       21 UNK        -0.5000 
    119 N         -4.6182  -19.2173  -54.4761 N.am      22 UNK        -0.5000 
    120 CA        -5.3165  -19.1580  -53.1826 C.3       22 UNK         0.1400 
    121 C         -6.0187  -20.4974  -52.8325 C.2       22 UNK         0.5000 
    122 N         -7.0884  -20.4494  -52.0501 N.am      22 UNK        -0.7600 
    123 O         -5.5953  -21.5771  -53.2361 O.2       22 UNK        -0.5000 
    124 C124       -4.3772  -18.6880  -52.0394 C.3       23 UNK        -0.0398 
    125 S125       -3.9157  -16.9326  -52.2242 S.3       23 UNK        -0.2404 
    126 C126       -2.2935  -17.0176  -53.0536 C.3       23 UNK        -0.0205 
    127 H127       -5.3991  -15.4837  -46.4278 H         1 UNK         0.0600 
    128 H128       -5.2941  -14.7123  -44.8416 H         1 UNK         0.0600 
    129 H129       -4.1395  -15.9697  -45.2942 H         1 UNK         0.0600 
    130 H130       -2.1391  -15.0763  -45.7291 H         1 UNK         0.3000 
    131 H131       -1.7389  -13.1077  -47.7263 H         1 UNK         0.0600 
    132 H132        0.6810  -13.3341  -47.1779 H         1 UNK         0.0800 
    133 H133        0.2957  -14.1980  -45.7114 H         1 UNK         0.0800 
    134 H134       -0.1095  -14.1484  -49.5695 H         1 UNK         0.0800 
    135 H135        1.4985  -14.7751  -49.2709 H         1 UNK         0.0800 
    136 H136       -1.5821  -15.2659  -51.0989 H         1 UNK         0.1150 
    137 H137       -0.3903  -18.9854  -52.8694 H         1 UNK         0.1150 
    138 H138        1.9317  -17.2781  -49.6998 H         1 UNK         0.1150 
    139 H139        2.0797  -19.6185  -52.4201 H         1 UNK         0.0800 
    140 H140        2.7849  -19.1818  -50.8855 H         1 UNK         0.0800 
    141 H141        2.0910  -20.6455  -48.4684 H         1 UNK         0.0800 
    142 H142        0.8325  -19.4763  -48.7357 H         1 UNK         0.0800 
    143 H143        0.2024  -22.4399  -48.5416 H         1 UNK         0.0600 
    144 H144        0.4798  -20.6391  -46.1841 H         1 UNK         0.3000 
    145 H145        1.1897  -23.4966  -44.1460 H         1 UNK         0.0600 
    146 H146        3.2877  -22.2793  -43.6596 H         1 UNK         0.0600 
    147 H147        3.3832  -23.0532  -45.2331 H         1 UNK         0.0600 
    148 H148        3.1027  -21.3195  -45.1283 H         1 UNK         0.0600 
    149 H149        1.2676  -20.7031  -43.5678 H         1 UNK         0.3000 
    150 H150       -2.0803  -20.6311  -42.2204 H         1 UNK         0.0600 
    151 H151       -0.5201  -21.6694  -40.5609 H         1 UNK         0.0600 
    152 H152       -0.7379  -19.9506  -40.2646 H         1 UNK         0.0600 
    153 H153        0.7397  -20.5311  -41.0280 H         1 UNK         0.0600 
    154 H154       -0.0763  -18.6151  -42.3475 H         1 UNK         0.3000 
    155 H155       -1.2656  -17.0773  -45.3769 H         1 UNK         0.0600 
    156 H156       -1.1039  -15.1761  -43.7330 H         1 UNK         0.0600 
    157 H157       -1.1578  -16.3318  -42.4093 H         1 UNK         0.0600 
    158 H158       -2.5392  -16.1618  -43.4718 H         1 UNK         0.0600 
    159 H159        1.0083  -16.4467  -43.8568 H         1 UNK         0.3000 
    160 H160        3.3623  -18.5905  -45.4781 H         1 UNK         0.0600 
    161 H161        2.8214  -15.5727  -45.5852 H         1 UNK         0.0600 
    162 H162        3.0954  -16.6253  -46.9634 H         1 UNK         0.0600 
    163 H163        4.3981  -16.3315  -45.8200 H         1 UNK         0.0600 
    164 H164        3.5674  -16.6168  -43.4058 H         1 UNK         0.3000 
    165 H165        3.1520  -18.8809  -40.6487 H         1 UNK         0.0600 
    166 H166        5.4954  -17.2376  -41.7558 H         1 UNK         0.0600 
    167 H167        5.3238  -17.8260  -40.1023 H         1 UNK         0.0600 
    168 H168        5.5301  -18.9650  -41.4228 H         1 UNK         0.0600 
    169 H169        3.5521  -16.0609  -40.7469 H         1 UNK         0.3000 
    170 H170        0.1732  -15.0329  -40.9192 H         1 UNK         0.0600 
    171 H171        0.3780  -15.7109  -38.5252 H         1 UNK         0.0600 
    172 H172        2.0254  -15.0945  -38.4772 H         1 UNK         0.0600 
    173 H173        0.6717  -13.9914  -38.7274 H         1 UNK         0.0600 
    174 H174        2.5758  -13.6086  -40.3865 H         1 UNK         0.3000 
    175 H175        3.6519  -12.4325  -41.8297 H         1 UNK         0.0600 
    176 H176        5.1078  -12.6320  -43.8161 H         1 UNK         0.0600 
    177 H177        4.8689  -14.2291  -43.1243 H         1 UNK         0.0600 
    178 H178        3.9927  -13.7594  -44.5784 H         1 UNK         0.0600 
    179 H179        1.6647  -12.1221  -43.9484 H         1 UNK         0.3000 
    180 H180        1.7691   -8.6296  -43.6252 H         1 UNK         0.0600 
    181 H181        1.7534   -8.5229  -46.1061 H         1 UNK         0.0600 
    182 H182        3.3836   -8.8264  -45.5264 H         1 UNK         0.0600 
    183 H183        2.4372  -10.1452  -46.2072 H         1 UNK         0.0600 
    184 H184        0.1605  -10.3350  -45.2676 H         1 UNK         0.3000 
    185 H185       -2.1970  -11.2772  -42.7876 H         1 UNK         0.0600 
    186 H186       -3.7539  -10.1709  -44.3736 H         1 UNK         0.0600 
    187 H187       -2.8757   -8.9875  -43.4167 H         1 UNK         0.0600 
    188 H188       -2.4185   -9.2697  -45.0891 H         1 UNK         0.0600 
    189 H189       -2.0585  -12.8585  -44.2839 H         1 UNK         0.3000 
    190 H190       -1.1197  -19.2598  -47.3863 H         1 UNK         0.3000 
    191 H191       -3.2241  -19.3632  -49.2702 H         1 UNK         0.0600 
    192 H192       -4.1067  -17.3708  -48.0866 H         1 UNK         0.0600 
    193 H193       -2.3796  -17.2442  -48.3623 H         1 UNK         0.0600 
    194 H194       -2.9946  -17.6479  -46.7555 H         1 UNK         0.0600 
    195 H195       -3.3012  -20.0679  -45.7399 H         1 UNK         0.3000 
    196 H196       -6.0853  -20.7818  -45.6882 H         1 UNK         0.0600 
    197 H197       -5.5535  -21.5438  -43.3866 H         1 UNK         0.0600 
    198 H198       -4.8285  -19.9712  -43.6898 H         1 UNK         0.0600 
    199 H199       -3.8305  -21.4247  -43.7191 H         1 UNK         0.0600 
    200 H200       -3.1648  -22.5786  -46.4564 H         1 UNK         0.3000 
    201 H201       -4.3218  -25.2379  -46.2320 H         1 UNK         0.0600 
    202 H202       -1.8752  -24.8814  -46.0358 H         1 UNK         0.0600 
    203 H203       -1.8118  -24.2338  -47.6718 H         1 UNK         0.0600 
    204 H204       -2.2278  -25.9205  -47.4092 H         1 UNK         0.0600 
    205 H205       -4.1867  -22.7277  -48.6677 H         1 UNK         0.3000 
    206 H206       -5.1072  -22.3720  -50.6183 H         1 UNK         0.0600 
    207 H207       -7.2353  -22.9184  -49.4411 H         1 UNK         0.0600 
    208 H208       -7.3296  -23.3692  -51.1320 H         1 UNK         0.0600 
    209 H209       -7.0892  -24.6098  -49.9031 H         1 UNK         0.0600 
    210 H210       -6.4154  -24.9444  -52.0304 H         1 UNK         0.3000 
    211 H211       -4.5446  -25.1909  -54.0428 H         1 UNK         0.0600 
    212 H212       -6.7868  -27.1181  -53.2433 H         1 UNK         0.0600 
    213 H213       -6.0021  -27.0723  -54.8176 H         1 UNK         0.0600 
    214 H214       -6.9524  -25.6987  -54.2792 H         1 UNK         0.0600 
    215 H215       -4.3381  -26.7967  -51.0036 H         1 UNK         0.3000 
    216 H216       -2.7751  -29.0958  -51.8263 H         1 UNK         0.0600 
    217 H217       -2.4041  -29.3370  -49.3840 H         1 UNK         0.0600 
    218 H218       -4.1061  -29.0500  -49.7106 H         1 UNK         0.0600 
    219 H219       -3.0926  -27.7457  -49.0925 H         1 UNK         0.0600 
    220 H220       -2.0436  -25.7064  -51.4412 H         1 UNK         0.3000 
    221 H221        0.8828  -26.2591  -51.6188 H         1 UNK         0.0600 
    222 H222       -0.4666  -24.3693  -49.6283 H         1 UNK         0.0600 
    223 H223        0.4285  -25.8312  -49.2239 H         1 UNK         0.0600 
    224 H224        1.2680  -24.4505  -49.9175 H         1 UNK         0.0600 
    225 H225       -1.7711  -23.8437  -51.9312 H         1 UNK         0.3000 
    226 H226       -0.0752  -22.0473  -53.5406 H         1 UNK         0.0600 
    227 H227       -1.5580  -21.1242  -51.7371 H         1 UNK         0.0600 
    228 H228       -2.0541  -20.5567  -53.3264 H         1 UNK         0.0600 
    229 H229       -2.9632  -21.8284  -52.5247 H         1 UNK         0.0600 
    230 H230       -0.7689  -21.3126  -55.6143 H         1 UNK         0.3000 
    231 H231       -2.2873  -23.2502  -57.2612 H         1 UNK         0.0600 
    232 H232       -1.4837  -21.8358  -59.1437 H         1 UNK         0.0600 
    233 H233       -0.1488  -22.4080  -58.1567 H         1 UNK         0.0600 
    234 H234       -0.6976  -20.7399  -58.0140 H         1 UNK         0.0600 
    235 H235       -2.3139  -19.7205  -56.5166 H         1 UNK         0.3000 
    236 H236       -4.9317  -19.3794  -57.7607 H         1 UNK         0.0600 
    237 H237       -3.0587  -17.3924  -56.3712 H         1 UNK         0.0600 
    238 H238       -3.1197  -17.7251  -58.1024 H         1 UNK         0.0600 
    239 H239       -4.4920  -16.9769  -57.3021 H         1 UNK         0.0600 
    240 H240       -3.6413  -19.4568  -54.4538 H         1 UNK         0.3000 
    241 H241       -6.1102  -18.4127  -53.2716 H         1 UNK         0.0600 
    242 H242       -7.5659  -21.3048  -51.8205 H         1 UNK         0.3800 
    243 H243       -7.4543  -19.5752  -51.7059 H         1 UNK         0.3800 
    244 H244       -3.4832  -19.3039  -51.9656 H         1 UNK         0.0800 
    245 H245       -4.8804  -18.7779  -51.0749 H         1 UNK         0.0800 
    246 H246       -2.2818  -17.8397  -53.7687 H         1 UNK         0.0800 
    247 H247       -2.1634  -16.1082  -53.6416 H         1 UNK         0.0800 
@<TRIPOS>BOND
     1    1    2 1    
     2    1  127 1    
     3    1  128 1    
     4    1  129 1    
     5    2    3 2    
     6    2    4 am   BACKBONE|DICT|INTERRES
     7    4    5 1    
     8    4  130 1    
     9    5    6 1    
    10    5   65 1    
    11    5  131 1    
    12    6    7 1    
    13    6  132 1    
    14    6  133 1    
    15    7    8 1    
    16    8    9 1    
    17    8  134 1    
    18    8  135 1    
    19    9   10 ar   
    20    9   14 ar   
    21   10   11 ar   
    22   10  136 1    
    23   11   12 ar   
    24   11  126 1    
    25   12   13 ar   
    26   12  137 1    
    27   13   14 ar   
    28   13   15 1    
    29   14  138 1    
    30   15   16 1    
    31   15  139 1    
    32   15  140 1    
    33   16   17 1    
    34   17   18 1    
    35   17  141 1    
    36   17  142 1    
    37   18   19 1    
    38   18   67 1    
    39   18  143 1    
    40   19   20 am   BACKBONE|DICT|INTERRES
    41   19  144 1    
    42   20   21 2    
    43   20   22 1    
    44   22   23 1    
    45   22   24 1    
    46   22  145 1    
    47   23  146 1    
    48   23  147 1    
    49   23  148 1    
    50   24   25 am   BACKBONE|DICT|INTERRES
    51   24  149 1    
    52   25   26 2    
    53   25   27 1    
    54   27   28 1    
    55   27   29 1    
    56   27  150 1    
    57   28  151 1    
    58   28  152 1    
    59   28  153 1    
    60   29   30 am   BACKBONE|DICT|INTERRES
    61   29  154 1    
    62   30   31 2    
    63   30   32 1    
    64   32   33 1    
    65   32   34 1    
    66   32  155 1    
    67   33  156 1    
    68   33  157 1    
    69   33  158 1    
    70   34   35 am   BACKBONE|DICT|INTERRES
    71   34  159 1    
    72   35   36 2    
    73   35   37 1    
    74   37   38 1    
    75   37   39 1    
    76   37  160 1    
    77   38  161 1    
    78   38  162 1    
    79   38  163 1    
    80   39   40 am   BACKBONE|DICT|INTERRES
    81   39  164 1    
    82   40   41 2    
    83   40   42 1    
    84   42   43 1    
    85   42   44 1    
    86   42  165 1    
    87   43  166 1    
    88   43  167 1    
    89   43  168 1    
    90   44   45 am   BACKBONE|DICT|INTERRES
    91   44  169 1    
    92   45   46 2    
    93   45   47 1    
    94   47   48 1    
    95   47   49 1    
    96   47  170 1    
    97   48  171 1    
    98   48  172 1    
    99   48  173 1    
   100   49   50 am   BACKBONE|DICT|INTERRES
   101   49  174 1    
   102   50   51 2    
   103   50   52 1    
   104   52   53 1    
   105   52   54 1    
   106   52  175 1    
   107   53  176 1    
   108   53  177 1    
   109   53  178 1    
   110   54   55 am   BACKBONE|DICT|INTERRES
   111   54  179 1    
   112   55   56 2    
   113   55   57 1    
   114   57   58 1    
   115   57   59 1    
   116   57  180 1    
   117   58  181 1    
   118   58  182 1    
   119   58  183 1    
   120   59   60 am   BACKBONE|DICT|INTERRES
   121   59  184 1    
   122   60   61 2    
   123   60   62 1    
   124   62   63 1    
   125   62   64 1    
   126   62  185 1    
   127   63  186 1    
   128   63  187 1    
   129   63  188 1    
   130   64   65 am   BACKBONE|DICT|INTERRES
   131   64  189 1    
   132   65   66 2    
   133   67   68 2    
   134   67   69 am   BACKBONE|DICT|INTERRES
   135   69   70 1    
   136   69  190 1    
   137   70   71 1    
   138   70   72 1    
   139   70  191 1    
   140   71  192 1    
   141   71  193 1    
   142   71  194 1    
   143   72   73 2    
   144   72   74 am   BACKBONE|DICT|INTERRES
   145   74   75 1    
   146   74  195 1    
   147   75   76 1    
   148   75   77 1    
   149   75  196 1    
   150   76  197 1    
   151   76  198 1    
   152   76  199 1    
   153   77   78 2    
   154   77   79 am   BACKBONE|DICT|INTERRES
   155   79   80 1    
   156   79  200 1    
   157   80   81 1    
   158   80   82 1    
   159   80  201 1    
   160   81  202 1    
   161   81  203 1    
   162   81  204 1    
   163   82   83 2    
   164   82   84 am   BACKBONE|DICT|INTERRES
   165   84   85 1    
   166   84  205 1    
   167   85   86 1    
   168   85   87 1    
   169   85  206 1    
   170   86  207 1    
   171   86  208 1    
   172   86  209 1    
   173   87   88 2    
   174   87   89 am   BACKBONE|DICT|INTERRES
   175   89   90 1    
   176   89  210 1    
   177   90   91 1    
   178   90   92 1    
   179   90  211 1    
   180   91  212 1    
   181   91  213 1    
   182   91  214 1    
   183   92   93 2    
   184   92   94 am   BACKBONE|DICT|INTERRES
   185   94   95 1    
   186   94  215 1    
   187   95   96 1    
   188   95   97 1    
   189   95  216 1    
   190   96  217 1    
   191   96  218 1    
   192   96  219 1    
   193   97   98 2    
   194   97   99 am   BACKBONE|DICT|INTERRES
   195   99  100 1    
   196   99  220 1    
   197  100  101 1    
   198  100  102 1    
   199  100  221 1    
   200  101  222 1    
   201  101  223 1    
   202  101  224 1    
   203  102  103 2    
   204  102  104 am   BACKBONE|DICT|INTERRES
   205  104  105 1    
   206  104  225 1    
   207  105  106 1    
   208  105  107 1    
   209  105  226 1    
   210  106  227 1    
   211  106  228 1    
   212  106  229 1    
   213  107  108 2    
   214  107  109 am   BACKBONE|DICT|INTERRES
   215  109  110 1    
   216  109  230 1    
   217  110  111 1    
   218  110  112 1    
   219  110  231 1    
   220  111  232 1    
   221  111  233 1    
   222  111  234 1    
   223  112  113 2    
   224  112  114 am   BACKBONE|DICT|INTERRES
   225  114  115 1    
   226  114  235 1    
   227  115  116 1    
   228  115  117 1    
   229  115  236 1    
   230  116  237 1    
   231  116  238 1    
   232  116  239 1    
   233  117  118 2    
   234  117  119 am   BACKBONE|DICT|INTERRES
   235  119  120 1    
   236  119  240 1    
   237  120  121 1    
   238  120  124 1    
   239  120  241 1    
   240  121  122 am   BACKBONE|DICT|INTERRES
   241  121  123 2    
   242  122  242 1    
   243  122  243 1    
   244  124  125 1    
   245  124  244 1    
   246  124  245 1    
   247  125  126 1    
   248  126  246 1    
   249  126  247 1    
@<TRIPOS>SUBSTRUCTURE
     1 UNK         1 GROUP             0       ****    0 ROOT    
