@<TRIPOS>MOLECULE
3R540
247   249    1
SMALL
USER_CHARGES


@<TRIPOS>ATOM
      1 CA         -3.0959  -16.5635  -48.6412 C.3       0 UNK        -0.1800 
      2 C          -2.0155  -15.5220  -48.8700 C.2       0 UNK         0.5000 
      3 O          -2.2498  -14.5346  -49.5670 O.2       0 UNK        -0.5000 
      4 N          -0.8310  -15.7507  -48.2920 N.am      1 UNK        -0.5000 
      5 CA          0.3195  -14.8525  -48.3798 C.3       1 UNK         0.1400 
      6 C6          1.6200  -15.5259  -47.8684 C.3       23 UNK        -0.0398 
      7 S7          3.0599  -15.0176  -48.8697 S.3       23 UNK        -0.2404 
      8 C8          3.3396  -16.4763  -49.9333 C.3       23 UNK        -0.0205 
      9 C9          2.0597  -16.9921  -50.5793 C.ar      23 UNK        -0.0193 
     10 C10         1.4308  -16.2675  -51.5968 C.ar      23 UNK        -0.1150 
     11 C11         0.2270  -16.7200  -52.1472 C.ar      23 UNK        -0.0193 
     12 C12        -0.3490  -17.9000  -51.6699 C.ar      23 UNK        -0.1150 
     13 C13         0.2837  -18.6450  -50.6729 C.ar      23 UNK        -0.0193 
     14 C14         1.4914  -18.1908  -50.1380 C.ar      23 UNK        -0.1150 
     15 C15        -0.3421  -19.9311  -50.1620 C.3       23 UNK        -0.0205 
     16 S16        -0.9795  -19.7045  -48.4778 S.3       23 UNK        -0.2404 
     17 C17        -1.9834  -21.2072  -48.2673 C.3       23 UNK        -0.0398 
     18 CA         -1.2209  -22.3971  -47.6331 C.3       11 UNK         0.1400 
     19 N          -0.5383  -22.0486  -46.3820 N.am      11 UNK        -0.5000 
     20 C           0.2537  -22.8772  -45.6836 C.2       10 UNK         0.5000 
     21 O           0.5551  -24.0083  -46.0617 O.2       10 UNK        -0.5000 
     22 CA          0.7613  -22.3956  -44.3104 C.3       10 UNK         0.1400 
     23 CB          2.1825  -21.8263  -44.4276 C.3       10 UNK        -0.1800 
     24 N          -0.1166  -21.4205  -43.6617 N.am      10 UNK        -0.5000 
     25 C          -1.3917  -21.6445  -43.3100 C.2       9 UNK         0.5000 
     26 O          -1.9674  -22.7210  -43.4782 O.2       9 UNK        -0.5000 
     27 CA         -2.1667  -20.4512  -42.7191 C.3       9 UNK         0.1400 
     28 CB         -1.9887  -20.3878  -41.1954 C.3       9 UNK        -0.1800 
     29 N          -1.7766  -19.1696  -43.3139 N.am      9 UNK        -0.5000 
     30 C          -1.9817  -18.8378  -44.5967 C.2       8 UNK         0.5000 
     31 O          -2.5752  -19.5616  -45.3955 O.2       8 UNK        -0.5000 
     32 CA         -1.3936  -17.4980  -45.0784 C.3       8 UNK         0.1400 
     33 CB         -2.3198  -16.3252  -44.7262 C.3       8 UNK        -0.1800 
     34 N          -0.0540  -17.2514  -44.5426 N.am      8 UNK        -0.5000 
     35 C           1.0385  -17.9398  -44.9031 C.2       7 UNK         0.5000 
     36 O           1.0498  -18.7619  -45.8164 O.2       7 UNK        -0.5000 
     37 CA          2.3229  -17.7094  -44.0844 C.3       7 UNK         0.1400 
     38 CB          3.1962  -16.6023  -44.6938 C.3       7 UNK        -0.1800 
     39 N           2.0390  -17.3959  -42.6841 N.am      7 UNK        -0.5000 
     40 C           1.6065  -18.2910  -41.7851 C.2       6 UNK         0.5000 
     41 O           1.4344  -19.4820  -42.0390 O.2       6 UNK        -0.5000 
     42 CA          1.2691  -17.7568  -40.3805 C.3       6 UNK         0.1400 
     43 CB          2.5312  -17.6991  -39.5073 C.3       6 UNK        -0.1800 
     44 N           0.6468  -16.4328  -40.4194 N.am      6 UNK        -0.5000 
     45 C          -0.5595  -16.1751  -40.9452 C.2       5 UNK         0.5000 
     46 O          -1.3044  -17.0442  -41.3955 O.2       5 UNK        -0.5000 
     47 CA         -0.9716  -14.6929  -41.0396 C.3       5 UNK         0.1400 
     48 CB         -1.6984  -14.2512  -39.7611 C.3       5 UNK        -0.1800 
     49 N           0.1688  -13.8042  -41.2857 N.am      5 UNK        -0.5000 
     50 C           0.9206  -13.8326  -42.3936 C.2       4 UNK         0.5000 
     51 O           0.7011  -14.5784  -43.3513 O.2       4 UNK        -0.5000 
     52 CA          2.1737  -12.9504  -42.3892 C.3       4 UNK         0.1400 
     53 CB          3.2988  -13.6586  -41.6045 C.3       4 UNK        -0.1800 
     54 N           2.5863  -12.7040  -43.7679 N.am      4 UNK        -0.5000 
     55 C           3.5405  -11.8492  -44.1551 C.2       3 UNK         0.5000 
     56 O           4.1752  -11.1319  -43.3805 O.2       3 UNK        -0.5000 
     57 CA          3.8416  -11.7763  -45.6635 C.3       3 UNK         0.1400 
     58 CB          4.7945  -12.9102  -46.0746 C.3       3 UNK        -0.1800 
     59 N           2.6537  -11.8215  -46.5168 N.am      3 UNK        -0.5000 
     60 C           1.6684  -10.9106  -46.5364 C.2       2 UNK         0.5000 
     61 O           1.6227   -9.9370  -45.7838 O.2       2 UNK        -0.5000 
     62 CA          0.5604  -11.0954  -47.5949 C.3       2 UNK         0.1400 
     63 CB          0.6957  -10.0405  -48.7046 C.3       2 UNK        -0.1800 
     64 N           0.5755  -12.4246  -48.2099 N.am      2 UNK        -0.5000 
     65 C           0.0691  -13.5235  -47.6390 C.2       1 UNK         0.5000 
     66 O          -0.5163  -13.5227  -46.5547 O.2       1 UNK        -0.5000 
     67 C          -2.1945  -23.5705  -47.4133 C.2       11 UNK         0.5000 
     68 O          -2.0883  -24.5945  -48.0893 O.2       11 UNK        -0.5000 
     69 N          -3.0911  -23.4047  -46.4302 N.am      12 UNK        -0.5000 
     70 CA         -4.1068  -24.3857  -46.0529 C.3       12 UNK         0.1400 
     71 CB         -5.1128  -23.7283  -45.0967 C.3       12 UNK        -0.1800 
     72 C          -3.5020  -25.6535  -45.4289 C.2       12 UNK         0.5000 
     73 O          -4.0266  -26.7453  -45.6511 O.2       12 UNK        -0.5000 
     74 N          -2.3962  -25.4907  -44.6876 N.am      13 UNK        -0.5000 
     75 CA         -1.6060  -26.5905  -44.1345 C.3       13 UNK         0.1400 
     76 CB         -0.5606  -26.0349  -43.1570 C.3       13 UNK        -0.1800 
     77 C          -0.9305  -27.4426  -45.2269 C.2       13 UNK         0.5000 
     78 O          -0.8340  -28.6594  -45.0630 O.2       13 UNK        -0.5000 
     79 N          -0.4912  -26.7985  -46.3191 N.am      14 UNK        -0.5000 
     80 CA          0.0601  -27.4563  -47.5009 C.3       14 UNK         0.1400 
     81 CB          0.8272  -26.4457  -48.3701 C.3       14 UNK        -0.1800 
     82 C          -1.0318  -28.1906  -48.2982 C.2       14 UNK         0.5000 
     83 O          -0.9486  -29.4133  -48.4184 O.2       14 UNK        -0.5000 
     84 N          -2.0345  -27.4435  -48.7897 N.am      15 UNK        -0.5000 
     85 CA         -3.2219  -27.9352  -49.5081 C.3       15 UNK         0.1400 
     86 CB         -2.8666  -28.9218  -50.6470 C.3       15 UNK        -0.1800 
     87 C          -4.0459  -26.7921  -50.1248 C.2       15 UNK         0.5000 
     88 O          -5.2621  -26.9367  -50.2578 O.2       15 UNK        -0.5000 
     89 N          -3.3726  -25.7146  -50.5508 N.am      16 UNK        -0.5000 
     90 CA         -3.9471  -24.5971  -51.3012 C.3       16 UNK         0.1400 
     91 CB         -2.8222  -23.6271  -51.6932 C.3       16 UNK        -0.1800 
     92 C          -5.0540  -23.8426  -50.5439 C.2       16 UNK         0.5000 
     93 O          -4.9103  -23.5624  -49.3522 O.2       16 UNK        -0.5000 
     94 N          -6.1165  -23.4702  -51.2680 N.am      17 UNK        -0.5000 
     95 CA         -7.2370  -22.6684  -50.7744 C.3       17 UNK         0.1400 
     96 CB         -8.4543  -22.8979  -51.6881 C.3       17 UNK        -0.1800 
     97 C          -6.8481  -21.1801  -50.6585 C.2       17 UNK         0.5000 
     98 O          -7.3592  -20.3407  -51.4026 O.2       17 UNK        -0.5000 
     99 N          -5.9120  -20.8950  -49.7440 N.am      18 UNK        -0.5000 
    100 CA        -5.3140  -19.5901  -49.4644 C.3       18 UNK         0.1400 
    101 CB        -6.3472  -18.6609  -48.7872 C.3       18 UNK        -0.1800 
    102 C         -4.6450  -19.0003  -50.7235 C.2       18 UNK         0.5000 
    103 O         -3.7099  -19.6052  -51.2506 O.2       18 UNK        -0.5000 
    104 N         -5.1370  -17.8458  -51.1914 N.am      19 UNK        -0.5000 
    105 CA        -4.6163  -17.0926  -52.3338 C.3       19 UNK         0.1400 
    106 CB        -5.2854  -15.7107  -52.3621 C.3       19 UNK        -0.1800 
    107 C         -4.7608  -17.7981  -53.6982 C.2       19 UNK         0.5000 
    108 O         -4.1756  -17.3275  -54.6750 O.2       19 UNK        -0.5000 
    109 N         -5.4955  -18.9197  -53.7538 N.am      20 UNK        -0.5000 
    110 CA        -5.6899  -19.7648  -54.9375 C.3       20 UNK         0.1400 
    111 CB        -6.6316  -20.9219  -54.5750 C.3       20 UNK        -0.1800 
    112 C         -4.3892  -20.3165  -55.5595 C.2       20 UNK         0.5000 
    113 O         -4.3916  -20.6606  -56.7418 O.2       20 UNK        -0.5000 
    114 N         -3.3018  -20.3709  -54.7751 N.am      21 UNK        -0.5000 
    115 CA        -1.9562  -20.6962  -55.2542 C.3       21 UNK         0.1400 
    116 CB        -1.0341  -20.9474  -54.0522 C.3       21 UNK        -0.1800 
    117 C         -1.3573  -19.6116  -56.1760 C.2       21 UNK         0.5000 
    118 O         -0.5320  -19.9442  -57.0281 O.2       21 UNK        -0.5000 
    119 N         -1.7824  -18.3530  -56.0009 N.am      22 UNK        -0.5000 
    120 CA        -1.4053  -17.2110  -56.8498 C.3       22 UNK         0.1400 
    121 C         -2.5226  -16.8585  -57.8672 C.2       22 UNK         0.5000 
    122 N         -3.7933  -16.9269  -57.4882 N.am      22 UNK        -0.7600 
    123 O         -2.2347  -16.5236  -59.0130 O.2       22 UNK        -0.5000 
    124 C124       -1.0291  -15.9548  -56.0227 C.3       23 UNK        -0.0398 
    125 S125        0.3425  -16.2685  -54.8601 S.3       23 UNK        -0.2404 
    126 C126       -0.4564  -15.9423  -53.2582 C.3       23 UNK        -0.0205 
    127 H127       -4.0531  -16.2107  -49.0241 H         1 UNK         0.0600 
    128 H128       -2.8316  -17.4825  -49.1603 H         1 UNK         0.0600 
    129 H129       -3.2136  -16.7845  -47.5815 H         1 UNK         0.0600 
    130 H130       -0.6955  -16.5906  -47.7506 H         1 UNK         0.3000 
    131 H131        0.4313  -14.6263  -49.4425 H         1 UNK         0.0600 
    132 H132        1.5398  -16.6127  -47.8891 H         1 UNK         0.0800 
    133 H133        1.8137  -15.2833  -46.8233 H         1 UNK         0.0800 
    134 H134        4.0576  -16.2154  -50.7119 H         1 UNK         0.0800 
    135 H135        3.8093  -17.2597  -49.3364 H         1 UNK         0.0800 
    136 H136        1.8717  -15.3466  -51.9517 H         1 UNK         0.1150 
    137 H137       -1.2900  -18.2411  -52.0770 H         1 UNK         0.1150 
    138 H138        1.9694  -18.7589  -49.3520 H         1 UNK         0.1150 
    139 H139       -1.1487  -20.2502  -50.8231 H         1 UNK         0.0800 
    140 H140        0.4002  -20.7303  -50.1660 H         1 UNK         0.0800 
    141 H141       -2.4118  -21.4897  -49.2303 H         1 UNK         0.0800 
    142 H142       -2.8303  -20.9267  -47.6406 H         1 UNK         0.0800 
    143 H143       -0.4576  -22.7266  -48.3411 H         1 UNK         0.0600 
    144 H144       -0.7249  -21.1251  -46.0141 H         1 UNK         0.3000 
    145 H145        0.8084  -23.2647  -43.6539 H         1 UNK         0.0600 
    146 H146        2.5739  -21.5302  -43.4545 H         1 UNK         0.0600 
    147 H147        2.8655  -22.5714  -44.8374 H         1 UNK         0.0600 
    148 H148        2.2176  -20.9589  -45.0850 H         1 UNK         0.0600 
    149 H149        0.3003  -20.5298  -43.4156 H         1 UNK         0.3000 
    150 H150       -3.2262  -20.6096  -42.9307 H         1 UNK         0.0600 
    151 H151       -2.3144  -21.3169  -40.7260 H         1 UNK         0.0600 
    152 H152       -2.5789  -19.5798  -40.7626 H         1 UNK         0.0600 
    153 H153       -0.9472  -20.2275  -40.9172 H         1 UNK         0.0600 
    154 H154       -1.3530  -18.4869  -42.6925 H         1 UNK         0.3000 
    155 H155       -1.3170  -17.5533  -46.1647 H         1 UNK         0.0600 
    156 H156       -2.4358  -16.2087  -43.6495 H         1 UNK         0.0600 
    157 H157       -3.3154  -16.4733  -45.1455 H         1 UNK         0.0600 
    158 H158       -1.9342  -15.3864  -45.1239 H         1 UNK         0.0600 
    159 H159        0.0361  -16.5314  -43.8354 H         1 UNK         0.3000 
    160 H160        2.8980  -18.6373  -44.1151 H         1 UNK         0.0600 
    161 H161        4.1382  -16.5041  -44.1542 H         1 UNK         0.0600 
    162 H162        2.7001  -15.6332  -44.6717 H         1 UNK         0.0600 
    163 H163        3.4420  -16.8269  -45.7324 H         1 UNK         0.0600 
    164 H164        2.1038  -16.4264  -42.4142 H         1 UNK         0.3000 
    165 H165        0.5640  -18.4511  -39.9188 H         1 UNK         0.0600 
    166 H166        2.2922  -17.3923  -38.4889 H         1 UNK         0.0600 
    167 H167        3.0083  -18.6783  -39.4469 H         1 UNK         0.0600 
    168 H168        3.2670  -16.9992  -39.9055 H         1 UNK         0.0600 
    169 H169        1.1890  -15.6625  -40.0582 H         1 UNK         0.3000 
    170 H170       -1.6635  -14.5939  -41.8786 H         1 UNK         0.0600 
    171 H171       -2.5646  -14.8852  -39.5665 H         1 UNK         0.0600 
    172 H172       -1.0483  -14.3062  -38.8870 H         1 UNK         0.0600 
    173 H173       -2.0604  -13.2266  -39.8473 H         1 UNK         0.0600 
    174 H174        0.4142  -13.1691  -40.5394 H         1 UNK         0.3000 
    175 H175        1.9303  -11.9970  -41.9162 H         1 UNK         0.0600 
    176 H176        3.6061  -14.5848  -42.0917 H         1 UNK         0.0600 
    177 H177        4.1817  -13.0275  -41.5074 H         1 UNK         0.0600 
    178 H178        2.9803  -13.9091  -40.5920 H         1 UNK         0.0600 
    179 H179        2.0698  -13.2349  -44.4580 H         1 UNK         0.3000 
    180 H180        4.3446  -10.8255  -45.8517 H         1 UNK         0.0600 
    181 H181        4.3332  -13.8907  -45.9496 H         1 UNK         0.0600 
    182 H182        5.7031  -12.8959  -45.4712 H         1 UNK         0.0600 
    183 H183        5.0971  -12.8137  -47.1175 H         1 UNK         0.0600 
    184 H184        2.6122  -12.5748  -47.1864 H         1 UNK         0.3000 
    185 H185       -0.3995  -10.9438  -47.0964 H         1 UNK         0.0600 
    186 H186        0.6527   -9.0312  -48.2930 H         1 UNK         0.0600 
    187 H187        1.6416  -10.1368  -49.2391 H         1 UNK         0.0600 
    188 H188       -0.1120  -10.1271  -49.4316 H         1 UNK         0.0600 
    189 H189        1.0452  -12.5017  -49.1011 H         1 UNK         0.3000 
    190 H190       -3.0576  -22.5584  -45.8796 H         1 UNK         0.3000 
    191 H191       -4.6397  -24.6874  -46.9566 H         1 UNK         0.0600 
    192 H192       -4.6319  -23.3835  -44.1804 H         1 UNK         0.0600 
    193 H193       -5.8970  -24.4309  -44.8125 H         1 UNK         0.0600 
    194 H194       -5.5982  -22.8716  -45.5647 H         1 UNK         0.0600 
    195 H195       -2.0728  -24.5478  -44.5015 H         1 UNK         0.3000 
    196 H196       -2.2843  -27.2375  -43.5743 H         1 UNK         0.0600 
    197 H197        0.2096  -25.4674  -43.6772 H         1 UNK         0.0600 
    198 H198       -0.0612  -26.8450  -42.6243 H         1 UNK         0.0600 
    199 H199       -1.0166  -25.3844  -42.4103 H         1 UNK         0.0600 
    200 H200       -0.5590  -25.7878  -46.3549 H         1 UNK         0.3000 
    201 H201        0.7815  -28.2037  -47.1633 H         1 UNK         0.0600 
    202 H202        0.1935  -25.6309  -48.7171 H         1 UNK         0.0600 
    203 H203        1.2475  -26.9314  -49.2514 H         1 UNK         0.0600 
    204 H204        1.6563  -26.0052  -47.8162 H         1 UNK         0.0600 
    205 H205       -2.0439  -26.4510  -48.5603 H         1 UNK         0.3000 
    206 H206       -3.8605  -28.4436  -48.7836 H         1 UNK         0.0600 
    207 H207       -3.7226  -29.1040  -51.2989 H         1 UNK         0.0600 
    208 H208       -2.0583  -28.5399  -51.2713 H         1 UNK         0.0600 
    209 H209       -2.5695  -29.8974  -50.2652 H         1 UNK         0.0600 
    210 H210       -2.3826  -25.6616  -50.3646 H         1 UNK         0.3000 
    211 H211       -4.3764  -25.0090  -52.2168 H         1 UNK         0.0600 
    212 H212       -2.2776  -23.2700  -50.8190 H         1 UNK         0.0600 
    213 H213       -3.2211  -22.7534  -52.2109 H         1 UNK         0.0600 
    214 H214       -2.1053  -24.1035  -52.3621 H         1 UNK         0.0600 
    215 H215       -6.1483  -23.7163  -52.2464 H         1 UNK         0.3000 
    216 H216       -7.5061  -23.0144  -49.7740 H         1 UNK         0.0600 
    217 H217       -9.3136  -22.3198  -51.3458 H         1 UNK         0.0600 
    218 H218       -8.7512  -23.9468  -51.6908 H         1 UNK         0.0600 
    219 H219       -8.2516  -22.6055  -52.7185 H         1 UNK         0.0600 
    220 H220       -5.4993  -21.6872  -49.2602 H         1 UNK         0.3000 
    221 H221       -4.5113  -19.7583  -48.7475 H         1 UNK         0.0600 
    222 H222       -7.2001  -18.4466  -49.4319 H         1 UNK         0.0600 
    223 H223       -6.7346  -19.1163  -47.8757 H         1 UNK         0.0600 
    224 H224       -5.8986  -17.7105  -48.4977 H         1 UNK         0.0600 
    225 H225       -5.9374  -17.4467  -50.7230 H         1 UNK         0.3000 
    226 H226       -3.5478  -16.9455  -52.1666 H         1 UNK         0.0600 
    227 H227       -5.0998  -15.1644  -51.4368 H         1 UNK         0.0600 
    228 H228       -4.8949  -15.1014  -53.1784 H         1 UNK         0.0600 
    229 H229       -6.3647  -15.7896  -52.4978 H         1 UNK         0.0600 
    230 H230       -5.9485  -19.2327  -52.9041 H         1 UNK         0.3000 
    231 H231       -6.1761  -19.1516  -55.6986 H         1 UNK         0.0600 
    232 H232       -7.5909  -20.5518  -54.2127 H         1 UNK         0.0600 
    233 H233       -6.2005  -21.5575  -53.8010 H         1 UNK         0.0600 
    234 H234       -6.8345  -21.5513  -55.4425 H         1 UNK         0.0600 
    235 H235       -3.3903  -20.0914  -53.8075 H         1 UNK         0.3000 
    236 H236       -2.0173  -21.6210  -55.8318 H         1 UNK         0.0600 
    237 H237       -0.0298  -21.2183  -54.3804 H         1 UNK         0.0600 
    238 H238       -0.9436  -20.0620  -53.4260 H         1 UNK         0.0600 
    239 H239       -1.4014  -21.7630  -53.4316 H         1 UNK         0.0600 
    240 H240       -2.5080  -18.1686  -55.3188 H         1 UNK         0.3000 
    241 H241       -0.5240  -17.4753  -57.4375 H         1 UNK         0.0600 
    242 H242       -4.5213  -16.7034  -58.1477 H         1 UNK         0.3800 
    243 H243       -4.0315  -17.1329  -56.5220 H         1 UNK         0.3800 
    244 H244       -0.7156  -15.1476  -56.6870 H         1 UNK         0.0800 
    245 H245       -1.8993  -15.5771  -55.4831 H         1 UNK         0.0800 
    246 H246       -0.4242  -14.8731  -53.0437 H         1 UNK         0.0800 
    247 H247       -1.5106  -16.2173  -53.3052 H         1 UNK         0.0800 
@<TRIPOS>BOND
     1    1    2 1    
     2    1  127 1    
     3    1  128 1    
     4    1  129 1    
     5    2    3 2    
     6    2    4 am   BACKBONE|DICT|INTERRES
     7    4    5 1    
     8    4  130 1    
     9    5    6 1    
    10    5   65 1    
    11    5  131 1    
    12    6    7 1    
    13    6  132 1    
    14    6  133 1    
    15    7    8 1    
    16    8    9 1    
    17    8  134 1    
    18    8  135 1    
    19    9   10 ar   
    20    9   14 ar   
    21   10   11 ar   
    22   10  136 1    
    23   11   12 ar   
    24   11  126 1    
    25   12   13 ar   
    26   12  137 1    
    27   13   14 ar   
    28   13   15 1    
    29   14  138 1    
    30   15   16 1    
    31   15  139 1    
    32   15  140 1    
    33   16   17 1    
    34   17   18 1    
    35   17  141 1    
    36   17  142 1    
    37   18   19 1    
    38   18   67 1    
    39   18  143 1    
    40   19   20 am   BACKBONE|DICT|INTERRES
    41   19  144 1    
    42   20   21 2    
    43   20   22 1    
    44   22   23 1    
    45   22   24 1    
    46   22  145 1    
    47   23  146 1    
    48   23  147 1    
    49   23  148 1    
    50   24   25 am   BACKBONE|DICT|INTERRES
    51   24  149 1    
    52   25   26 2    
    53   25   27 1    
    54   27   28 1    
    55   27   29 1    
    56   27  150 1    
    57   28  151 1    
    58   28  152 1    
    59   28  153 1    
    60   29   30 am   BACKBONE|DICT|INTERRES
    61   29  154 1    
    62   30   31 2    
    63   30   32 1    
    64   32   33 1    
    65   32   34 1    
    66   32  155 1    
    67   33  156 1    
    68   33  157 1    
    69   33  158 1    
    70   34   35 am   BACKBONE|DICT|INTERRES
    71   34  159 1    
    72   35   36 2    
    73   35   37 1    
    74   37   38 1    
    75   37   39 1    
    76   37  160 1    
    77   38  161 1    
    78   38  162 1    
    79   38  163 1    
    80   39   40 am   BACKBONE|DICT|INTERRES
    81   39  164 1    
    82   40   41 2    
    83   40   42 1    
    84   42   43 1    
    85   42   44 1    
    86   42  165 1    
    87   43  166 1    
    88   43  167 1    
    89   43  168 1    
    90   44   45 am   BACKBONE|DICT|INTERRES
    91   44  169 1    
    92   45   46 2    
    93   45   47 1    
    94   47   48 1    
    95   47   49 1    
    96   47  170 1    
    97   48  171 1    
    98   48  172 1    
    99   48  173 1    
   100   49   50 am   BACKBONE|DICT|INTERRES
   101   49  174 1    
   102   50   51 2    
   103   50   52 1    
   104   52   53 1    
   105   52   54 1    
   106   52  175 1    
   107   53  176 1    
   108   53  177 1    
   109   53  178 1    
   110   54   55 am   BACKBONE|DICT|INTERRES
   111   54  179 1    
   112   55   56 2    
   113   55   57 1    
   114   57   58 1    
   115   57   59 1    
   116   57  180 1    
   117   58  181 1    
   118   58  182 1    
   119   58  183 1    
   120   59   60 am   BACKBONE|DICT|INTERRES
   121   59  184 1    
   122   60   61 2    
   123   60   62 1    
   124   62   63 1    
   125   62   64 1    
   126   62  185 1    
   127   63  186 1    
   128   63  187 1    
   129   63  188 1    
   130   64   65 am   BACKBONE|DICT|INTERRES
   131   64  189 1    
   132   65   66 2    
   133   67   68 2    
   134   67   69 am   BACKBONE|DICT|INTERRES
   135   69   70 1    
   136   69  190 1    
   137   70   71 1    
   138   70   72 1    
   139   70  191 1    
   140   71  192 1    
   141   71  193 1    
   142   71  194 1    
   143   72   73 2    
   144   72   74 am   BACKBONE|DICT|INTERRES
   145   74   75 1    
   146   74  195 1    
   147   75   76 1    
   148   75   77 1    
   149   75  196 1    
   150   76  197 1    
   151   76  198 1    
   152   76  199 1    
   153   77   78 2    
   154   77   79 am   BACKBONE|DICT|INTERRES
   155   79   80 1    
   156   79  200 1    
   157   80   81 1    
   158   80   82 1    
   159   80  201 1    
   160   81  202 1    
   161   81  203 1    
   162   81  204 1    
   163   82   83 2    
   164   82   84 am   BACKBONE|DICT|INTERRES
   165   84   85 1    
   166   84  205 1    
   167   85   86 1    
   168   85   87 1    
   169   85  206 1    
   170   86  207 1    
   171   86  208 1    
   172   86  209 1    
   173   87   88 2    
   174   87   89 am   BACKBONE|DICT|INTERRES
   175   89   90 1    
   176   89  210 1    
   177   90   91 1    
   178   90   92 1    
   179   90  211 1    
   180   91  212 1    
   181   91  213 1    
   182   91  214 1    
   183   92   93 2    
   184   92   94 am   BACKBONE|DICT|INTERRES
   185   94   95 1    
   186   94  215 1    
   187   95   96 1    
   188   95   97 1    
   189   95  216 1    
   190   96  217 1    
   191   96  218 1    
   192   96  219 1    
   193   97   98 2    
   194   97   99 am   BACKBONE|DICT|INTERRES
   195   99  100 1    
   196   99  220 1    
   197  100  101 1    
   198  100  102 1    
   199  100  221 1    
   200  101  222 1    
   201  101  223 1    
   202  101  224 1    
   203  102  103 2    
   204  102  104 am   BACKBONE|DICT|INTERRES
   205  104  105 1    
   206  104  225 1    
   207  105  106 1    
   208  105  107 1    
   209  105  226 1    
   210  106  227 1    
   211  106  228 1    
   212  106  229 1    
   213  107  108 2    
   214  107  109 am   BACKBONE|DICT|INTERRES
   215  109  110 1    
   216  109  230 1    
   217  110  111 1    
   218  110  112 1    
   219  110  231 1    
   220  111  232 1    
   221  111  233 1    
   222  111  234 1    
   223  112  113 2    
   224  112  114 am   BACKBONE|DICT|INTERRES
   225  114  115 1    
   226  114  235 1    
   227  115  116 1    
   228  115  117 1    
   229  115  236 1    
   230  116  237 1    
   231  116  238 1    
   232  116  239 1    
   233  117  118 2    
   234  117  119 am   BACKBONE|DICT|INTERRES
   235  119  120 1    
   236  119  240 1    
   237  120  121 1    
   238  120  124 1    
   239  120  241 1    
   240  121  122 am   BACKBONE|DICT|INTERRES
   241  121  123 2    
   242  122  242 1    
   243  122  243 1    
   244  124  125 1    
   245  124  244 1    
   246  124  245 1    
   247  125  126 1    
   248  126  246 1    
   249  126  247 1    
@<TRIPOS>SUBSTRUCTURE
     1 UNK         1 GROUP             0       ****    0 ROOT    
