@<TRIPOS>MOLECULE
3R540
247   249    1
SMALL
USER_CHARGES


@<TRIPOS>ATOM
      1 CA          4.8194  -13.2037  -45.5472 C.3       0 UNK        -0.1800 
      2 C           3.7410  -13.7930  -46.4448 C.2       0 UNK         0.5000 
      3 O           3.1722  -14.8334  -46.1173 O.2       0 UNK        -0.5000 
      4 N           3.4701  -13.1339  -47.5786 N.am      1 UNK        -0.5000 
      5 CA          2.4741  -13.5569  -48.5704 C.3       1 UNK         0.1400 
      6 C6          2.9084  -13.1537  -50.0030 C.3       23 UNK        -0.0398 
      7 S7          2.2701  -14.3114  -51.2569 S.3       23 UNK        -0.2404 
      8 C8          3.5210  -15.6329  -51.1760 C.3       23 UNK        -0.0205 
      9 C9          2.8917  -16.9999  -51.3940 C.ar      23 UNK        -0.0193 
     10 C10         2.3588  -17.3299  -52.6424 C.ar      23 UNK        -0.1150 
     11 C11         1.7634  -18.5753  -52.8571 C.ar      23 UNK        -0.0193 
     12 C12         1.7397  -19.5113  -51.8196 C.ar      23 UNK        -0.1150 
     13 C13         2.2890  -19.2029  -50.5705 C.ar      23 UNK        -0.0193 
     14 C14         2.8495  -17.9392  -50.3579 C.ar      23 UNK        -0.1150 
     15 C15         2.3322  -20.2603  -49.4780 C.3       23 UNK        -0.0205 
     16 S16         0.6742  -20.7419  -48.9041 S.3       23 UNK        -0.2404 
     17 C17         1.0215  -22.4538  -48.3799 C.3       23 UNK        -0.0398 
     18 CA          0.0982  -23.0376  -47.2874 C.3       11 UNK         0.1400 
     19 N           0.3630  -22.5107  -45.9448 N.am      11 UNK        -0.5000 
     20 C           0.0295  -23.1839  -44.8327 C.2       10 UNK         0.5000 
     21 O          -0.5498  -24.2693  -44.8469 O.2       10 UNK        -0.5000 
     22 CA          0.3591  -22.5406  -43.4788 C.3       10 UNK         0.1400 
     23 CB          1.8614  -22.6461  -43.1775 C.3       10 UNK        -0.1800 
     24 N          -0.0812  -21.1511  -43.3966 N.am      10 UNK        -0.5000 
     25 C          -1.3607  -20.7552  -43.4606 C.2       9 UNK         0.5000 
     26 O          -2.3119  -21.5299  -43.5643 O.2       9 UNK        -0.5000 
     27 CA         -1.6203  -19.2376  -43.4507 C.3       9 UNK         0.1400 
     28 CB         -1.5949  -18.6881  -42.0173 C.3       9 UNK        -0.1800 
     29 N          -0.6733  -18.4950  -44.2832 N.am      9 UNK        -0.5000 
     30 C          -0.5417  -18.6638  -45.6076 C.2       8 UNK         0.5000 
     31 O          -1.2195  -19.4508  -46.2657 O.2       8 UNK        -0.5000 
     32 CA          0.5541  -17.8465  -46.3085 C.3       8 UNK         0.1400 
     33 CB          0.0749  -16.4143  -46.5607 C.3       8 UNK        -0.1800 
     34 N           1.7992  -17.8219  -45.5441 N.am      8 UNK        -0.5000 
     35 C           2.5649  -18.8985  -45.3201 C.2       7 UNK         0.5000 
     36 O           2.3253  -20.0215  -45.7681 O.2       7 UNK        -0.5000 
     37 CA          3.7774  -18.6907  -44.3956 C.3       7 UNK         0.1400 
     38 CB          4.9076  -17.9392  -45.1154 C.3       7 UNK        -0.1800 
     39 N           3.4275  -17.9930  -43.1550 N.am      7 UNK        -0.5000 
     40 C           2.6235  -18.5049  -42.2123 C.2       6 UNK         0.5000 
     41 O           2.0766  -19.6014  -42.3049 O.2       6 UNK        -0.5000 
     42 CA          2.3718  -17.6573  -40.9538 C.3       6 UNK         0.1400 
     43 CB          3.4839  -17.8902  -39.9199 C.3       6 UNK        -0.1800 
     44 N           2.2328  -16.2213  -41.1968 N.am      6 UNK        -0.5000 
     45 C           1.3093  -15.6524  -41.9821 C.2       5 UNK         0.5000 
     46 O           0.5475  -16.2806  -42.7220 O.2       5 UNK        -0.5000 
     47 CA          1.2548  -14.1172  -41.9297 C.3       5 UNK         0.1400 
     48 CB          2.2395  -13.5066  -42.9345 C.3       5 UNK        -0.1800 
     49 N          -0.0923  -13.6260  -42.2105 N.am      5 UNK        -0.5000 
     50 C          -1.0765  -13.5609  -41.3022 C.2       4 UNK         0.5000 
     51 O          -0.9284  -13.8790  -40.1210 O.2       4 UNK        -0.5000 
     52 CA         -2.4507  -13.0291  -41.7616 C.3       4 UNK         0.1400 
     53 CB         -2.6280  -11.5645  -41.3308 C.3       4 UNK        -0.1800 
     54 N          -2.6583  -13.1184  -43.2058 N.am      4 UNK        -0.5000 
     55 C          -2.9365  -14.2479  -43.8688 C.2       3 UNK         0.5000 
     56 O          -3.1432  -15.3288  -43.3170 O.2       3 UNK        -0.5000 
     57 CA         -2.9934  -14.1622  -45.4093 C.3       3 UNK         0.1400 
     58 CB         -4.4525  -14.1308  -45.8897 C.3       3 UNK        -0.1800 
     59 N          -2.2717  -13.0328  -46.0151 N.am      3 UNK        -0.5000 
     60 C          -0.9633  -12.7837  -45.8729 C.2       2 UNK         0.5000 
     61 O          -0.2378  -13.3809  -45.0798 O.2       2 UNK        -0.5000 
     62 CA         -0.3554  -11.6675  -46.7390 C.3       2 UNK         0.1400 
     63 CB         -0.1298  -10.3993  -45.9018 C.3       2 UNK        -0.1800 
     64 N           0.9229  -12.1064  -47.3008 N.am      2 UNK        -0.5000 
     65 C           1.0469  -13.0656  -48.2302 C.2       1 UNK         0.5000 
     66 O           0.0800  -13.5695  -48.8032 O.2       1 UNK        -0.5000 
     67 C          -1.4001  -23.0152  -47.6559 C.2       11 UNK         0.5000 
     68 O          -1.8473  -23.9110  -48.3728 O.2       11 UNK        -0.5000 
     69 N          -2.1637  -22.0480  -47.1251 N.am      12 UNK        -0.5000 
     70 CA         -3.6252  -22.0072  -47.2091 C.3       12 UNK         0.1400 
     71 CB         -4.1453  -20.6620  -46.6798 C.3       12 UNK        -0.1800 
     72 C          -4.3015  -23.1708  -46.4599 C.2       12 UNK         0.5000 
     73 O          -5.3257  -23.6693  -46.9237 O.2       12 UNK        -0.5000 
     74 N          -3.7209  -23.5912  -45.3296 N.am      13 UNK        -0.5000 
     75 CA         -4.1956  -24.7284  -44.5459 C.3       13 UNK         0.1400 
     76 CB         -3.6829  -24.6068  -43.1019 C.3       13 UNK        -0.1800 
     77 C          -3.7806  -26.0746  -45.1656 C.2       13 UNK         0.5000 
     78 O          -4.6238  -26.9598  -45.3142 O.2       13 UNK        -0.5000 
     79 N          -2.4877  -26.2157  -45.4865 N.am      14 UNK        -0.5000 
     80 CA         -1.8793  -27.4797  -45.8981 C.3       14 UNK         0.1400 
     81 CB         -0.3651  -27.4234  -45.6385 C.3       14 UNK        -0.1800 
     82 C          -2.1579  -27.8518  -47.3630 C.2       14 UNK         0.5000 
     83 O          -2.5204  -28.9975  -47.6340 O.2       14 UNK        -0.5000 
     84 N          -1.9490  -26.8978  -48.2788 N.am      15 UNK        -0.5000 
     85 CA         -1.9789  -27.1283  -49.7267 C.3       15 UNK         0.1400 
     86 CB         -0.6684  -26.5900  -50.3270 C.3       15 UNK        -0.1800 
     87 C          -3.1822  -26.4646  -50.4158 C.2       15 UNK         0.5000 
     88 O          -3.4754  -26.8049  -51.5621 O.2       15 UNK        -0.5000 
     89 N          -3.8227  -25.5073  -49.7291 N.am      16 UNK        -0.5000 
     90 CA         -4.8413  -24.5802  -50.2333 C.3       16 UNK         0.1400 
     91 CB         -6.1146  -25.3238  -50.6872 C.3       16 UNK        -0.1800 
     92 C          -4.2952  -23.6086  -51.3008 C.2       16 UNK         0.5000 
     93 O          -5.0734  -23.0798  -52.0925 O.2       16 UNK        -0.5000 
     94 N          -2.9741  -23.3728  -51.2983 N.am      17 UNK        -0.5000 
     95 CA         -2.2659  -22.5883  -52.3107 C.3       17 UNK         0.1400 
     96 CB         -0.7496  -22.7633  -52.1368 C.3       17 UNK        -0.1800 
     97 C          -2.6775  -21.1084  -52.2917 C.2       17 UNK         0.5000 
     98 O          -3.2546  -20.6228  -53.2646 O.2       17 UNK        -0.5000 
     99 N          -2.4322  -20.4337  -51.1605 N.am      18 UNK        -0.5000 
    100 CA        -2.8279  -19.0398  -50.9469 C.3       18 UNK         0.1400 
    101 CB        -2.1015  -18.4810  -49.7143 C.3       18 UNK        -0.1800 
    102 C         -4.3552  -18.8594  -50.8312 C.2       18 UNK         0.5000 
    103 O         -4.8620  -17.7914  -51.1734 O.2       18 UNK        -0.5000 
    104 N         -5.0683  -19.9134  -50.4030 N.am      19 UNK        -0.5000 
    105 CA        -6.5329  -19.9594  -50.3374 C.3       19 UNK         0.1400 
    106 CB        -6.9793  -21.2122  -49.5682 C.3       19 UNK        -0.1800 
    107 C         -7.1884  -19.9160  -51.7319 C.2       19 UNK         0.5000 
    108 O         -8.2080  -19.2488  -51.9059 O.2       19 UNK        -0.5000 
    109 N         -6.5623  -20.5869  -52.7078 N.am      20 UNK        -0.5000 
    110 CA        -6.9334  -20.5761  -54.1244 C.3       20 UNK         0.1400 
    111 CB        -6.5099  -21.9160  -54.7498 C.3       20 UNK        -0.1800 
    112 C         -6.3185  -19.3891  -54.8976 C.2       20 UNK         0.5000 
    113 O         -6.3782  -19.3789  -56.1289 O.2       20 UNK        -0.5000 
    114 N         -5.7065  -18.4320  -54.1811 N.am      21 UNK        -0.5000 
    115 CA        -5.0110  -17.2438  -54.6894 C.3       21 UNK         0.1400 
    116 CB        -6.0180  -16.2495  -55.3036 C.3       21 UNK        -0.1800 
    117 C         -3.8444  -17.5857  -55.6413 C.2       21 UNK         0.5000 
    118 O         -3.5645  -16.8298  -56.5736 O.2       21 UNK        -0.5000 
    119 N         -3.1981  -18.7314  -55.3883 N.am      22 UNK        -0.5000 
    120 CA        -2.0910  -19.3134  -56.1625 C.3       22 UNK         0.1400 
    121 C         -2.4961  -19.8318  -57.5766 C.2       22 UNK         0.5000 
    122 N         -3.7792  -19.9756  -57.8918 N.am      22 UNK        -0.7600 
    123 O         -1.6348  -20.1420  -58.3953 O.2       22 UNK        -0.5000 
    124 C124       -0.8190  -18.4195  -56.1851 C.3       23 UNK        -0.0398 
    125 S125       -0.3151  -17.8702  -54.5165 S.3       23 UNK        -0.2404 
    126 C126        1.1524  -18.8987  -54.2114 C.3       23 UNK        -0.0205 
    127 H127        5.4749  -12.5287  -46.0981 H         1 UNK         0.0600 
    128 H128        5.4333  -13.9986  -45.1231 H         1 UNK         0.0600 
    129 H129        4.3656  -12.6466  -44.7283 H         1 UNK         0.0600 
    130 H130        3.9757  -12.2854  -47.7918 H         1 UNK         0.3000 
    131 H131        2.4305  -14.6478  -48.5346 H         1 UNK         0.0600 
    132 H132        2.5847  -12.1409  -50.2495 H         1 UNK         0.0800 
    133 H133        3.9962  -13.1426  -50.0887 H         1 UNK         0.0800 
    134 H134        4.2833  -15.4540  -51.9355 H         1 UNK         0.0800 
    135 H135        4.0344  -15.6073  -50.2135 H         1 UNK         0.0800 
    136 H136        2.3849  -16.6044  -53.4436 H         1 UNK         0.1150 
    137 H137        1.3006  -20.4850  -51.9812 H         1 UNK         0.1150 
    138 H138        3.2718  -17.6953  -49.3931 H         1 UNK         0.1150 
    139 H139        2.8534  -21.1323  -49.8756 H         1 UNK         0.0800 
    140 H140        2.9138  -19.9177  -48.6206 H         1 UNK         0.0800 
    141 H141        2.0538  -22.5125  -48.0315 H         1 UNK         0.0800 
    142 H142        0.9790  -23.0858  -49.2682 H         1 UNK         0.0800 
    143 H143        0.3585  -24.0982  -47.2481 H         1 UNK         0.0600 
    144 H144        0.8306  -21.6126  -45.8784 H         1 UNK         0.3000 
    145 H145       -0.1758  -23.1021  -42.7100 H         1 UNK         0.0600 
    146 H146        2.0817  -22.3184  -42.1617 H         1 UNK         0.0600 
    147 H147        2.2078  -23.6766  -43.2665 H         1 UNK         0.0600 
    148 H148        2.4547  -22.0386  -43.8615 H         1 UNK         0.0600 
    149 H149        0.6471  -20.4554  -43.2607 H         1 UNK         0.3000 
    150 H150       -2.6186  -19.0691  -43.8592 H         1 UNK         0.0600 
    151 H151       -2.3174  -19.2075  -41.3867 H         1 UNK         0.0600 
    152 H152       -1.8483  -17.6277  -41.9979 H         1 UNK         0.0600 
    153 H153       -0.6129  -18.8063  -41.5596 H         1 UNK         0.0600 
    154 H154       -0.1008  -17.7991  -43.8130 H         1 UNK         0.3000 
    155 H155        0.7589  -18.3084  -47.2755 H         1 UNK         0.0600 
    156 H156       -0.1278  -15.8978  -45.6228 H         1 UNK         0.0600 
    157 H157       -0.8401  -16.4033  -47.1541 H         1 UNK         0.0600 
    158 H158        0.8225  -15.8414  -47.1059 H         1 UNK         0.0600 
    159 H159        2.0694  -16.9331  -45.1447 H         1 UNK         0.3000 
    160 H160        4.1544  -19.6799  -44.1264 H         1 UNK         0.0600 
    161 H161        4.6236  -16.9156  -45.3580 H         1 UNK         0.0600 
    162 H162        5.1738  -18.4360  -46.0492 H         1 UNK         0.0600 
    163 H163        5.8070  -17.8995  -44.5009 H         1 UNK         0.0600 
    164 H164        3.8207  -17.0746  -43.0131 H         1 UNK         0.3000 
    165 H165        1.4325  -18.0005  -40.5163 H         1 UNK         0.0600 
    166 H166        3.2596  -17.3892  -38.9781 H         1 UNK         0.0600 
    167 H167        3.5975  -18.9529  -39.7009 H         1 UNK         0.0600 
    168 H168        4.4477  -17.5236  -40.2753 H         1 UNK         0.0600 
    169 H169        2.8307  -15.6225  -40.6459 H         1 UNK         0.3000 
    170 H170        1.5465  -13.7885  -40.9298 H         1 UNK         0.0600 
    171 H171        3.2660  -13.7897  -42.6992 H         1 UNK         0.0600 
    172 H172        2.0317  -13.8472  -43.9475 H         1 UNK         0.0600 
    173 H173        2.1899  -12.4178  -42.9296 H         1 UNK         0.0600 
    174 H174       -0.2985  -13.4448  -43.1894 H         1 UNK         0.3000 
    175 H175       -3.2171  -13.6256  -41.2621 H         1 UNK         0.0600 
    176 H176       -1.8925  -10.9139  -41.8057 H         1 UNK         0.0600 
    177 H177       -3.6207  -11.1947  -41.5878 H         1 UNK         0.0600 
    178 H178       -2.5125  -11.4575  -40.2514 H         1 UNK         0.0600 
    179 H179       -2.5019  -12.2779  -43.7418 H         1 UNK         0.3000 
    180 H180       -2.5352  -15.0770  -45.7889 H         1 UNK         0.0600 
    181 H181       -4.9584  -13.2170  -45.5756 H         1 UNK         0.0600 
    182 H182       -5.0165  -14.9733  -45.4870 H         1 UNK         0.0600 
    183 H183       -4.5127  -14.1936  -46.9764 H         1 UNK         0.0600 
    184 H184       -2.7997  -12.4755  -46.6711 H         1 UNK         0.3000 
    185 H185       -1.0368  -11.4318  -47.5591 H         1 UNK         0.0600 
    186 H186       -1.0694  -10.0345  -45.4850 H         1 UNK         0.0600 
    187 H187        0.5500  -10.5820  -45.0681 H         1 UNK         0.0600 
    188 H188        0.2901   -9.5961  -46.5075 H         1 UNK         0.0600 
    189 H189        1.7571  -11.7813  -46.8363 H         1 UNK         0.3000 
    190 H190       -1.7179  -21.2921  -46.6108 H         1 UNK         0.3000 
    191 H191       -3.9021  -22.0862  -48.2616 H         1 UNK         0.0600 
    192 H192       -3.7959  -19.8312  -47.2903 H         1 UNK         0.0600 
    193 H193       -5.2350  -20.6284  -46.6842 H         1 UNK         0.0600 
    194 H194       -3.8203  -20.4828  -45.6549 H         1 UNK         0.0600 
    195 H195       -2.9108  -23.0958  -44.9761 H         1 UNK         0.3000 
    196 H196       -5.2869  -24.6993  -44.5109 H         1 UNK         0.0600 
    197 H197       -4.0272  -25.4435  -42.4928 H         1 UNK         0.0600 
    198 H198       -4.0459  -23.6919  -42.6332 H         1 UNK         0.0600 
    199 H199       -2.5936  -24.5926  -43.0560 H         1 UNK         0.0600 
    200 H200       -1.8482  -25.4443  -45.3029 H         1 UNK         0.3000 
    201 H201       -2.2890  -28.2757  -45.2722 H         1 UNK         0.0600 
    202 H202       -0.1534  -27.2384  -44.5852 H         1 UNK         0.0600 
    203 H203        0.1161  -26.6346  -46.2180 H         1 UNK         0.0600 
    204 H204        0.1134  -28.3663  -45.9059 H         1 UNK         0.0600 
    205 H205       -1.6908  -25.9660  -47.9775 H         1 UNK         0.3000 
    206 H206       -2.0333  -28.1961  -49.9483 H         1 UNK         0.0600 
    207 H207        0.1967  -27.0943  -49.8963 H         1 UNK         0.0600 
    208 H208       -0.6339  -26.7528  -51.4051 H         1 UNK         0.0600 
    209 H209       -0.5513  -25.5199  -50.1538 H         1 UNK         0.0600 
    210 H210       -3.4532  -25.2789  -48.8154 H         1 UNK         0.3000 
    211 H211       -5.1240  -23.9508  -49.3940 H         1 UNK         0.0600 
    212 H212       -5.9485  -25.9016  -51.5964 H         1 UNK         0.0600 
    213 H213       -6.9233  -24.6219  -50.8941 H         1 UNK         0.0600 
    214 H214       -6.4690  -26.0052  -49.9138 H         1 UNK         0.0600 
    215 H215       -2.4158  -23.8025  -50.5722 H         1 UNK         0.3000 
    216 H216       -2.5365  -22.9890  -53.2900 H         1 UNK         0.0600 
    217 H217       -0.2036  -22.1903  -52.8871 H         1 UNK         0.0600 
    218 H218       -0.4593  -23.8075  -52.2531 H         1 UNK         0.0600 
    219 H219       -0.4115  -22.4315  -51.1562 H         1 UNK         0.0600 
    220 H220       -1.9423  -20.8908  -50.4055 H         1 UNK         0.3000 
    221 H221       -2.5032  -18.4595  -51.8139 H         1 UNK         0.0600 
    222 H222       -2.2542  -19.1054  -48.8350 H         1 UNK         0.0600 
    223 H223       -1.0278  -18.4160  -49.8921 H         1 UNK         0.0600 
    224 H224       -2.4472  -17.4754  -49.4713 H         1 UNK         0.0600 
    225 H225       -4.5721  -20.7611  -50.1799 H         1 UNK         0.3000 
    226 H226       -6.8704  -19.0817  -49.7819 H         1 UNK         0.0600 
    227 H227       -6.5380  -21.2507  -48.5733 H         1 UNK         0.0600 
    228 H228       -8.0624  -21.2215  -49.4408 H         1 UNK         0.0600 
    229 H229       -6.7088  -22.1277  -50.0925 H         1 UNK         0.0600 
    230 H230       -5.7553  -21.1560  -52.4738 H         1 UNK         0.3000 
    231 H231       -8.0183  -20.4906  -54.2108 H         1 UNK         0.0600 
    232 H232       -6.9531  -22.7572  -54.2165 H         1 UNK         0.0600 
    233 H233       -5.4262  -22.0410  -54.7291 H         1 UNK         0.0600 
    234 H234       -6.8307  -21.9886  -55.7896 H         1 UNK         0.0600 
    235 H235       -5.6892  -18.5400  -53.1757 H         1 UNK         0.3000 
    236 H236       -4.5586  -16.7616  -53.8218 H         1 UNK         0.0600 
    237 H237       -5.5324  -15.3066  -55.5574 H         1 UNK         0.0600 
    238 H238       -6.4686  -16.6413  -56.2159 H         1 UNK         0.0600 
    239 H239       -6.8216  -16.0204  -54.6037 H         1 UNK         0.0600 
    240 H240       -3.4877  -19.2937  -54.5924 H         1 UNK         0.3000 
    241 H241       -1.8220  -20.2192  -55.6185 H         1 UNK         0.0600 
    242 H242       -4.5082  -19.7226  -57.2363 H         1 UNK         0.3800 
    243 H243       -4.0284  -20.3217  -58.8047 H         1 UNK         0.3800 
    244 H244       -0.9879  -17.5329  -56.7974 H         1 UNK         0.0800 
    245 H245        0.0122  -18.9500  -56.6520 H         1 UNK         0.0800 
    246 H246        0.8729  -19.9518  -54.2707 H         1 UNK         0.0800 
    247 H247        1.8934  -18.7229  -54.9926 H         1 UNK         0.0800 
@<TRIPOS>BOND
     1    1    2 1    
     2    1  127 1    
     3    1  128 1    
     4    1  129 1    
     5    2    3 2    
     6    2    4 am   BACKBONE|DICT|INTERRES
     7    4    5 1    
     8    4  130 1    
     9    5    6 1    
    10    5   65 1    
    11    5  131 1    
    12    6    7 1    
    13    6  132 1    
    14    6  133 1    
    15    7    8 1    
    16    8    9 1    
    17    8  134 1    
    18    8  135 1    
    19    9   10 ar   
    20    9   14 ar   
    21   10   11 ar   
    22   10  136 1    
    23   11   12 ar   
    24   11  126 1    
    25   12   13 ar   
    26   12  137 1    
    27   13   14 ar   
    28   13   15 1    
    29   14  138 1    
    30   15   16 1    
    31   15  139 1    
    32   15  140 1    
    33   16   17 1    
    34   17   18 1    
    35   17  141 1    
    36   17  142 1    
    37   18   19 1    
    38   18   67 1    
    39   18  143 1    
    40   19   20 am   BACKBONE|DICT|INTERRES
    41   19  144 1    
    42   20   21 2    
    43   20   22 1    
    44   22   23 1    
    45   22   24 1    
    46   22  145 1    
    47   23  146 1    
    48   23  147 1    
    49   23  148 1    
    50   24   25 am   BACKBONE|DICT|INTERRES
    51   24  149 1    
    52   25   26 2    
    53   25   27 1    
    54   27   28 1    
    55   27   29 1    
    56   27  150 1    
    57   28  151 1    
    58   28  152 1    
    59   28  153 1    
    60   29   30 am   BACKBONE|DICT|INTERRES
    61   29  154 1    
    62   30   31 2    
    63   30   32 1    
    64   32   33 1    
    65   32   34 1    
    66   32  155 1    
    67   33  156 1    
    68   33  157 1    
    69   33  158 1    
    70   34   35 am   BACKBONE|DICT|INTERRES
    71   34  159 1    
    72   35   36 2    
    73   35   37 1    
    74   37   38 1    
    75   37   39 1    
    76   37  160 1    
    77   38  161 1    
    78   38  162 1    
    79   38  163 1    
    80   39   40 am   BACKBONE|DICT|INTERRES
    81   39  164 1    
    82   40   41 2    
    83   40   42 1    
    84   42   43 1    
    85   42   44 1    
    86   42  165 1    
    87   43  166 1    
    88   43  167 1    
    89   43  168 1    
    90   44   45 am   BACKBONE|DICT|INTERRES
    91   44  169 1    
    92   45   46 2    
    93   45   47 1    
    94   47   48 1    
    95   47   49 1    
    96   47  170 1    
    97   48  171 1    
    98   48  172 1    
    99   48  173 1    
   100   49   50 am   BACKBONE|DICT|INTERRES
   101   49  174 1    
   102   50   51 2    
   103   50   52 1    
   104   52   53 1    
   105   52   54 1    
   106   52  175 1    
   107   53  176 1    
   108   53  177 1    
   109   53  178 1    
   110   54   55 am   BACKBONE|DICT|INTERRES
   111   54  179 1    
   112   55   56 2    
   113   55   57 1    
   114   57   58 1    
   115   57   59 1    
   116   57  180 1    
   117   58  181 1    
   118   58  182 1    
   119   58  183 1    
   120   59   60 am   BACKBONE|DICT|INTERRES
   121   59  184 1    
   122   60   61 2    
   123   60   62 1    
   124   62   63 1    
   125   62   64 1    
   126   62  185 1    
   127   63  186 1    
   128   63  187 1    
   129   63  188 1    
   130   64   65 am   BACKBONE|DICT|INTERRES
   131   64  189 1    
   132   65   66 2    
   133   67   68 2    
   134   67   69 am   BACKBONE|DICT|INTERRES
   135   69   70 1    
   136   69  190 1    
   137   70   71 1    
   138   70   72 1    
   139   70  191 1    
   140   71  192 1    
   141   71  193 1    
   142   71  194 1    
   143   72   73 2    
   144   72   74 am   BACKBONE|DICT|INTERRES
   145   74   75 1    
   146   74  195 1    
   147   75   76 1    
   148   75   77 1    
   149   75  196 1    
   150   76  197 1    
   151   76  198 1    
   152   76  199 1    
   153   77   78 2    
   154   77   79 am   BACKBONE|DICT|INTERRES
   155   79   80 1    
   156   79  200 1    
   157   80   81 1    
   158   80   82 1    
   159   80  201 1    
   160   81  202 1    
   161   81  203 1    
   162   81  204 1    
   163   82   83 2    
   164   82   84 am   BACKBONE|DICT|INTERRES
   165   84   85 1    
   166   84  205 1    
   167   85   86 1    
   168   85   87 1    
   169   85  206 1    
   170   86  207 1    
   171   86  208 1    
   172   86  209 1    
   173   87   88 2    
   174   87   89 am   BACKBONE|DICT|INTERRES
   175   89   90 1    
   176   89  210 1    
   177   90   91 1    
   178   90   92 1    
   179   90  211 1    
   180   91  212 1    
   181   91  213 1    
   182   91  214 1    
   183   92   93 2    
   184   92   94 am   BACKBONE|DICT|INTERRES
   185   94   95 1    
   186   94  215 1    
   187   95   96 1    
   188   95   97 1    
   189   95  216 1    
   190   96  217 1    
   191   96  218 1    
   192   96  219 1    
   193   97   98 2    
   194   97   99 am   BACKBONE|DICT|INTERRES
   195   99  100 1    
   196   99  220 1    
   197  100  101 1    
   198  100  102 1    
   199  100  221 1    
   200  101  222 1    
   201  101  223 1    
   202  101  224 1    
   203  102  103 2    
   204  102  104 am   BACKBONE|DICT|INTERRES
   205  104  105 1    
   206  104  225 1    
   207  105  106 1    
   208  105  107 1    
   209  105  226 1    
   210  106  227 1    
   211  106  228 1    
   212  106  229 1    
   213  107  108 2    
   214  107  109 am   BACKBONE|DICT|INTERRES
   215  109  110 1    
   216  109  230 1    
   217  110  111 1    
   218  110  112 1    
   219  110  231 1    
   220  111  232 1    
   221  111  233 1    
   222  111  234 1    
   223  112  113 2    
   224  112  114 am   BACKBONE|DICT|INTERRES
   225  114  115 1    
   226  114  235 1    
   227  115  116 1    
   228  115  117 1    
   229  115  236 1    
   230  116  237 1    
   231  116  238 1    
   232  116  239 1    
   233  117  118 2    
   234  117  119 am   BACKBONE|DICT|INTERRES
   235  119  120 1    
   236  119  240 1    
   237  120  121 1    
   238  120  124 1    
   239  120  241 1    
   240  121  122 am   BACKBONE|DICT|INTERRES
   241  121  123 2    
   242  122  242 1    
   243  122  243 1    
   244  124  125 1    
   245  124  244 1    
   246  124  245 1    
   247  125  126 1    
   248  126  246 1    
   249  126  247 1    
@<TRIPOS>SUBSTRUCTURE
     1 UNK         1 GROUP             0       ****    0 ROOT    
