@<TRIPOS>MOLECULE
3R540
247   249    1
SMALL
USER_CHARGES


@<TRIPOS>ATOM
      1 CA          0.9639  -12.3718  -51.7326 C.3       0 UNK        -0.1800 
      2 C           1.0698  -12.3712  -50.2145 C.2       0 UNK         0.5000 
      3 O           0.0583  -12.5293  -49.5311 O.2       0 UNK        -0.5000 
      4 N           2.2874  -12.1878  -49.6868 N.am      1 UNK        -0.5000 
      5 CA          2.6870  -12.1973  -48.2672 C.3       1 UNK         0.1400 
      6 C6          2.3760  -13.5221  -47.5192 C.3       23 UNK        -0.0398 
      7 S7          3.1744  -14.9629  -48.3066 S.3       23 UNK        -0.2404 
      8 C8          1.7332  -15.8520  -48.9697 C.3       23 UNK        -0.0205 
      9 C9          2.1488  -16.8506  -50.0354 C.ar      23 UNK        -0.0193 
     10 C10         2.0547  -16.5129  -51.3884 C.ar      23 UNK        -0.1150 
     11 C11         2.4263  -17.4288  -52.3768 C.ar      23 UNK        -0.0193 
     12 C12         2.8930  -18.6916  -52.0016 C.ar      23 UNK        -0.1150 
     13 C13         2.9781  -19.0450  -50.6519 C.ar      23 UNK        -0.0193 
     14 C14         2.6174  -18.1155  -49.6724 C.ar      23 UNK        -0.1150 
     15 C15         3.4510  -20.4345  -50.2571 C.3       23 UNK        -0.0205 
     16 S16         2.0456  -21.5652  -50.0120 S.3       23 UNK        -0.2404 
     17 C17         1.5004  -21.0933  -48.3353 C.3       23 UNK        -0.0398 
     18 CA          0.5884  -22.1646  -47.6928 C.3       11 UNK         0.1400 
     19 N           0.6858  -22.1806  -46.2315 N.am      11 UNK        -0.5000 
     20 C           0.1692  -23.1421  -45.4527 C.2       10 UNK         0.5000 
     21 O          -0.4067  -24.1391  -45.8888 O.2       10 UNK        -0.5000 
     22 CA          0.2687  -22.9342  -43.9314 C.3       10 UNK         0.1400 
     23 CB          1.6605  -23.3296  -43.4168 C.3       10 UNK        -0.1800 
     24 N          -0.0402  -21.5607  -43.5306 N.am      10 UNK        -0.5000 
     25 C          -1.2324  -20.9722  -43.7066 C.2       9 UNK         0.5000 
     26 O          -2.2121  -21.5456  -44.1818 O.2       9 UNK        -0.5000 
     27 CA         -1.3380  -19.4814  -43.3390 C.3       9 UNK         0.1400 
     28 CB         -1.5130  -19.2994  -41.8241 C.3       9 UNK        -0.1800 
     29 N          -0.1861  -18.7047  -43.7940 N.am      9 UNK        -0.5000 
     30 C           0.1779  -18.5433  -45.0737 C.2       8 UNK         0.5000 
     31 O          -0.4389  -19.0097  -46.0309 O.2       8 UNK        -0.5000 
     32 CA          1.4911  -17.7831  -45.3186 C.3       8 UNK         0.1400 
     33 CB          1.2920  -16.2659  -45.1718 C.3       8 UNK        -0.1800 
     34 N           2.5532  -18.2362  -44.4205 N.am      8 UNK        -0.5000 
     35 C           3.1024  -19.4590  -44.4538 C.2       7 UNK         0.5000 
     36 O           2.7924  -20.3260  -45.2703 O.2       7 UNK        -0.5000 
     37 CA          4.1439  -19.7785  -43.3664 C.3       7 UNK         0.1400 
     38 CB          5.5280  -19.2498  -43.7708 C.3       7 UNK        -0.1800 
     39 N           3.7762  -19.2300  -42.0604 N.am      7 UNK        -0.5000 
     40 C           2.7305  -19.6462  -41.3319 C.2       6 UNK         0.5000 
     41 O           1.9839  -20.5646  -41.6679 O.2       6 UNK        -0.5000 
     42 CA          2.4381  -18.8628  -40.0383 C.3       6 UNK         0.1400 
     43 CB          3.3057  -19.3807  -38.8817 C.3       6 UNK        -0.1800 
     44 N           2.6307  -17.4163  -40.1865 N.am      6 UNK        -0.5000 
     45 C           1.9419  -16.6495  -41.0416 C.2       5 UNK         0.5000 
     46 O           1.0860  -17.0907  -41.8115 O.2       5 UNK        -0.5000 
     47 CA          2.3145  -15.1569  -41.0858 C.3       5 UNK         0.1400 
     48 CB          3.5334  -14.9382  -41.9962 C.3       5 UNK        -0.1800 
     49 N           1.2107  -14.3408  -41.5870 N.am      5 UNK        -0.5000 
     50 C           0.0623  -14.1101  -40.9406 C.2       4 UNK         0.5000 
     51 O          -0.1574  -14.4868  -39.7874 O.2       4 UNK        -0.5000 
     52 CA         -0.9936  -13.2895  -41.7115 C.3       4 UNK         0.1400 
     53 CB         -2.2866  -13.0727  -40.9045 C.3       4 UNK        -0.1800 
     54 N          -0.4653  -11.9846  -42.1148 N.am      4 UNK        -0.5000 
     55 C           0.3110  -11.7604  -43.1810 C.2       3 UNK         0.5000 
     56 O           0.6686  -12.6446  -43.9648 O.2       3 UNK        -0.5000 
     57 CA          0.8221  -10.3214  -43.3608 C.3       3 UNK         0.1400 
     58 CB          2.2136  -10.1685  -42.7276 C.3       3 UNK        -0.1800 
     59 N           0.9073   -9.9717  -44.7745 N.am      3 UNK        -0.5000 
     60 C          -0.1331   -9.6827  -45.5622 C.2       2 UNK         0.5000 
     61 O          -1.2902   -9.5815  -45.1519 O.2       2 UNK        -0.5000 
     62 CA          0.1594   -9.4844  -47.0624 C.3       2 UNK         0.1400 
     63 CB          0.8166   -8.1176  -47.3338 C.3       2 UNK        -0.1800 
     64 N           0.9192  -10.5813  -47.6764 N.am      2 UNK        -0.5000 
     65 C           2.1805  -10.9800  -47.4621 C.2       1 UNK         0.5000 
     66 O           2.9462  -10.4292  -46.6693 O.2       1 UNK        -0.5000 
     67 C          -0.8733  -22.0291  -48.1659 C.2       11 UNK         0.5000 
     68 O          -1.2876  -22.7705  -49.0543 O.2       11 UNK        -0.5000 
     69 N          -1.6445  -21.1316  -47.5331 N.am      12 UNK        -0.5000 
     70 CA         -3.0741  -20.9427  -47.7877 C.3       12 UNK         0.1400 
     71 CB         -3.5933  -19.7309  -47.0016 C.3       12 UNK        -0.1800 
     72 C          -3.9085  -22.1977  -47.4735 C.2       12 UNK         0.5000 
     73 O          -4.7993  -22.5380  -48.2527 O.2       12 UNK        -0.5000 
     74 N          -3.5844  -22.8823  -46.3677 N.am      13 UNK        -0.5000 
     75 CA         -4.1832  -24.1574  -45.9737 C.3       13 UNK         0.1400 
     76 CB         -3.7375  -24.5273  -44.5513 C.3       13 UNK        -0.1800 
     77 C          -3.8632  -25.2884  -46.9678 C.2       13 UNK         0.5000 
     78 O          -4.7769  -26.0045  -47.3784 O.2       13 UNK        -0.5000 
     79 N          -2.5914  -25.3956  -47.3821 N.am      14 UNK        -0.5000 
     80 CA         -2.1218  -26.3365  -48.4064 C.3       14 UNK         0.1400 
     81 CB         -0.5892  -26.2802  -48.4902 C.3       14 UNK        -0.1800 
     82 C          -2.7546  -26.0854  -49.7904 C.2       14 UNK         0.5000 
     83 O          -3.0366  -27.0369  -50.5184 O.2       14 UNK        -0.5000 
     84 N          -3.0193  -24.8096  -50.0948 N.am      15 UNK        -0.5000 
     85 CA         -3.7527  -24.3239  -51.2623 C.3       15 UNK         0.1400 
     86 CB         -3.3795  -22.8490  -51.4816 C.3       15 UNK        -0.1800 
     87 C          -5.2850  -24.5011  -51.1640 C.2       15 UNK         0.5000 
     88 O          -5.9936  -24.0000  -52.0377 O.2       15 UNK        -0.5000 
     89 N          -5.7773  -25.1855  -50.1195 N.am      16 UNK        -0.5000 
     90 CA         -7.1819  -25.4988  -49.8397 C.3       16 UNK         0.1400 
     91 CB         -7.7684  -26.4231  -50.9278 C.3       16 UNK        -0.1800 
     92 C          -8.0196  -24.2295  -49.5964 C.2       16 UNK         0.5000 
     93 O          -9.0253  -24.0062  -50.2707 O.2       16 UNK        -0.5000 
     94 N          -7.5521  -23.4082  -48.6457 N.am      17 UNK        -0.5000 
     95 CA         -8.0689  -22.0845  -48.2796 C.3       17 UNK         0.1400 
     96 CB         -9.5149  -22.1648  -47.7459 C.3       17 UNK        -0.1800 
     97 C          -7.8862  -21.0691  -49.4253 C.2       17 UNK         0.5000 
     98 O          -8.7946  -20.2926  -49.7254 O.2       17 UNK        -0.5000 
     99 N          -6.6975  -21.1180  -50.0451 N.am      18 UNK        -0.5000 
    100 CA        -6.2443  -20.2995  -51.1747 C.3       18 UNK         0.1400 
    101 CB        -6.0835  -18.8255  -50.7501 C.3       18 UNK        -0.1800 
    102 C         -7.0848  -20.4702  -52.4607 C.2       18 UNK         0.5000 
    103 O         -7.1422  -19.5511  -53.2786 O.2       18 UNK        -0.5000 
    104 N         -7.7022  -21.6464  -52.6387 N.am      19 UNK        -0.5000 
    105 CA        -8.4270  -22.0250  -53.8529 C.3       19 UNK         0.1400 
    106 CB        -9.3288  -23.2319  -53.5565 C.3       19 UNK        -0.1800 
    107 C         -7.4606  -22.3346  -55.0099 C.2       19 UNK         0.5000 
    108 O         -7.6871  -21.8902  -56.1356 O.2       19 UNK        -0.5000 
    109 N         -6.3755  -23.0495  -54.6923 N.am      20 UNK        -0.5000 
    110 CA        -5.2424  -23.3269  -55.5701 C.3       20 UNK         0.1400 
    111 CB        -4.9233  -24.8314  -55.5011 C.3       20 UNK        -0.1800 
    112 C         -4.0645  -22.4455  -55.1202 C.2       20 UNK         0.5000 
    113 O         -3.0230  -22.9633  -54.7100 O.2       20 UNK        -0.5000 
    114 N         -4.2959  -21.1232  -55.1302 N.am      21 UNK        -0.5000 
    115 CA        -3.4307  -20.0707  -54.5896 C.3       21 UNK         0.1400 
    116 CB        -3.9887  -18.6990  -54.9988 C.3       21 UNK        -0.1800 
    117 C         -1.9533  -20.1966  -55.0056 C.2       21 UNK         0.5000 
    118 O         -1.6610  -20.3304  -56.1960 O.2       21 UNK        -0.5000 
    119 N         -1.0701  -20.1639  -54.0013 N.am      22 UNK        -0.5000 
    120 CA         0.3869  -20.3612  -54.0985 C.3       22 UNK         0.1400 
    121 C          0.8329  -21.8226  -54.4168 C.2       22 UNK         0.5000 
    122 N         -0.0581  -22.8036  -54.5098 N.am      22 UNK        -0.7600 
    123 O          2.0252  -22.0836  -54.5523 O.2       22 UNK        -0.5000 
    124 C124        1.1031  -19.3266  -55.0157 C.3       23 UNK        -0.0398 
    125 S125        0.7521  -17.5846  -54.5830 S.3       23 UNK        -0.2404 
    126 C126        2.3281  -17.0457  -53.8454 C.3       23 UNK        -0.0205 
    127 H127        0.3563  -11.5307  -52.0662 H         1 UNK         0.0600 
    128 H128        0.4909  -13.2922  -52.0749 H         1 UNK         0.0600 
    129 H129        1.9423  -12.2965  -52.2078 H         1 UNK         0.0600 
    130 H130        3.0568  -12.0379  -50.3244 H         1 UNK         0.3000 
    131 H131        3.7736  -12.0964  -48.2887 H         1 UNK         0.0600 
    132 H132        2.7451  -13.4697  -46.4931 H         1 UNK         0.0800 
    133 H133        1.3003  -13.6854  -47.4378 H         1 UNK         0.0800 
    134 H134        1.2152  -16.3669  -48.1608 H         1 UNK         0.0800 
    135 H135        1.0159  -15.1457  -49.3873 H         1 UNK         0.0800 
    136 H136        1.6924  -15.5351  -51.6728 H         1 UNK         0.1150 
    137 H137        3.1791  -19.4059  -52.7606 H         1 UNK         0.1150 
    138 H138        2.6946  -18.3776  -48.6270 H         1 UNK         0.1150 
    139 H139        4.0946  -20.8431  -51.0377 H         1 UNK         0.0800 
    140 H140        4.0633  -20.3878  -49.3553 H         1 UNK         0.0800 
    141 H141        1.0168  -20.1152  -48.3585 H         1 UNK         0.0800 
    142 H142        2.4014  -20.9711  -47.7348 H         1 UNK         0.0800 
    143 H143        0.9408  -23.1449  -48.0218 H         1 UNK         0.0600 
    144 H144        1.1831  -21.4094  -45.7977 H         1 UNK         0.3000 
    145 H145       -0.4651  -23.5909  -43.4594 H         1 UNK         0.0600 
    146 H146        1.7081  -23.2740  -42.3292 H         1 UNK         0.0600 
    147 H147        1.9058  -24.3537  -43.7008 H         1 UNK         0.0600 
    148 H148        2.4388  -22.6810  -43.8192 H         1 UNK         0.0600 
    149 H149        0.7049  -21.0406  -43.0767 H         1 UNK         0.3000 
    150 H150       -2.2240  -19.0792  -43.8342 H         1 UNK         0.0600 
    151 H151       -2.3854  -19.8454  -41.4630 H         1 UNK         0.0600 
    152 H152       -1.6556  -18.2494  -41.5676 H         1 UNK         0.0600 
    153 H153       -0.6456  -19.6619  -41.2720 H         1 UNK         0.0600 
    154 H154        0.3660  -18.2472  -43.0716 H         1 UNK         0.3000 
    155 H155        1.8088  -17.9866  -46.3429 H         1 UNK         0.0600 
    156 H156        0.5368  -15.9016  -45.8689 H         1 UNK         0.0600 
    157 H157        0.9633  -15.9883  -44.1710 H         1 UNK         0.0600 
    158 H158        2.2153  -15.7265  -45.3807 H         1 UNK         0.0600 
    159 H159        2.8233  -17.6055  -43.6819 H         1 UNK         0.3000 
    160 H160        4.2069  -20.8649  -43.2741 H         1 UNK         0.0600 
    161 H161        5.5373  -18.1623  -43.8546 H         1 UNK         0.0600 
    162 H162        5.8335  -19.6562  -44.7360 H         1 UNK         0.0600 
    163 H163        6.2875  -19.5373  -43.0435 H         1 UNK         0.0600 
    164 H164        4.3370  -18.4686  -41.7080 H         1 UNK         0.3000 
    165 H165        1.3907  -19.0336  -39.7808 H         1 UNK         0.0600 
    166 H166        3.0413  -18.8949  -37.9422 H         1 UNK         0.0600 
    167 H167        3.1676  -20.4537  -38.7409 H         1 UNK         0.0600 
    168 H168        4.3671  -19.2073  -39.0631 H         1 UNK         0.0600 
    169 H169        3.3260  -16.9898  -39.5910 H         1 UNK         0.3000 
    170 H170        2.5601  -14.8255  -40.0749 H         1 UNK         0.0600 
    171 H171        3.3313  -15.2454  -43.0230 H         1 UNK         0.0600 
    172 H172        3.8259  -13.8880  -42.0150 H         1 UNK         0.0600 
    173 H173        4.3955  -15.5069  -41.6459 H         1 UNK         0.0600 
    174 H174        1.2917  -13.9891  -42.5343 H         1 UNK         0.3000 
    175 H175       -1.2550  -13.8610  -42.6049 H         1 UNK         0.0600 
    176 H176       -3.0313  -12.5348  -41.4914 H         1 UNK         0.0600 
    177 H177       -2.1032  -12.5035  -39.9923 H         1 UNK         0.0600 
    178 H178       -2.7313  -14.0257  -40.6147 H         1 UNK         0.0600 
    179 H179       -0.6752  -11.2143  -41.4962 H         1 UNK         0.3000 
    180 H180        0.1344   -9.6306  -42.8683 H         1 UNK         0.0600 
    181 H181        2.9431  -10.8312  -43.1956 H         1 UNK         0.0600 
    182 H182        2.1885  -10.4067  -41.6635 H         1 UNK         0.0600 
    183 H183        2.5800   -9.1462  -42.8234 H         1 UNK         0.0600 
    184 H184        1.8106  -10.0901  -45.2253 H         1 UNK         0.3000 
    185 H185       -0.8067   -9.4835  -47.5697 H         1 UNK         0.0600 
    186 H186        0.1906   -7.3062  -46.9609 H         1 UNK         0.0600 
    187 H187        1.7889   -8.0251  -46.8494 H         1 UNK         0.0600 
    188 H188        0.9577   -7.9544  -48.4023 H         1 UNK         0.0600 
    189 H189        0.3885  -11.1552  -48.3282 H         1 UNK         0.3000 
    190 H190       -1.2223  -20.5211  -46.8375 H         1 UNK         0.3000 
    191 H191       -3.1920  -20.7232  -48.8500 H         1 UNK         0.0600 
    192 H192       -3.0532  -18.8241  -47.2745 H         1 UNK         0.0600 
    193 H193       -4.6498  -19.5554  -47.2086 H         1 UNK         0.0600 
    194 H194       -3.4874  -19.8714  -45.9260 H         1 UNK         0.0600 
    195 H195       -2.8811  -22.4971  -45.7436 H         1 UNK         0.3000 
    196 H196       -5.2670  -24.0246  -45.9612 H         1 UNK         0.0600 
    197 H197       -4.1930  -25.4650  -44.2308 H         1 UNK         0.0600 
    198 H198       -4.0331  -23.7603  -43.8352 H         1 UNK         0.0600 
    199 H199       -2.6564  -24.6469  -44.4832 H         1 UNK         0.0600 
    200 H200       -1.8887  -24.7889  -46.9679 H         1 UNK         0.3000 
    201 H201       -2.4089  -27.3413  -48.0900 H         1 UNK         0.0600 
    202 H202       -0.1327  -26.5223  -47.5302 H         1 UNK         0.0600 
    203 H203       -0.2383  -25.2916  -48.7869 H         1 UNK         0.0600 
    204 H204       -0.2110  -26.9961  -49.2209 H         1 UNK         0.0600 
    205 H205       -2.6661  -24.0918  -49.4687 H         1 UNK         0.3000 
    206 H206       -3.4271  -24.8878  -52.1385 H         1 UNK         0.0600 
    207 H207       -2.3224  -22.7443  -51.7271 H         1 UNK         0.0600 
    208 H208       -3.9456  -22.4095  -52.2993 H         1 UNK         0.0600 
    209 H209       -3.5776  -22.2494  -50.5962 H         1 UNK         0.0600 
    210 H210       -5.1224  -25.5157  -49.4209 H         1 UNK         0.3000 
    211 H211       -7.1913  -26.0560  -48.9018 H         1 UNK         0.0600 
    212 H212       -7.8152  -25.9342  -51.9008 H         1 UNK         0.0600 
    213 H213       -8.7819  -26.7323  -50.6702 H         1 UNK         0.0600 
    214 H214       -7.1709  -27.3280  -51.0375 H         1 UNK         0.0600 
    215 H215       -6.6587  -23.6401  -48.2282 H         1 UNK         0.3000 
    216 H216       -7.4410  -21.7308  -47.4606 H         1 UNK         0.0600 
    217 H217       -9.8320  -21.2033  -47.3407 H         1 UNK         0.0600 
    218 H218       -9.5990  -22.8981  -46.9441 H         1 UNK         0.0600 
    219 H219      -10.2255  -22.4369  -48.5265 H         1 UNK         0.0600 
    220 H220       -6.0234  -21.7843  -49.6817 H         1 UNK         0.3000 
    221 H221       -5.2502  -20.6634  -51.4281 H         1 UNK         0.0600 
    222 H222       -7.0456  -18.3582  -50.5385 H         1 UNK         0.0600 
    223 H223       -5.4636  -18.7380  -49.8577 H         1 UNK         0.0600 
    224 H224       -5.6021  -18.2411  -51.5352 H         1 UNK         0.0600 
    225 H225       -7.5729  -22.3727  -51.9456 H         1 UNK         0.3000 
    226 H226       -9.0635  -21.1907  -54.1552 H         1 UNK         0.0600 
    227 H227      -10.0523  -22.9992  -52.7749 H         1 UNK         0.0600 
    228 H228       -9.8899  -23.5287  -54.4433 H         1 UNK         0.0600 
    229 H229       -8.7501  -24.0956  -53.2276 H         1 UNK         0.0600 
    230 H230       -6.2684  -23.3553  -53.7261 H         1 UNK         0.3000 
    231 H231       -5.4748  -23.0721  -56.6059 H         1 UNK         0.0600 
    232 H232       -4.6762  -25.1456  -54.4862 H         1 UNK         0.0600 
    233 H233       -4.0759  -25.0814  -56.1406 H         1 UNK         0.0600 
    234 H234       -5.7718  -25.4276  -55.8367 H         1 UNK         0.0600 
    235 H235       -5.1877  -20.8121  -55.4875 H         1 UNK         0.3000 
    236 H236       -3.4935  -20.1461  -53.5024 H         1 UNK         0.0600 
    237 H237       -5.0010  -18.5526  -54.6230 H         1 UNK         0.0600 
    238 H238       -3.3750  -17.8916  -54.5969 H         1 UNK         0.0600 
    239 H239       -4.0129  -18.5840  -56.0832 H         1 UNK         0.0600 
    240 H240       -1.4166  -20.0540  -53.0598 H         1 UNK         0.3000 
    241 H241        0.7492  -20.1917  -53.0846 H         1 UNK         0.0600 
    242 H242       -1.0564  -22.6322  -54.4475 H         1 UNK         0.3800 
    243 H243        0.2656  -23.7375  -54.7026 H         1 UNK         0.3800 
    244 H244        2.1821  -19.4831  -54.9942 H         1 UNK         0.0800 
    245 H245        0.8130  -19.4781  -56.0558 H         1 UNK         0.0800 
    246 H246        2.4026  -15.9619  -53.9475 H         1 UNK         0.0800 
    247 H247        3.1713  -17.4543  -54.4041 H         1 UNK         0.0800 
@<TRIPOS>BOND
     1    1    2 1    
     2    1  127 1    
     3    1  128 1    
     4    1  129 1    
     5    2    3 2    
     6    2    4 am   BACKBONE|DICT|INTERRES
     7    4    5 1    
     8    4  130 1    
     9    5    6 1    
    10    5   65 1    
    11    5  131 1    
    12    6    7 1    
    13    6  132 1    
    14    6  133 1    
    15    7    8 1    
    16    8    9 1    
    17    8  134 1    
    18    8  135 1    
    19    9   10 ar   
    20    9   14 ar   
    21   10   11 ar   
    22   10  136 1    
    23   11   12 ar   
    24   11  126 1    
    25   12   13 ar   
    26   12  137 1    
    27   13   14 ar   
    28   13   15 1    
    29   14  138 1    
    30   15   16 1    
    31   15  139 1    
    32   15  140 1    
    33   16   17 1    
    34   17   18 1    
    35   17  141 1    
    36   17  142 1    
    37   18   19 1    
    38   18   67 1    
    39   18  143 1    
    40   19   20 am   BACKBONE|DICT|INTERRES
    41   19  144 1    
    42   20   21 2    
    43   20   22 1    
    44   22   23 1    
    45   22   24 1    
    46   22  145 1    
    47   23  146 1    
    48   23  147 1    
    49   23  148 1    
    50   24   25 am   BACKBONE|DICT|INTERRES
    51   24  149 1    
    52   25   26 2    
    53   25   27 1    
    54   27   28 1    
    55   27   29 1    
    56   27  150 1    
    57   28  151 1    
    58   28  152 1    
    59   28  153 1    
    60   29   30 am   BACKBONE|DICT|INTERRES
    61   29  154 1    
    62   30   31 2    
    63   30   32 1    
    64   32   33 1    
    65   32   34 1    
    66   32  155 1    
    67   33  156 1    
    68   33  157 1    
    69   33  158 1    
    70   34   35 am   BACKBONE|DICT|INTERRES
    71   34  159 1    
    72   35   36 2    
    73   35   37 1    
    74   37   38 1    
    75   37   39 1    
    76   37  160 1    
    77   38  161 1    
    78   38  162 1    
    79   38  163 1    
    80   39   40 am   BACKBONE|DICT|INTERRES
    81   39  164 1    
    82   40   41 2    
    83   40   42 1    
    84   42   43 1    
    85   42   44 1    
    86   42  165 1    
    87   43  166 1    
    88   43  167 1    
    89   43  168 1    
    90   44   45 am   BACKBONE|DICT|INTERRES
    91   44  169 1    
    92   45   46 2    
    93   45   47 1    
    94   47   48 1    
    95   47   49 1    
    96   47  170 1    
    97   48  171 1    
    98   48  172 1    
    99   48  173 1    
   100   49   50 am   BACKBONE|DICT|INTERRES
   101   49  174 1    
   102   50   51 2    
   103   50   52 1    
   104   52   53 1    
   105   52   54 1    
   106   52  175 1    
   107   53  176 1    
   108   53  177 1    
   109   53  178 1    
   110   54   55 am   BACKBONE|DICT|INTERRES
   111   54  179 1    
   112   55   56 2    
   113   55   57 1    
   114   57   58 1    
   115   57   59 1    
   116   57  180 1    
   117   58  181 1    
   118   58  182 1    
   119   58  183 1    
   120   59   60 am   BACKBONE|DICT|INTERRES
   121   59  184 1    
   122   60   61 2    
   123   60   62 1    
   124   62   63 1    
   125   62   64 1    
   126   62  185 1    
   127   63  186 1    
   128   63  187 1    
   129   63  188 1    
   130   64   65 am   BACKBONE|DICT|INTERRES
   131   64  189 1    
   132   65   66 2    
   133   67   68 2    
   134   67   69 am   BACKBONE|DICT|INTERRES
   135   69   70 1    
   136   69  190 1    
   137   70   71 1    
   138   70   72 1    
   139   70  191 1    
   140   71  192 1    
   141   71  193 1    
   142   71  194 1    
   143   72   73 2    
   144   72   74 am   BACKBONE|DICT|INTERRES
   145   74   75 1    
   146   74  195 1    
   147   75   76 1    
   148   75   77 1    
   149   75  196 1    
   150   76  197 1    
   151   76  198 1    
   152   76  199 1    
   153   77   78 2    
   154   77   79 am   BACKBONE|DICT|INTERRES
   155   79   80 1    
   156   79  200 1    
   157   80   81 1    
   158   80   82 1    
   159   80  201 1    
   160   81  202 1    
   161   81  203 1    
   162   81  204 1    
   163   82   83 2    
   164   82   84 am   BACKBONE|DICT|INTERRES
   165   84   85 1    
   166   84  205 1    
   167   85   86 1    
   168   85   87 1    
   169   85  206 1    
   170   86  207 1    
   171   86  208 1    
   172   86  209 1    
   173   87   88 2    
   174   87   89 am   BACKBONE|DICT|INTERRES
   175   89   90 1    
   176   89  210 1    
   177   90   91 1    
   178   90   92 1    
   179   90  211 1    
   180   91  212 1    
   181   91  213 1    
   182   91  214 1    
   183   92   93 2    
   184   92   94 am   BACKBONE|DICT|INTERRES
   185   94   95 1    
   186   94  215 1    
   187   95   96 1    
   188   95   97 1    
   189   95  216 1    
   190   96  217 1    
   191   96  218 1    
   192   96  219 1    
   193   97   98 2    
   194   97   99 am   BACKBONE|DICT|INTERRES
   195   99  100 1    
   196   99  220 1    
   197  100  101 1    
   198  100  102 1    
   199  100  221 1    
   200  101  222 1    
   201  101  223 1    
   202  101  224 1    
   203  102  103 2    
   204  102  104 am   BACKBONE|DICT|INTERRES
   205  104  105 1    
   206  104  225 1    
   207  105  106 1    
   208  105  107 1    
   209  105  226 1    
   210  106  227 1    
   211  106  228 1    
   212  106  229 1    
   213  107  108 2    
   214  107  109 am   BACKBONE|DICT|INTERRES
   215  109  110 1    
   216  109  230 1    
   217  110  111 1    
   218  110  112 1    
   219  110  231 1    
   220  111  232 1    
   221  111  233 1    
   222  111  234 1    
   223  112  113 2    
   224  112  114 am   BACKBONE|DICT|INTERRES
   225  114  115 1    
   226  114  235 1    
   227  115  116 1    
   228  115  117 1    
   229  115  236 1    
   230  116  237 1    
   231  116  238 1    
   232  116  239 1    
   233  117  118 2    
   234  117  119 am   BACKBONE|DICT|INTERRES
   235  119  120 1    
   236  119  240 1    
   237  120  121 1    
   238  120  124 1    
   239  120  241 1    
   240  121  122 am   BACKBONE|DICT|INTERRES
   241  121  123 2    
   242  122  242 1    
   243  122  243 1    
   244  124  125 1    
   245  124  244 1    
   246  124  245 1    
   247  125  126 1    
   248  126  246 1    
   249  126  247 1    
@<TRIPOS>SUBSTRUCTURE
     1 UNK         1 GROUP             0       ****    0 ROOT    
