@<TRIPOS>MOLECULE
3R540
247   249    1
SMALL
USER_CHARGES


@<TRIPOS>ATOM
      1 CA          0.3214  -15.5978  -39.7143 C.3       0 UNK        -0.1800 
      2 C           0.1158  -15.1103  -41.1411 C.2       0 UNK         0.5000 
      3 O           0.5045  -15.8034  -42.0798 O.2       0 UNK        -0.5000 
      4 N          -0.4864  -13.9219  -41.2998 N.am      1 UNK        -0.5000 
      5 CA         -0.8006  -13.2664  -42.5798 C.3       1 UNK         0.1400 
      6 C6         -1.8360  -14.0431  -43.4389 C.3       23 UNK        -0.0398 
      7 S7         -3.4221  -14.3366  -42.5886 S.3       23 UNK        -0.2404 
      8 C8         -4.5105  -14.6767  -44.0100 C.3       23 UNK        -0.0205 
      9 C9         -4.1006  -15.9435  -44.7475 C.ar      23 UNK        -0.0193 
     10 C10        -3.2899  -15.8696  -45.8840 C.ar      23 UNK        -0.1150 
     11 C11        -2.8880  -17.0312  -46.5492 C.ar      23 UNK        -0.0193 
     12 C12        -3.3262  -18.2741  -46.0863 C.ar      23 UNK        -0.1150 
     13 C13        -4.1433  -18.3600  -44.9543 C.ar      23 UNK        -0.0193 
     14 C14        -4.5265  -17.1924  -44.2891 C.ar      23 UNK        -0.1150 
     15 C15        -4.6141  -19.7129  -44.4471 C.3       23 UNK        -0.0205 
     16 S16        -3.5737  -20.3466  -43.0892 S.3       23 UNK        -0.2404 
     17 C17        -1.9164  -20.4633  -43.8502 C.3       23 UNK        -0.0398 
     18 CA         -1.8109  -21.5521  -44.9446 C.3       11 UNK         0.1400 
     19 N          -0.7473  -21.2602  -45.9153 N.am      11 UNK        -0.5000 
     20 C          -0.5063  -21.9709  -47.0268 C.2       10 UNK         0.5000 
     21 O          -1.1445  -22.9742  -47.3444 O.2       10 UNK        -0.5000 
     22 CA          0.6557  -21.5110  -47.9173 C.3       10 UNK         0.1400 
     23 CB          0.2398  -20.3377  -48.8169 C.3       10 UNK        -0.1800 
     24 N           1.8231  -21.1531  -47.1157 N.am      10 UNK        -0.5000 
     25 C           2.6551  -22.0542  -46.5739 C.2       9 UNK         0.5000 
     26 O           2.6125  -23.2597  -46.8198 O.2       9 UNK        -0.5000 
     27 CA          3.6782  -21.5299  -45.5502 C.3       9 UNK         0.1400 
     28 CB          4.9989  -21.1556  -46.2388 C.3       9 UNK        -0.1800 
     29 N           3.1706  -20.3879  -44.7853 N.am      9 UNK        -0.5000 
     30 C           2.1871  -20.4760  -43.8765 C.2       8 UNK         0.5000 
     31 O           1.6236  -21.5312  -43.5857 O.2       8 UNK        -0.5000 
     32 CA          1.7219  -19.1718  -43.2018 C.3       8 UNK         0.1400 
     33 CB          2.4891  -18.9439  -41.8913 C.3       8 UNK        -0.1800 
     34 N           1.8472  -17.9822  -44.0417 N.am      8 UNK        -0.5000 
     35 C           1.2574  -17.7858  -45.2282 C.2       7 UNK         0.5000 
     36 O           0.5417  -18.6279  -45.7769 O.2       7 UNK        -0.5000 
     37 CA          1.5362  -16.4386  -45.9337 C.3       7 UNK         0.1400 
     38 CB          2.5171  -15.5236  -45.1667 C.3       7 UNK        -0.1800 
     39 N           2.0221  -16.6025  -47.3062 N.am      7 UNK        -0.5000 
     40 C           3.0898  -17.3162  -47.6974 C.2       6 UNK         0.5000 
     41 O           3.7344  -18.0503  -46.9472 O.2       6 UNK        -0.5000 
     42 CA          3.5423  -17.1757  -49.1653 C.3       6 UNK         0.1400 
     43 CB          3.0756  -18.3821  -49.9884 C.3       6 UNK        -0.1800 
     44 N           3.0888  -15.9409  -49.8130 N.am      6 UNK        -0.5000 
     45 C           3.5337  -14.7142  -49.4988 C.2       5 UNK         0.5000 
     46 O           4.4150  -14.5045  -48.6639 O.2       5 UNK        -0.5000 
     47 CA          2.8937  -13.5077  -50.2192 C.3       5 UNK         0.1400 
     48 CB          2.2360  -13.8537  -51.5708 C.3       5 UNK        -0.1800 
     49 N           1.9409  -12.7836  -49.3718 N.am      5 UNK        -0.5000 
     50 C           0.8796  -13.2871  -48.7263 C.2       4 UNK         0.5000 
     51 O           0.5959  -14.4858  -48.7014 O.2       4 UNK        -0.5000 
     52 CA         -0.0163  -12.2687  -47.9963 C.3       4 UNK         0.1400 
     53 CB         -1.2550  -12.9258  -47.3614 C.3       4 UNK        -0.1800 
     54 N           0.7165  -11.5322  -46.9653 N.am      4 UNK        -0.5000 
     55 C           1.4626  -10.4396  -47.1807 C.2       3 UNK         0.5000 
     56 O           1.6832   -9.9911  -48.3071 O.2       3 UNK        -0.5000 
     57 CA          2.0493   -9.7065  -45.9561 C.3       3 UNK         0.1400 
     58 CB          1.2295   -8.4429  -45.6514 C.3       3 UNK        -0.1800 
     59 N           2.1040  -10.5293  -44.7474 N.am      3 UNK        -0.5000 
     60 C           3.0370  -11.4579  -44.5036 C.2       2 UNK         0.5000 
     61 O           3.9838  -11.6850  -45.2572 O.2       2 UNK        -0.5000 
     62 CA          2.8921  -12.2791  -43.2041 C.3       2 UNK         0.1400 
     63 CB          3.7543  -11.6667  -42.0897 C.3       2 UNK        -0.1800 
     64 N           1.5240  -12.4587  -42.6965 N.am      2 UNK        -0.5000 
     65 C           0.4778  -12.9396  -43.3857 C.2       1 UNK         0.5000 
     66 O           0.5042  -13.1398  -44.5988 O.2       1 UNK        -0.5000 
     67 C          -1.7234  -22.9700  -44.3384 C.2       11 UNK         0.5000 
     68 O          -2.7598  -23.5993  -44.1255 O.2       11 UNK        -0.5000 
     69 N          -0.4987  -23.4857  -44.1632 N.am      12 UNK        -0.5000 
     70 CA         -0.2040  -24.8633  -43.7560 C.3       12 UNK         0.1400 
     71 CB          1.3181  -25.0209  -43.6210 C.3       12 UNK        -0.1800 
     72 C          -0.7749  -25.9486  -44.6980 C.2       12 UNK         0.5000 
     73 O          -1.0016  -27.0727  -44.2490 O.2       12 UNK        -0.5000 
     74 N          -1.0149  -25.5938  -45.9675 N.am      13 UNK        -0.5000 
     75 CA         -1.6457  -26.4324  -46.9879 C.3       13 UNK         0.1400 
     76 CB         -0.7084  -26.4894  -48.2075 C.3       13 UNK        -0.1800 
     77 C          -3.0357  -25.8947  -47.3893 C.2       13 UNK         0.5000 
     78 O          -3.5768  -26.3286  -48.4080 O.2       13 UNK        -0.5000 
     79 N          -3.5733  -24.9255  -46.6299 N.am      14 UNK        -0.5000 
     80 CA         -4.8078  -24.1742  -46.8926 C.3       14 UNK         0.1400 
     81 CB         -6.0417  -25.0831  -46.7144 C.3       14 UNK        -0.1800 
     82 C          -4.7879  -23.4524  -48.2582 C.2       14 UNK         0.5000 
     83 O          -5.7986  -23.4306  -48.9609 O.2       14 UNK        -0.5000 
     84 N          -3.6121  -22.9264  -48.6347 N.am      15 UNK        -0.5000 
     85 CA         -3.2782  -22.3394  -49.9363 C.3       15 UNK         0.1400 
     86 CB         -4.0224  -21.0054  -50.1496 C.3       15 UNK        -0.1800 
     87 C          -3.4535  -23.3435  -51.0935 C.2       15 UNK         0.5000 
     88 O          -3.9669  -22.9832  -52.1535 O.2       15 UNK        -0.5000 
     89 N          -3.0417  -24.5957  -50.8411 N.am      16 UNK        -0.5000 
     90 CA         -3.2107  -25.7828  -51.6860 C.3       16 UNK         0.1400 
     91 CB         -2.3941  -25.6551  -52.9882 C.3       16 UNK        -0.1800 
     92 C          -4.7012  -26.0880  -51.9315 C.2       16 UNK         0.5000 
     93 O          -5.1134  -26.2804  -53.0748 O.2       16 UNK        -0.5000 
     94 N          -5.4928  -26.0575  -50.8485 N.am      17 UNK        -0.5000 
     95 CA         -6.9619  -26.1034  -50.8372 C.3       17 UNK         0.1400 
     96 CB         -7.4666  -27.5101  -51.2186 C.3       17 UNK        -0.1800 
     97 C          -7.5796  -24.9779  -51.6996 C.2       17 UNK         0.5000 
     98 O          -8.4552  -25.2282  -52.5294 O.2       17 UNK        -0.5000 
     99 N          -7.0554  -23.7610  -51.5014 N.am      18 UNK        -0.5000 
    100 CA        -7.3428  -22.5034  -52.1979 C.3       18 UNK         0.1400 
    101 CB        -8.8182  -22.0960  -52.0091 C.3       18 UNK        -0.1800 
    102 C         -6.9127  -22.4450  -53.6815 C.2       18 UNK         0.5000 
    103 O         -7.1649  -21.4256  -54.3257 O.2       18 UNK        -0.5000 
    104 N         -6.2614  -23.4915  -54.2109 N.am      19 UNK        -0.5000 
    105 CA        -5.8381  -23.5650  -55.6115 C.3       19 UNK         0.1400 
    106 CB        -5.5532  -25.0247  -55.9930 C.3       19 UNK        -0.1800 
    107 C         -4.6179  -22.6831  -55.9350 C.2       19 UNK         0.5000 
    108 O         -4.5152  -22.1990  -57.0631 O.2       19 UNK        -0.5000 
    109 N         -3.7159  -22.4892  -54.9619 N.am      20 UNK        -0.5000 
    110 CA        -2.5152  -21.6632  -55.1189 C.3       20 UNK         0.1400 
    111 CB        -1.3960  -22.1933  -54.2084 C.3       20 UNK        -0.1800 
    112 C         -2.7839  -20.1787  -54.8218 C.2       20 UNK         0.5000 
    113 O         -2.0066  -19.3308  -55.2621 O.2       20 UNK        -0.5000 
    114 N         -3.8554  -19.8924  -54.0639 N.am      21 UNK        -0.5000 
    115 CA        -4.3409  -18.5597  -53.6771 C.3       21 UNK         0.1400 
    116 CB        -4.9890  -17.8650  -54.8918 C.3       21 UNK        -0.1800 
    117 C         -3.2677  -17.6847  -52.9875 C.2       21 UNK         0.5000 
    118 O         -3.2081  -16.4763  -53.2202 O.2       21 UNK        -0.5000 
    119 N         -2.4259  -18.3348  -52.1723 N.am      22 UNK        -0.5000 
    120 CA        -1.2545  -17.7734  -51.4755 C.3       22 UNK         0.1400 
    121 C         -0.0404  -17.4478  -52.3994 C.2       22 UNK         0.5000 
    122 N         -0.0388  -17.8230  -53.6730 N.am      22 UNK        -0.7600 
    123 O          0.9444  -16.8755  -51.9427 O.2       22 UNK        -0.5000 
    124 C124       -1.5905  -16.5934  -50.5201 C.3       23 UNK        -0.0398 
    125 S125       -2.9041  -16.9779  -49.3099 S.3       23 UNK        -0.2404 
    126 C126       -1.9666  -16.9430  -47.7539 C.3       23 UNK        -0.0205 
    127 H127        1.3838  -15.7419  -39.5176 H         1 UNK         0.0600 
    128 H128       -0.1853  -16.5518  -39.5690 H         1 UNK         0.0600 
    129 H129       -0.0683  -14.8900  -38.9825 H         1 UNK         0.0600 
    130 H130       -0.7834  -13.4160  -40.4772 H         1 UNK         0.3000 
    131 H131       -1.2437  -12.3020  -42.3273 H         1 UNK         0.0600 
    132 H132       -2.0528  -13.4840  -44.3504 H         1 UNK         0.0800 
    133 H133       -1.4301  -15.0046  -43.7583 H         1 UNK         0.0800 
    134 H134       -5.5365  -14.7772  -43.6529 H         1 UNK         0.0800 
    135 H135       -4.5079  -13.8209  -44.6870 H         1 UNK         0.0800 
    136 H136       -2.9623  -14.9062  -46.2443 H         1 UNK         0.1150 
    137 H137       -3.0204  -19.1729  -46.6029 H         1 UNK         0.1150 
    138 H138       -5.1495  -17.2562  -43.4078 H         1 UNK         0.1150 
    139 H139       -5.6383  -19.6234  -44.0821 H         1 UNK         0.0800 
    140 H140       -4.6581  -20.4348  -45.2627 H         1 UNK         0.0800 
    141 H141       -1.1915  -20.6476  -43.0563 H         1 UNK         0.0800 
    142 H142       -1.6601  -19.4830  -44.2522 H         1 UNK         0.0800 
    143 H143       -2.7278  -21.5364  -45.5337 H         1 UNK         0.0600 
    144 H144       -0.2022  -20.4173  -45.7562 H         1 UNK         0.3000 
    145 H145        0.9090  -22.3504  -48.5687 H         1 UNK         0.0600 
    146 H146        0.8506  -20.3203  -49.7181 H         1 UNK         0.0600 
    147 H147       -0.7981  -20.4208  -49.1395 H         1 UNK         0.0600 
    148 H148        0.3487  -19.3766  -48.3163 H         1 UNK         0.0600 
    149 H149        1.9017  -20.1868  -46.8259 H         1 UNK         0.3000 
    150 H150        3.8847  -22.3392  -44.8463 H         1 UNK         0.0600 
    151 H151        5.4411  -22.0260  -46.7251 H         1 UNK         0.0600 
    152 H152        5.7278  -20.7792  -45.5210 H         1 UNK         0.0600 
    153 H153        4.8564  -20.3947  -47.0057 H         1 UNK         0.0600 
    154 H154        3.5456  -19.4775  -45.0196 H         1 UNK         0.3000 
    155 H155        0.6656  -19.2820  -42.9572 H         1 UNK         0.0600 
    156 H156        2.3944  -19.8046  -41.2278 H         1 UNK         0.0600 
    157 H157        2.1026  -18.0777  -41.3535 H         1 UNK         0.0600 
    158 H158        3.5527  -18.7818  -42.0705 H         1 UNK         0.0600 
    159 H159        2.3927  -17.2249  -43.6572 H         1 UNK         0.3000 
    160 H160        0.5780  -15.9212  -45.9982 H         1 UNK         0.0600 
    161 H161        3.5092  -15.9665  -45.0731 H         1 UNK         0.0600 
    162 H162        2.1532  -15.3044  -44.1636 H         1 UNK         0.0600 
    163 H163        2.6328  -14.5681  -45.6795 H         1 UNK         0.0600 
    164 H164        1.5586  -16.0172  -47.9960 H         1 UNK         0.3000 
    165 H165        4.6342  -17.1735  -49.1643 H         1 UNK         0.0600 
    166 H166        3.4874  -18.3560  -50.9974 H         1 UNK         0.0600 
    167 H167        3.3886  -19.3212  -49.5298 H         1 UNK         0.0600 
    168 H168        1.9906  -18.3982  -50.0714 H         1 UNK         0.0600 
    169 H169        2.3493  -16.0369  -50.5013 H         1 UNK         0.3000 
    170 H170        3.7117  -12.8161  -50.4262 H         1 UNK         0.0600 
    171 H171        2.8905  -14.4682  -52.1903 H         1 UNK         0.0600 
    172 H172        1.2955  -14.3877  -51.4412 H         1 UNK         0.0600 
    173 H173        2.0172  -12.9479  -52.1360 H         1 UNK         0.0600 
    174 H174        2.1016  -11.7867  -49.2765 H         1 UNK         0.3000 
    175 H175       -0.3767  -11.5624  -48.7472 H         1 UNK         0.0600 
    176 H176       -0.9741  -13.6980  -46.6459 H         1 UNK         0.0600 
    177 H177       -1.8730  -12.1932  -46.8424 H         1 UNK         0.0600 
    178 H178       -1.8778  -13.3982  -48.1221 H         1 UNK         0.0600 
    179 H179        0.6574  -11.9173  -46.0261 H         1 UNK         0.3000 
    180 H180        3.0635   -9.3960  -46.2163 H         1 UNK         0.0600 
    181 H181        0.2020   -8.6860  -45.3780 H         1 UNK         0.0600 
    182 H182        1.1908   -7.7825  -46.5188 H         1 UNK         0.0600 
    183 H183        1.6704   -7.8744  -44.8322 H         1 UNK         0.0600 
    184 H184        1.3577  -10.4111  -44.0785 H         1 UNK         0.3000 
    185 H185        3.2840  -13.2746  -43.4173 H         1 UNK         0.0600 
    186 H186        3.3847  -10.6850  -41.7907 H         1 UNK         0.0600 
    187 H187        3.7699  -12.3045  -41.2057 H         1 UNK         0.0600 
    188 H188        4.7880  -11.5430  -42.4158 H         1 UNK         0.0600 
    189 H189        1.4036  -12.3230  -41.7033 H         1 UNK         0.3000 
    190 H190        0.3021  -22.8761  -44.2967 H         1 UNK         0.3000 
    191 H191       -0.6539  -25.0176  -42.7734 H         1 UNK         0.0600 
    192 H192        1.8247  -24.8405  -44.5699 H         1 UNK         0.0600 
    193 H193        1.7238  -24.3238  -42.8875 H         1 UNK         0.0600 
    194 H194        1.5816  -26.0272  -43.2926 H         1 UNK         0.0600 
    195 H195       -0.8164  -24.6409  -46.2541 H         1 UNK         0.3000 
    196 H196       -1.7921  -27.4488  -46.6182 H         1 UNK         0.0600 
    197 H197        0.2721  -26.8769  -47.9304 H         1 UNK         0.0600 
    198 H198       -0.5637  -25.5027  -48.6498 H         1 UNK         0.0600 
    199 H199       -1.1055  -27.1451  -48.9834 H         1 UNK         0.0600 
    200 H200       -3.0731  -24.6419  -45.7938 H         1 UNK         0.3000 
    201 H201       -4.8602  -23.3907  -46.1355 H         1 UNK         0.0600 
    202 H202       -6.9658  -24.5096  -46.7952 H         1 UNK         0.0600 
    203 H203       -6.0408  -25.5576  -45.7332 H         1 UNK         0.0600 
    204 H204       -6.0790  -25.8710  -47.4670 H         1 UNK         0.0600 
    205 H205       -2.8197  -23.0295  -48.0037 H         1 UNK         0.3000 
    206 H206       -2.2116  -22.1182  -49.9104 H         1 UNK         0.0600 
    207 H207       -3.7527  -20.2806  -49.3812 H         1 UNK         0.0600 
    208 H208       -5.1038  -21.1311  -50.1211 H         1 UNK         0.0600 
    209 H209       -3.7724  -20.5637  -51.1128 H         1 UNK         0.0600 
    210 H210       -2.6965  -24.7897  -49.9117 H         1 UNK         0.3000 
    211 H211       -2.8087  -26.6267  -51.1236 H         1 UNK         0.0600 
    212 H212       -1.3533  -25.4076  -52.7801 H         1 UNK         0.0600 
    213 H213       -2.4015  -26.5934  -53.5437 H         1 UNK         0.0600 
    214 H214       -2.7979  -24.8874  -53.6471 H         1 UNK         0.0600 
    215 H215       -5.0468  -25.9082  -49.9502 H         1 UNK         0.3000 
    216 H216       -7.2703  -25.9077  -49.8093 H         1 UNK         0.0600 
    217 H217       -8.5494  -27.5784  -51.1085 H         1 UNK         0.0600 
    218 H218       -7.2268  -27.7622  -52.2520 H         1 UNK         0.0600 
    219 H219       -7.0264  -28.2731  -50.5767 H         1 UNK         0.0600 
    220 H220       -6.3765  -23.6764  -50.7485 H         1 UNK         0.3000 
    221 H221       -6.7353  -21.7520  -51.6940 H         1 UNK         0.0600 
    222 H222       -9.4953  -22.7628  -52.5433 H         1 UNK         0.0600 
    223 H223       -9.0978  -22.1052  -50.9556 H         1 UNK         0.0600 
    224 H224       -8.9971  -21.0865  -52.3808 H         1 UNK         0.0600 
    225 H225       -6.0514  -24.2911  -53.6263 H         1 UNK         0.3000 
    226 H226       -6.6684  -23.2189  -56.2310 H         1 UNK         0.0600 
    227 H227       -6.3904  -25.6743  -55.7368 H         1 UNK         0.0600 
    228 H228       -5.3834  -25.1185  -57.0662 H         1 UNK         0.0600 
    229 H229       -4.6637  -25.4056  -55.4908 H         1 UNK         0.0600 
    230 H230       -3.8849  -22.8796  -54.0374 H         1 UNK         0.3000 
    231 H231       -2.1611  -21.7322  -56.1497 H         1 UNK         0.0600 
    232 H232       -0.4758  -21.6261  -54.3549 H         1 UNK         0.0600 
    233 H233       -1.1684  -23.2359  -54.4283 H         1 UNK         0.0600 
    234 H234       -1.6567  -22.1178  -53.1536 H         1 UNK         0.0600 
    235 H235       -4.4200  -20.6720  -53.7570 H         1 UNK         0.3000 
    236 H236       -5.1226  -18.7214  -52.9335 H         1 UNK         0.0600 
    237 H237       -5.7604  -18.4935  -55.3375 H         1 UNK         0.0600 
    238 H238       -5.4641  -16.9272  -54.6019 H         1 UNK         0.0600 
    239 H239       -4.2543  -17.6369  -55.6647 H         1 UNK         0.0600 
    240 H240       -2.5493  -19.3304  -52.0763 H         1 UNK         0.3000 
    241 H241       -0.8934  -18.5867  -50.8472 H         1 UNK         0.0600 
    242 H242        0.7662  -17.6094  -54.2391 H         1 UNK         0.3800 
    243 H243       -0.8312  -18.2965  -54.0951 H         1 UNK         0.3800 
    244 H244       -0.6942  -16.2957  -49.9768 H         1 UNK         0.0800 
    245 H245       -1.8940  -15.7122  -51.0862 H         1 UNK         0.0800 
    246 H246       -1.3786  -16.0262  -47.7020 H         1 UNK         0.0800 
    247 H247       -1.2539  -17.7673  -47.7377 H         1 UNK         0.0800 
@<TRIPOS>BOND
     1    1    2 1    
     2    1  127 1    
     3    1  128 1    
     4    1  129 1    
     5    2    3 2    
     6    2    4 am   BACKBONE|DICT|INTERRES
     7    4    5 1    
     8    4  130 1    
     9    5    6 1    
    10    5   65 1    
    11    5  131 1    
    12    6    7 1    
    13    6  132 1    
    14    6  133 1    
    15    7    8 1    
    16    8    9 1    
    17    8  134 1    
    18    8  135 1    
    19    9   10 ar   
    20    9   14 ar   
    21   10   11 ar   
    22   10  136 1    
    23   11   12 ar   
    24   11  126 1    
    25   12   13 ar   
    26   12  137 1    
    27   13   14 ar   
    28   13   15 1    
    29   14  138 1    
    30   15   16 1    
    31   15  139 1    
    32   15  140 1    
    33   16   17 1    
    34   17   18 1    
    35   17  141 1    
    36   17  142 1    
    37   18   19 1    
    38   18   67 1    
    39   18  143 1    
    40   19   20 am   BACKBONE|DICT|INTERRES
    41   19  144 1    
    42   20   21 2    
    43   20   22 1    
    44   22   23 1    
    45   22   24 1    
    46   22  145 1    
    47   23  146 1    
    48   23  147 1    
    49   23  148 1    
    50   24   25 am   BACKBONE|DICT|INTERRES
    51   24  149 1    
    52   25   26 2    
    53   25   27 1    
    54   27   28 1    
    55   27   29 1    
    56   27  150 1    
    57   28  151 1    
    58   28  152 1    
    59   28  153 1    
    60   29   30 am   BACKBONE|DICT|INTERRES
    61   29  154 1    
    62   30   31 2    
    63   30   32 1    
    64   32   33 1    
    65   32   34 1    
    66   32  155 1    
    67   33  156 1    
    68   33  157 1    
    69   33  158 1    
    70   34   35 am   BACKBONE|DICT|INTERRES
    71   34  159 1    
    72   35   36 2    
    73   35   37 1    
    74   37   38 1    
    75   37   39 1    
    76   37  160 1    
    77   38  161 1    
    78   38  162 1    
    79   38  163 1    
    80   39   40 am   BACKBONE|DICT|INTERRES
    81   39  164 1    
    82   40   41 2    
    83   40   42 1    
    84   42   43 1    
    85   42   44 1    
    86   42  165 1    
    87   43  166 1    
    88   43  167 1    
    89   43  168 1    
    90   44   45 am   BACKBONE|DICT|INTERRES
    91   44  169 1    
    92   45   46 2    
    93   45   47 1    
    94   47   48 1    
    95   47   49 1    
    96   47  170 1    
    97   48  171 1    
    98   48  172 1    
    99   48  173 1    
   100   49   50 am   BACKBONE|DICT|INTERRES
   101   49  174 1    
   102   50   51 2    
   103   50   52 1    
   104   52   53 1    
   105   52   54 1    
   106   52  175 1    
   107   53  176 1    
   108   53  177 1    
   109   53  178 1    
   110   54   55 am   BACKBONE|DICT|INTERRES
   111   54  179 1    
   112   55   56 2    
   113   55   57 1    
   114   57   58 1    
   115   57   59 1    
   116   57  180 1    
   117   58  181 1    
   118   58  182 1    
   119   58  183 1    
   120   59   60 am   BACKBONE|DICT|INTERRES
   121   59  184 1    
   122   60   61 2    
   123   60   62 1    
   124   62   63 1    
   125   62   64 1    
   126   62  185 1    
   127   63  186 1    
   128   63  187 1    
   129   63  188 1    
   130   64   65 am   BACKBONE|DICT|INTERRES
   131   64  189 1    
   132   65   66 2    
   133   67   68 2    
   134   67   69 am   BACKBONE|DICT|INTERRES
   135   69   70 1    
   136   69  190 1    
   137   70   71 1    
   138   70   72 1    
   139   70  191 1    
   140   71  192 1    
   141   71  193 1    
   142   71  194 1    
   143   72   73 2    
   144   72   74 am   BACKBONE|DICT|INTERRES
   145   74   75 1    
   146   74  195 1    
   147   75   76 1    
   148   75   77 1    
   149   75  196 1    
   150   76  197 1    
   151   76  198 1    
   152   76  199 1    
   153   77   78 2    
   154   77   79 am   BACKBONE|DICT|INTERRES
   155   79   80 1    
   156   79  200 1    
   157   80   81 1    
   158   80   82 1    
   159   80  201 1    
   160   81  202 1    
   161   81  203 1    
   162   81  204 1    
   163   82   83 2    
   164   82   84 am   BACKBONE|DICT|INTERRES
   165   84   85 1    
   166   84  205 1    
   167   85   86 1    
   168   85   87 1    
   169   85  206 1    
   170   86  207 1    
   171   86  208 1    
   172   86  209 1    
   173   87   88 2    
   174   87   89 am   BACKBONE|DICT|INTERRES
   175   89   90 1    
   176   89  210 1    
   177   90   91 1    
   178   90   92 1    
   179   90  211 1    
   180   91  212 1    
   181   91  213 1    
   182   91  214 1    
   183   92   93 2    
   184   92   94 am   BACKBONE|DICT|INTERRES
   185   94   95 1    
   186   94  215 1    
   187   95   96 1    
   188   95   97 1    
   189   95  216 1    
   190   96  217 1    
   191   96  218 1    
   192   96  219 1    
   193   97   98 2    
   194   97   99 am   BACKBONE|DICT|INTERRES
   195   99  100 1    
   196   99  220 1    
   197  100  101 1    
   198  100  102 1    
   199  100  221 1    
   200  101  222 1    
   201  101  223 1    
   202  101  224 1    
   203  102  103 2    
   204  102  104 am   BACKBONE|DICT|INTERRES
   205  104  105 1    
   206  104  225 1    
   207  105  106 1    
   208  105  107 1    
   209  105  226 1    
   210  106  227 1    
   211  106  228 1    
   212  106  229 1    
   213  107  108 2    
   214  107  109 am   BACKBONE|DICT|INTERRES
   215  109  110 1    
   216  109  230 1    
   217  110  111 1    
   218  110  112 1    
   219  110  231 1    
   220  111  232 1    
   221  111  233 1    
   222  111  234 1    
   223  112  113 2    
   224  112  114 am   BACKBONE|DICT|INTERRES
   225  114  115 1    
   226  114  235 1    
   227  115  116 1    
   228  115  117 1    
   229  115  236 1    
   230  116  237 1    
   231  116  238 1    
   232  116  239 1    
   233  117  118 2    
   234  117  119 am   BACKBONE|DICT|INTERRES
   235  119  120 1    
   236  119  240 1    
   237  120  121 1    
   238  120  124 1    
   239  120  241 1    
   240  121  122 am   BACKBONE|DICT|INTERRES
   241  121  123 2    
   242  122  242 1    
   243  122  243 1    
   244  124  125 1    
   245  124  244 1    
   246  124  245 1    
   247  125  126 1    
   248  126  246 1    
   249  126  247 1    
@<TRIPOS>SUBSTRUCTURE
     1 UNK         1 GROUP             0       ****    0 ROOT    
