@<TRIPOS>MOLECULE
3R540
247   249    1
SMALL
USER_CHARGES


@<TRIPOS>ATOM
      1 CA          3.7408  -10.1013  -47.4869 C.3       0 UNK        -0.1800 
      2 C           4.1500  -11.5345  -47.7949 C.2       0 UNK         0.5000 
      3 O           5.2691  -11.9391  -47.4782 O.2       0 UNK        -0.5000 
      4 N           3.2429  -12.3009  -48.4109 N.am      1 UNK        -0.5000 
      5 CA          3.4317  -13.6837  -48.8675 C.3       1 UNK         0.1400 
      6 C6          2.2922  -14.1548  -49.8111 C.3       23 UNK        -0.0398 
      7 S7          0.6092  -13.6082  -49.3435 S.3       23 UNK        -0.2404 
      8 C8          0.0452  -14.9163  -48.2123 C.3       23 UNK        -0.0205 
      9 C9          0.0002  -16.2888  -48.8665 C.ar      23 UNK        -0.0193 
     10 C10        -0.9343  -16.5678  -49.8674 C.ar      23 UNK        -0.1150 
     11 C11        -0.9885  -17.8355  -50.4554 C.ar      23 UNK        -0.0193 
     12 C12        -0.1159  -18.8364  -50.0146 C.ar      23 UNK        -0.1150 
     13 C13         0.8293  -18.5651  -49.0200 C.ar      23 UNK        -0.0193 
     14 C14         0.8855  -17.2881  -48.4578 C.ar      23 UNK        -0.1150 
     15 C15         1.8120  -19.6341  -48.5630 C.3       23 UNK        -0.0205 
     16 S16         1.4893  -20.1692  -46.8523 S.3       23 UNK        -0.2404 
     17 C17        -0.0496  -21.1231  -47.0600 C.3       23 UNK        -0.0398 
     18 CA          0.1158  -22.6248  -46.7359 C.3       11 UNK         0.1400 
     19 N           0.6295  -22.8625  -45.3841 N.am      11 UNK        -0.5000 
     20 C           1.1161  -24.0335  -44.9501 C.2       10 UNK         0.5000 
     21 O           1.1954  -25.0387  -45.6536 O.2       10 UNK        -0.5000 
     22 CA          1.5394  -24.1099  -43.4708 C.3       10 UNK         0.1400 
     23 CB          2.9912  -23.6383  -43.3034 C.3       10 UNK        -0.1800 
     24 N           0.6738  -23.3238  -42.5912 N.am      10 UNK        -0.5000 
     25 C          -0.6347  -23.5481  -42.4012 C.2       9 UNK         0.5000 
     26 O          -1.2410  -24.4983  -42.8948 O.2       9 UNK        -0.5000 
     27 CA         -1.4055  -22.4949  -41.5793 C.3       9 UNK         0.1400 
     28 CB         -1.4403  -22.8889  -40.0957 C.3       9 UNK        -0.1800 
     29 N          -0.8493  -21.1427  -41.7118 N.am      9 UNK        -0.5000 
     30 C          -0.7807  -20.4624  -42.8642 C.2       8 UNK         0.5000 
     31 O          -1.2226  -20.8928  -43.9321 O.2       8 UNK        -0.5000 
     32 CA         -0.0070  -19.1328  -42.8249 C.3       8 UNK         0.1400 
     33 CB          1.5060  -19.4070  -42.7973 C.3       8 UNK        -0.1800 
     34 N          -0.3043  -18.3001  -43.9888 N.am      8 UNK        -0.5000 
     35 C          -1.3951  -17.5369  -44.1165 C.2       7 UNK         0.5000 
     36 O          -2.2570  -17.4147  -43.2419 O.2       7 UNK        -0.5000 
     37 CA         -1.5548  -16.8112  -45.4655 C.3       7 UNK         0.1400 
     38 CB         -2.2909  -17.7018  -46.4753 C.3       7 UNK        -0.1800 
     39 N          -2.2813  -15.5484  -45.3373 N.am      7 UNK        -0.5000 
     40 C          -1.7792  -14.4467  -44.7697 C.2       6 UNK         0.5000 
     41 O          -0.6489  -14.3781  -44.2836 O.2       6 UNK        -0.5000 
     42 CA         -2.6912  -13.2090  -44.7349 C.3       6 UNK         0.1400 
     43 CB         -3.3064  -13.0275  -43.3388 C.3       6 UNK        -0.1800 
     44 N          -1.9135  -12.0199  -45.0718 N.am      6 UNK        -0.5000 
     45 C          -1.5728  -11.6610  -46.3171 C.2       5 UNK         0.5000 
     46 O          -2.0358  -12.1913  -47.3265 O.2       5 UNK        -0.5000 
     47 CA         -0.5442  -10.5197  -46.4635 C.3       5 UNK         0.1400 
     48 CB         -1.2425   -9.2070  -46.8501 C.3       5 UNK        -0.1800 
     49 N           0.2396  -10.3004  -45.2440 N.am      5 UNK        -0.5000 
     50 C           1.2388  -11.0934  -44.8387 C.2       4 UNK         0.5000 
     51 O           1.6730  -12.0415  -45.5018 O.2       4 UNK        -0.5000 
     52 CA          1.8163  -10.7858  -43.4437 C.3       4 UNK         0.1400 
     53 CB          0.8654  -11.2972  -42.3493 C.3       4 UNK        -0.1800 
     54 N           3.0980  -11.4593  -43.2888 N.am      4 UNK        -0.5000 
     55 C           4.2863  -10.9586  -43.6360 C.2       3 UNK         0.5000 
     56 O           4.4907   -9.7623  -43.8444 O.2       3 UNK        -0.5000 
     57 CA          5.4233  -11.9760  -43.8575 C.3       3 UNK         0.1400 
     58 CB          6.1363  -12.3366  -42.5401 C.3       3 UNK        -0.1800 
     59 N           4.9860  -13.1670  -44.6046 N.am      3 UNK        -0.5000 
     60 C           4.1746  -14.1619  -44.2096 C.2       2 UNK         0.5000 
     61 O           3.7290  -14.2665  -43.0660 O.2       2 UNK        -0.5000 
     62 CA          3.7324  -15.1460  -45.3040 C.3       2 UNK         0.1400 
     63 CB          2.5777  -16.0671  -44.8700 C.3       2 UNK        -0.1800 
     64 N           3.3510  -14.3906  -46.4971 N.am      2 UNK        -0.5000 
     65 C           3.7183  -14.7060  -47.7444 C.2       1 UNK         0.5000 
     66 O           4.3039  -15.7510  -48.0313 O.2       1 UNK        -0.5000 
     67 C          -1.2223  -23.3523  -46.9603 C.2       11 UNK         0.5000 
     68 O          -1.4814  -23.8130  -48.0724 O.2       11 UNK        -0.5000 
     69 N          -2.0498  -23.4432  -45.9100 N.am      12 UNK        -0.5000 
     70 CA         -3.3017  -24.1981  -45.9172 C.3       12 UNK         0.1400 
     71 CB         -4.1714  -23.7801  -44.7230 C.3       12 UNK        -0.1800 
     72 C          -3.0447  -25.7144  -45.9272 C.2       12 UNK         0.5000 
     73 O          -3.6816  -26.4267  -46.7020 O.2       12 UNK        -0.5000 
     74 N          -2.0770  -26.1715  -45.1184 N.am      13 UNK        -0.5000 
     75 CA         -1.6183  -27.5630  -45.0602 C.3       13 UNK         0.1400 
     76 CB         -0.6302  -27.7273  -43.8959 C.3       13 UNK        -0.1800 
     77 C          -0.9904  -28.0484  -46.3819 C.2       13 UNK         0.5000 
     78 O          -1.2206  -29.1897  -46.7823 O.2       13 UNK        -0.5000 
     79 N          -0.2483  -27.1591  -47.0565 N.am      14 UNK        -0.5000 
     80 CA          0.3167  -27.3689  -48.3925 C.3       14 UNK         0.1400 
     81 CB          1.4245  -26.3290  -48.6266 C.3       14 UNK        -0.1800 
     82 C          -0.7273  -27.2948  -49.5275 C.2       14 UNK         0.5000 
     83 O          -0.3918  -27.6133  -50.6687 O.2       14 UNK        -0.5000 
     84 N          -1.9532  -26.8543  -49.2059 N.am      15 UNK        -0.5000 
     85 CA         -3.0944  -26.6245  -50.0974 C.3       15 UNK         0.1400 
     86 CB         -3.5497  -27.9308  -50.7795 C.3       15 UNK        -0.1800 
     87 C          -2.8842  -25.4664  -51.0963 C.2       15 UNK         0.5000 
     88 O          -3.6084  -25.3763  -52.0881 O.2       15 UNK        -0.5000 
     89 N          -1.9327  -24.5719  -50.7995 N.am      16 UNK        -0.5000 
     90 CA         -1.6656  -23.3548  -51.5615 C.3       16 UNK         0.1400 
     91 CB         -0.2494  -22.8474  -51.2447 C.3       16 UNK        -0.1800 
     92 C          -2.7176  -22.2809  -51.2500 C.2       16 UNK         0.5000 
     93 O          -3.2839  -21.6986  -52.1712 O.2       16 UNK        -0.5000 
     94 N          -2.9955  -22.0782  -49.9540 N.am      17 UNK        -0.5000 
     95 CA         -4.0101  -21.1375  -49.4677 C.3       17 UNK         0.1400 
     96 CB         -3.6626  -20.7089  -48.0363 C.3       17 UNK        -0.1800 
     97 C          -5.4413  -21.7009  -49.5391 C.2       17 UNK         0.5000 
     98 O          -6.3970  -20.9363  -49.4060 O.2       17 UNK        -0.5000 
     99 N          -5.5714  -23.0189  -49.7516 N.am      18 UNK        -0.5000 
    100 CA        -6.8495  -23.6962  -49.9800 C.3       18 UNK         0.1400 
    101 CB        -6.6546  -25.2139  -49.8486 C.3       18 UNK        -0.1800 
    102 C         -7.4640  -23.3410  -51.3484 C.2       18 UNK         0.5000 
    103 O         -8.6883  -23.3437  -51.4816 O.2       18 UNK        -0.5000 
    104 N         -6.6096  -23.0199  -52.3295 N.am      19 UNK        -0.5000 
    105 CA        -7.0031  -22.4647  -53.6179 C.3       19 UNK         0.1400 
    106 CB        -5.9263  -22.8024  -54.6616 C.3       19 UNK        -0.1800 
    107 C         -7.1637  -20.9439  -53.4759 C.2       19 UNK         0.5000 
    108 O         -6.2149  -20.2707  -53.0694 O.2       19 UNK        -0.5000 
    109 N         -8.3393  -20.4180  -53.8429 N.am      20 UNK        -0.5000 
    110 CA        -8.6657  -18.9876  -53.7739 C.3       20 UNK         0.1400 
    111 CB       -10.1555  -18.7960  -54.0962 C.3       20 UNK        -0.1800 
    112 C         -7.7957  -18.1083  -54.6959 C.2       20 UNK         0.5000 
    113 O         -7.5706  -16.9371  -54.3899 O.2       20 UNK        -0.5000 
    114 N         -7.3063  -18.7008  -55.7924 N.am      21 UNK        -0.5000 
    115 CA        -6.3874  -18.0838  -56.7476 C.3       21 UNK         0.1400 
    116 CB        -6.6076  -18.7414  -58.1203 C.3       21 UNK        -0.1800 
    117 C         -4.9051  -18.1892  -56.3281 C.2       21 UNK         0.5000 
    118 O         -4.0556  -17.6383  -57.0292 O.2       21 UNK        -0.5000 
    119 N         -4.6057  -18.9008  -55.2286 N.am      22 UNK        -0.5000 
    120 CA        -3.2454  -19.2061  -54.7444 C.3       22 UNK         0.1400 
    121 C         -2.4621  -20.2176  -55.6454 C.2       22 UNK         0.5000 
    122 N         -3.1246  -20.9781  -56.5100 N.am      22 UNK        -0.7600 
    123 O         -1.2436  -20.3394  -55.5617 O.2       22 UNK        -0.5000 
    124 C124       -2.4522  -17.9155  -54.3829 C.3       23 UNK        -0.0398 
    125 S125       -1.0950  -18.1517  -53.1838 S.3       23 UNK        -0.2404 
    126 C126       -1.9664  -18.1104  -51.5879 C.3       23 UNK        -0.0205 
    127 H127        2.7068   -9.9051  -47.7719 H         1 UNK         0.0600 
    128 H128        4.3821   -9.4041  -48.0258 H         1 UNK         0.0600 
    129 H129        3.8388   -9.9008  -46.4220 H         1 UNK         0.0600 
    130 H130        2.3264  -11.9218  -48.6034 H         1 UNK         0.3000 
    131 H131        4.3442  -13.6737  -49.4678 H         1 UNK         0.0600 
    132 H132        2.4768  -13.7352  -50.8008 H         1 UNK         0.0800 
    133 H133        2.3117  -15.2350  -49.9647 H         1 UNK         0.0800 
    134 H134        0.6765  -14.9223  -47.3230 H         1 UNK         0.0800 
    135 H135       -0.9571  -14.6630  -47.8657 H         1 UNK         0.0800 
    136 H136       -1.6083  -15.7896  -50.1970 H         1 UNK         0.1150 
    137 H137       -0.1566  -19.8158  -50.4694 H         1 UNK         0.1150 
    138 H138        1.6226  -17.0767  -47.6985 H         1 UNK         0.1150 
    139 H139        1.7908  -20.4990  -49.2281 H         1 UNK         0.0800 
    140 H140        2.8240  -19.2303  -48.6188 H         1 UNK         0.0800 
    141 H141       -0.4094  -21.0012  -48.0824 H         1 UNK         0.0800 
    142 H142       -0.8083  -20.6742  -46.4206 H         1 UNK         0.0800 
    143 H143        0.8342  -23.0424  -47.4447 H         1 UNK         0.0600 
    144 H144        0.5435  -22.0917  -44.7368 H         1 UNK         0.3000 
    145 H145        1.4785  -25.1542  -43.1585 H         1 UNK         0.0600 
    146 H146        3.3285  -23.7568  -42.2735 H         1 UNK         0.0600 
    147 H147        3.6651  -24.2201  -43.9338 H         1 UNK         0.0600 
    148 H148        3.1091  -22.5890  -43.5776 H         1 UNK         0.0600 
    149 H149        1.0921  -22.5255  -42.1383 H         1 UNK         0.3000 
    150 H150       -2.4312  -22.4737  -41.9534 H         1 UNK         0.0600 
    151 H151       -0.4412  -22.9035  -39.6584 H         1 UNK         0.0600 
    152 H152       -1.8700  -23.8832  -39.9663 H         1 UNK         0.0600 
    153 H153       -2.0509  -22.1952  -39.5174 H         1 UNK         0.0600 
    154 H154       -0.4605  -20.7329  -40.8744 H         1 UNK         0.3000 
    155 H155       -0.2845  -18.5942  -41.9163 H         1 UNK         0.0600 
    156 H156        1.8395  -19.9319  -43.6935 H         1 UNK         0.0600 
    157 H157        1.7845  -20.0167  -41.9371 H         1 UNK         0.0600 
    158 H158        2.0711  -18.4786  -42.7232 H         1 UNK         0.0600 
    159 H159        0.3217  -18.3986  -44.7744 H         1 UNK         0.3000 
    160 H160       -0.5607  -16.5911  -45.8589 H         1 UNK         0.0600 
    161 H161       -1.6899  -18.5770  -46.7143 H         1 UNK         0.0600 
    162 H162       -2.4772  -17.1773  -47.4122 H         1 UNK         0.0600 
    163 H163       -3.2493  -18.0500  -46.0879 H         1 UNK         0.0600 
    164 H164       -3.2331  -15.5424  -45.6730 H         1 UNK         0.3000 
    165 H165       -3.4996  -13.3300  -45.4593 H         1 UNK         0.0600 
    166 H166       -3.9625  -12.1575  -43.3068 H         1 UNK         0.0600 
    167 H167       -3.9039  -13.8968  -43.0610 H         1 UNK         0.0600 
    168 H168       -2.5396  -12.8986  -42.5736 H         1 UNK         0.0600 
    169 H169       -1.4523  -11.5578  -44.3038 H         1 UNK         0.3000 
    170 H170        0.1356  -10.7950  -47.2728 H         1 UNK         0.0600 
    171 H171       -0.5182   -8.4097  -47.0176 H         1 UNK         0.0600 
    172 H172       -1.8125   -9.3254  -47.7726 H         1 UNK         0.0600 
    173 H173       -1.9358   -8.8760  -46.0760 H         1 UNK         0.0600 
    174 H174       -0.0513   -9.5327  -44.6555 H         1 UNK         0.3000 
    175 H175        1.9427   -9.7065  -43.3368 H         1 UNK         0.0600 
    176 H176       -0.0960  -10.7840  -42.3883 H         1 UNK         0.0600 
    177 H177        0.6724  -12.3665  -42.4521 H         1 UNK         0.0600 
    178 H178        1.2814  -11.1272  -41.3561 H         1 UNK         0.0600 
    179 H179        3.0529  -12.4656  -43.1599 H         1 UNK         0.3000 
    180 H180        6.1573  -11.4871  -44.5002 H         1 UNK         0.0600 
    181 H181        5.4554  -12.7698  -41.8073 H         1 UNK         0.0600 
    182 H182        6.5750  -11.4480  -42.0850 H         1 UNK         0.0600 
    183 H183        6.9445  -13.0477  -42.7107 H         1 UNK         0.0600 
    184 H184        5.2329  -13.1441  -45.5875 H         1 UNK         0.3000 
    185 H185        4.6042  -15.7702  -45.5103 H         1 UNK         0.0600 
    186 H186        2.8190  -16.5876  -43.9434 H         1 UNK         0.0600 
    187 H187        1.6603  -15.5043  -44.7031 H         1 UNK         0.0600 
    188 H188        2.3772  -16.8308  -45.6187 H         1 UNK         0.0600 
    189 H189        2.8595  -13.5160  -46.3283 H         1 UNK         0.3000 
    190 H190       -1.7746  -23.0152  -45.0360 H         1 UNK         0.3000 
    191 H191       -3.8478  -23.9500  -46.8300 H         1 UNK         0.0600 
    192 H192       -4.3740  -22.7090  -44.7402 H         1 UNK         0.0600 
    193 H193       -5.1332  -24.2939  -44.7454 H         1 UNK         0.0600 
    194 H194       -3.6979  -24.0156  -43.7702 H         1 UNK         0.0600 
    195 H195       -1.6409  -25.5232  -44.4684 H         1 UNK         0.3000 
    196 H196       -2.4892  -28.1896  -44.8579 H         1 UNK         0.0600 
    197 H197       -0.3113  -28.7658  -43.7983 H         1 UNK         0.0600 
    198 H198       -1.0838  -27.4351  -42.9487 H         1 UNK         0.0600 
    199 H199        0.2645  -27.1217  -44.0394 H         1 UNK         0.0600 
    200 H200       -0.0290  -26.2735  -46.6110 H         1 UNK         0.3000 
    201 H201        0.7666  -28.3631  -48.4265 H         1 UNK         0.0600 
    202 H202        1.8999  -26.4703  -49.5980 H         1 UNK         0.0600 
    203 H203        2.2059  -26.4082  -47.8707 H         1 UNK         0.0600 
    204 H204        1.0318  -25.3120  -48.5982 H         1 UNK         0.0600 
    205 H205       -2.1275  -26.6307  -48.2341 H         1 UNK         0.3000 
    206 H206       -3.9059  -26.3037  -49.4447 H         1 UNK         0.0600 
    207 H207       -3.6946  -28.7265  -50.0488 H         1 UNK         0.0600 
    208 H208       -4.4996  -27.7911  -51.2968 H         1 UNK         0.0600 
    209 H209       -2.8266  -28.2782  -51.5175 H         1 UNK         0.0600 
    210 H210       -1.4492  -24.6662  -49.9134 H         1 UNK         0.3000 
    211 H211       -1.7156  -23.5846  -52.6281 H         1 UNK         0.0600 
    212 H212       -0.1301  -22.5956  -50.1905 H         1 UNK         0.0600 
    213 H213       -0.0194  -21.9529  -51.8251 H         1 UNK         0.0600 
    214 H214        0.5007  -23.5980  -51.4943 H         1 UNK         0.0600 
    215 H215       -2.5035  -22.6334  -49.2615 H         1 UNK         0.3000 
    216 H216       -3.9925  -20.2443  -50.0946 H         1 UNK         0.0600 
    217 H217       -4.3756  -19.9722  -47.6641 H         1 UNK         0.0600 
    218 H218       -2.6786  -20.2468  -48.0035 H         1 UNK         0.0600 
    219 H219       -3.6717  -21.5496  -47.3443 H         1 UNK         0.0600 
    220 H220       -4.7336  -23.5701  -49.8503 H         1 UNK         0.3000 
    221 H221       -7.5497  -23.3749  -49.2059 H         1 UNK         0.0600 
    222 H222       -6.0047  -25.6058  -50.6310 H         1 UNK         0.0600 
    223 H223       -6.2241  -25.4774  -48.8821 H         1 UNK         0.0600 
    224 H224       -7.6095  -25.7346  -49.9302 H         1 UNK         0.0600 
    225 H225       -5.6218  -22.9874  -52.1201 H         1 UNK         0.3000 
    226 H226       -7.9472  -22.9086  -53.9409 H         1 UNK         0.0600 
    227 H227       -6.1931  -22.4054  -55.6416 H         1 UNK         0.0600 
    228 H228       -4.9544  -22.3869  -54.3905 H         1 UNK         0.0600 
    229 H229       -5.8073  -23.8808  -54.7683 H         1 UNK         0.0600 
    230 H230       -9.0749  -21.0318  -54.1634 H         1 UNK         0.3000 
    231 H231       -8.4922  -18.6551  -52.7482 H         1 UNK         0.0600 
    232 H232      -10.3964  -19.1360  -55.1042 H         1 UNK         0.0600 
    233 H233      -10.4379  -17.7445  -54.0283 H         1 UNK         0.0600 
    234 H234      -10.7849  -19.3453  -53.3959 H         1 UNK         0.0600 
    235 H235       -7.5570  -19.6633  -55.9636 H         1 UNK         0.3000 
    236 H236       -6.6241  -17.0217  -56.8388 H         1 UNK         0.0600 
    237 H237       -7.6410  -18.6301  -58.4492 H         1 UNK         0.0600 
    238 H238       -5.9767  -18.2822  -58.8825 H         1 UNK         0.0600 
    239 H239       -6.3744  -19.8066  -58.0995 H         1 UNK         0.0600 
    240 H240       -5.3555  -19.3017  -54.6764 H         1 UNK         0.3000 
    241 H241       -3.4139  -19.7422  -53.8124 H         1 UNK         0.0600 
    242 H242       -4.1232  -20.9014  -56.6027 H         1 UNK         0.3800 
    243 H243       -2.6144  -21.6306  -57.0839 H         1 UNK         0.3800 
    244 H244       -2.0304  -17.4678  -55.2837 H         1 UNK         0.0800 
    245 H245       -3.1280  -17.1640  -53.9728 H         1 UNK         0.0800 
    246 H246       -2.7472  -17.3488  -51.6082 H         1 UNK         0.0800 
    247 H247       -2.4646  -19.0662  -51.4276 H         1 UNK         0.0800 
@<TRIPOS>BOND
     1    1    2 1    
     2    1  127 1    
     3    1  128 1    
     4    1  129 1    
     5    2    3 2    
     6    2    4 am   BACKBONE|DICT|INTERRES
     7    4    5 1    
     8    4  130 1    
     9    5    6 1    
    10    5   65 1    
    11    5  131 1    
    12    6    7 1    
    13    6  132 1    
    14    6  133 1    
    15    7    8 1    
    16    8    9 1    
    17    8  134 1    
    18    8  135 1    
    19    9   10 ar   
    20    9   14 ar   
    21   10   11 ar   
    22   10  136 1    
    23   11   12 ar   
    24   11  126 1    
    25   12   13 ar   
    26   12  137 1    
    27   13   14 ar   
    28   13   15 1    
    29   14  138 1    
    30   15   16 1    
    31   15  139 1    
    32   15  140 1    
    33   16   17 1    
    34   17   18 1    
    35   17  141 1    
    36   17  142 1    
    37   18   19 1    
    38   18   67 1    
    39   18  143 1    
    40   19   20 am   BACKBONE|DICT|INTERRES
    41   19  144 1    
    42   20   21 2    
    43   20   22 1    
    44   22   23 1    
    45   22   24 1    
    46   22  145 1    
    47   23  146 1    
    48   23  147 1    
    49   23  148 1    
    50   24   25 am   BACKBONE|DICT|INTERRES
    51   24  149 1    
    52   25   26 2    
    53   25   27 1    
    54   27   28 1    
    55   27   29 1    
    56   27  150 1    
    57   28  151 1    
    58   28  152 1    
    59   28  153 1    
    60   29   30 am   BACKBONE|DICT|INTERRES
    61   29  154 1    
    62   30   31 2    
    63   30   32 1    
    64   32   33 1    
    65   32   34 1    
    66   32  155 1    
    67   33  156 1    
    68   33  157 1    
    69   33  158 1    
    70   34   35 am   BACKBONE|DICT|INTERRES
    71   34  159 1    
    72   35   36 2    
    73   35   37 1    
    74   37   38 1    
    75   37   39 1    
    76   37  160 1    
    77   38  161 1    
    78   38  162 1    
    79   38  163 1    
    80   39   40 am   BACKBONE|DICT|INTERRES
    81   39  164 1    
    82   40   41 2    
    83   40   42 1    
    84   42   43 1    
    85   42   44 1    
    86   42  165 1    
    87   43  166 1    
    88   43  167 1    
    89   43  168 1    
    90   44   45 am   BACKBONE|DICT|INTERRES
    91   44  169 1    
    92   45   46 2    
    93   45   47 1    
    94   47   48 1    
    95   47   49 1    
    96   47  170 1    
    97   48  171 1    
    98   48  172 1    
    99   48  173 1    
   100   49   50 am   BACKBONE|DICT|INTERRES
   101   49  174 1    
   102   50   51 2    
   103   50   52 1    
   104   52   53 1    
   105   52   54 1    
   106   52  175 1    
   107   53  176 1    
   108   53  177 1    
   109   53  178 1    
   110   54   55 am   BACKBONE|DICT|INTERRES
   111   54  179 1    
   112   55   56 2    
   113   55   57 1    
   114   57   58 1    
   115   57   59 1    
   116   57  180 1    
   117   58  181 1    
   118   58  182 1    
   119   58  183 1    
   120   59   60 am   BACKBONE|DICT|INTERRES
   121   59  184 1    
   122   60   61 2    
   123   60   62 1    
   124   62   63 1    
   125   62   64 1    
   126   62  185 1    
   127   63  186 1    
   128   63  187 1    
   129   63  188 1    
   130   64   65 am   BACKBONE|DICT|INTERRES
   131   64  189 1    
   132   65   66 2    
   133   67   68 2    
   134   67   69 am   BACKBONE|DICT|INTERRES
   135   69   70 1    
   136   69  190 1    
   137   70   71 1    
   138   70   72 1    
   139   70  191 1    
   140   71  192 1    
   141   71  193 1    
   142   71  194 1    
   143   72   73 2    
   144   72   74 am   BACKBONE|DICT|INTERRES
   145   74   75 1    
   146   74  195 1    
   147   75   76 1    
   148   75   77 1    
   149   75  196 1    
   150   76  197 1    
   151   76  198 1    
   152   76  199 1    
   153   77   78 2    
   154   77   79 am   BACKBONE|DICT|INTERRES
   155   79   80 1    
   156   79  200 1    
   157   80   81 1    
   158   80   82 1    
   159   80  201 1    
   160   81  202 1    
   161   81  203 1    
   162   81  204 1    
   163   82   83 2    
   164   82   84 am   BACKBONE|DICT|INTERRES
   165   84   85 1    
   166   84  205 1    
   167   85   86 1    
   168   85   87 1    
   169   85  206 1    
   170   86  207 1    
   171   86  208 1    
   172   86  209 1    
   173   87   88 2    
   174   87   89 am   BACKBONE|DICT|INTERRES
   175   89   90 1    
   176   89  210 1    
   177   90   91 1    
   178   90   92 1    
   179   90  211 1    
   180   91  212 1    
   181   91  213 1    
   182   91  214 1    
   183   92   93 2    
   184   92   94 am   BACKBONE|DICT|INTERRES
   185   94   95 1    
   186   94  215 1    
   187   95   96 1    
   188   95   97 1    
   189   95  216 1    
   190   96  217 1    
   191   96  218 1    
   192   96  219 1    
   193   97   98 2    
   194   97   99 am   BACKBONE|DICT|INTERRES
   195   99  100 1    
   196   99  220 1    
   197  100  101 1    
   198  100  102 1    
   199  100  221 1    
   200  101  222 1    
   201  101  223 1    
   202  101  224 1    
   203  102  103 2    
   204  102  104 am   BACKBONE|DICT|INTERRES
   205  104  105 1    
   206  104  225 1    
   207  105  106 1    
   208  105  107 1    
   209  105  226 1    
   210  106  227 1    
   211  106  228 1    
   212  106  229 1    
   213  107  108 2    
   214  107  109 am   BACKBONE|DICT|INTERRES
   215  109  110 1    
   216  109  230 1    
   217  110  111 1    
   218  110  112 1    
   219  110  231 1    
   220  111  232 1    
   221  111  233 1    
   222  111  234 1    
   223  112  113 2    
   224  112  114 am   BACKBONE|DICT|INTERRES
   225  114  115 1    
   226  114  235 1    
   227  115  116 1    
   228  115  117 1    
   229  115  236 1    
   230  116  237 1    
   231  116  238 1    
   232  116  239 1    
   233  117  118 2    
   234  117  119 am   BACKBONE|DICT|INTERRES
   235  119  120 1    
   236  119  240 1    
   237  120  121 1    
   238  120  124 1    
   239  120  241 1    
   240  121  122 am   BACKBONE|DICT|INTERRES
   241  121  123 2    
   242  122  242 1    
   243  122  243 1    
   244  124  125 1    
   245  124  244 1    
   246  124  245 1    
   247  125  126 1    
   248  126  246 1    
   249  126  247 1    
@<TRIPOS>SUBSTRUCTURE
     1 UNK         1 GROUP             0       ****    0 ROOT    
