@<TRIPOS>MOLECULE
3R540
247   249    1
SMALL
USER_CHARGES


@<TRIPOS>ATOM
      1 CA         -5.3989  -14.2489  -46.7445 C.3       0 UNK        -0.1800 
      2 C          -4.0143  -13.6935  -46.4451 C.2       0 UNK         0.5000 
      3 O          -3.2912  -14.2640  -45.6298 O.2       0 UNK        -0.5000 
      4 N          -3.6488  -12.5770  -47.0892 N.am      1 UNK        -0.5000 
      5 CA         -2.3572  -11.8685  -47.0358 C.3       1 UNK         0.1400 
      6 C6         -1.1324  -12.7339  -47.4342 C.3       23 UNK        -0.0398 
      7 S7         -1.3072  -13.5273  -49.0669 S.3       23 UNK        -0.2404 
      8 C8         -0.6912  -15.2034  -48.6935 C.3       23 UNK        -0.0205 
      9 C9         -0.6377  -16.1078  -49.9190 C.ar      23 UNK        -0.0193 
     10 C10        -0.0645  -15.6570  -51.1137 C.ar      23 UNK        -0.1150 
     11 C11        -0.0218  -16.4817  -52.2398 C.ar      23 UNK        -0.0193 
     12 C12        -0.5338  -17.7785  -52.1589 C.ar      23 UNK        -0.1150 
     13 C13        -1.0842  -18.2549  -50.9657 C.ar      23 UNK        -0.0193 
     14 C14        -1.1393  -17.4129  -49.8502 C.ar      23 UNK        -0.1150 
     15 C15        -1.6292  -19.6740  -50.8984 C.3       23 UNK        -0.0205 
     16 S16        -0.2907  -20.9078  -50.8186 S.3       23 UNK        -0.2404 
     17 C17         0.1436  -20.8700  -49.0429 C.3       23 UNK        -0.0398 
     18 CA         -0.2799  -22.1483  -48.2750 C.3       11 UNK         0.1400 
     19 N           0.2540  -22.1543  -46.9122 N.am      11 UNK        -0.5000 
     20 C           0.2182  -23.2051  -46.0809 C.2       10 UNK         0.5000 
     21 O          -0.3245  -24.2768  -46.3453 O.2       10 UNK        -0.5000 
     22 CA          0.8849  -23.0180  -44.7074 C.3       10 UNK         0.1400 
     23 CB          2.4122  -22.9178  -44.8426 C.3       10 UNK        -0.1800 
     24 N           0.3656  -21.8531  -43.9971 N.am      10 UNK        -0.5000 
     25 C          -0.9104  -21.7071  -43.6134 C.2       9 UNK         0.5000 
     26 O          -1.7728  -22.5743  -43.7556 O.2       9 UNK        -0.5000 
     27 CA         -1.3020  -20.3435  -43.0161 C.3       9 UNK         0.1400 
     28 CB         -0.9231  -20.2679  -41.5304 C.3       9 UNK        -0.1800 
     29 N          -0.7039  -19.2165  -43.7339 N.am      9 UNK        -0.5000 
     30 C          -0.9106  -18.9428  -45.0303 C.2       8 UNK         0.5000 
     31 O          -1.6447  -19.5986  -45.7667 O.2       8 UNK        -0.5000 
     32 CA         -0.1215  -17.7662  -45.6179 C.3       8 UNK         0.1400 
     33 CB         -0.7510  -16.4338  -45.1933 C.3       8 UNK        -0.1800 
     34 N           1.2863  -17.8185  -45.2281 N.am      8 UNK        -0.5000 
     35 C           2.1431  -18.7584  -45.6548 C.2       7 UNK         0.5000 
     36 O           1.8509  -19.6295  -46.4756 O.2       7 UNK        -0.5000 
     37 CA          3.5425  -18.7592  -45.0152 C.3       7 UNK         0.1400 
     38 CB          4.4948  -17.8196  -45.7682 C.3       7 UNK        -0.1800 
     39 N           3.5011  -18.3963  -43.5970 N.am      7 UNK        -0.5000 
     40 C           3.0056  -19.1995  -42.6437 C.2       6 UNK         0.5000 
     41 O           2.5574  -20.3225  -42.8692 O.2       6 UNK        -0.5000 
     42 CA          2.9642  -18.6571  -41.2036 C.3       6 UNK         0.1400 
     43 CB          4.2667  -18.9964  -40.4644 C.3       6 UNK        -0.1800 
     44 N           2.7249  -17.2171  -41.1193 N.am      6 UNK        -0.5000 
     45 C           1.6400  -16.5808  -41.5807 C.2       5 UNK         0.5000 
     46 O           0.7095  -17.1505  -42.1529 O.2       5 UNK        -0.5000 
     47 CA          1.5925  -15.0501  -41.3909 C.3       5 UNK         0.1400 
     48 CB          2.5744  -14.5256  -40.3205 C.3       5 UNK        -0.1800 
     49 N           1.7879  -14.3013  -42.6359 N.am      5 UNK        -0.5000 
     50 C           2.7677  -14.4457  -43.5441 C.2       4 UNK         0.5000 
     51 O           3.6016  -15.3519  -43.5180 O.2       4 UNK        -0.5000 
     52 CA          2.8511  -13.3888  -44.6672 C.3       4 UNK         0.1400 
     53 CB          2.3716  -13.9562  -46.0113 C.3       4 UNK        -0.1800 
     54 N           2.0967  -12.1677  -44.3755 N.am      4 UNK        -0.5000 
     55 C           2.4755  -11.2224  -43.5045 C.2       3 UNK         0.5000 
     56 O           3.5453  -11.2428  -42.8951 O.2       3 UNK        -0.5000 
     57 CA          1.4830  -10.0692  -43.2586 C.3       3 UNK         0.1400 
     58 CB          1.8366   -8.8603  -44.1378 C.3       3 UNK        -0.1800 
     59 N           0.0801  -10.4278  -43.4899 N.am      3 UNK        -0.5000 
     60 C          -0.6278  -11.3218  -42.7882 C.2       2 UNK         0.5000 
     61 O          -0.1481  -12.0170  -41.8927 O.2       2 UNK        -0.5000 
     62 CA         -2.1100  -11.4954  -43.1694 C.3       2 UNK         0.1400 
     63 CB         -2.9475  -10.2658  -42.7689 C.3       2 UNK        -0.1800 
     64 N          -2.3203  -11.8613  -44.5747 N.am      2 UNK        -0.5000 
     65 C          -2.0849  -11.1586  -45.6909 C.2       1 UNK         0.5000 
     66 O          -1.6505  -10.0059  -45.6960 O.2       1 UNK        -0.5000 
     67 C          -1.8069  -22.3591  -48.3148 C.2       11 UNK         0.5000 
     68 O          -2.2784  -23.2422  -49.0341 O.2       11 UNK        -0.5000 
     69 N          -2.5477  -21.5181  -47.5835 N.am      12 UNK        -0.5000 
     70 CA         -4.0017  -21.4577  -47.6433 C.3       12 UNK         0.1400 
     71 CB         -4.4884  -20.0540  -47.2448 C.3       12 UNK        -0.1800 
     72 C          -4.6528  -22.5496  -46.7873 C.2       12 UNK         0.5000 
     73 O          -5.3369  -23.4121  -47.3356 O.2       12 UNK        -0.5000 
     74 N          -4.4558  -22.4789  -45.4656 N.am      13 UNK        -0.5000 
     75 CA         -5.1906  -23.2911  -44.4984 C.3       13 UNK         0.1400 
     76 CB         -5.1574  -22.6191  -43.1157 C.3       13 UNK        -0.1800 
     77 C          -4.6956  -24.7434  -44.4297 C.2       13 UNK         0.5000 
     78 O          -5.5089  -25.6610  -44.5450 O.2       13 UNK        -0.5000 
     79 N          -3.3848  -24.9310  -44.2263 N.am      14 UNK        -0.5000 
     80 CA         -2.7889  -26.2474  -43.9893 C.3       14 UNK         0.1400 
     81 CB         -1.3907  -26.0906  -43.3751 C.3       14 UNK        -0.1800 
     82 C          -2.7426  -27.1166  -45.2568 C.2       14 UNK         0.5000 
     83 O          -3.1798  -28.2674  -45.2198 O.2       14 UNK        -0.5000 
     84 N          -2.2228  -26.5525  -46.3545 N.am      15 UNK        -0.5000 
     85 CA         -2.0528  -27.2483  -47.6322 C.3       15 UNK         0.1400 
     86 CB         -0.8315  -26.6669  -48.3544 C.3       15 UNK        -0.1800 
     87 C          -3.3018  -27.2109  -48.5361 C.2       15 UNK         0.5000 
     88 O          -3.2744  -27.8240  -49.6039 O.2       15 UNK        -0.5000 
     89 N          -4.3650  -26.5171  -48.1004 N.am      16 UNK        -0.5000 
     90 CA         -5.6609  -26.3666  -48.7724 C.3       16 UNK         0.1400 
     91 CB         -6.3970  -27.7210  -48.8569 C.3       16 UNK        -0.1800 
     92 C          -5.5335  -25.6532  -50.1351 C.2       16 UNK         0.5000 
     93 O          -5.9222  -26.2055  -51.1660 O.2       16 UNK        -0.5000 
     94 N          -4.9831  -24.4317  -50.0919 N.am      17 UNK        -0.5000 
     95 CA         -4.7135  -23.5246  -51.2119 C.3       17 UNK         0.1400 
     96 CB         -6.0260  -23.0525  -51.8709 C.3       17 UNK        -0.1800 
     97 C          -3.7103  -24.1257  -52.2140 C.2       17 UNK         0.5000 
     98 O          -4.0710  -24.4276  -53.3534 O.2       17 UNK        -0.5000 
     99 N          -2.4600  -24.2881  -51.7561 N.am      18 UNK        -0.5000 
    100 CA        -1.3372  -24.8350  -52.5302 C.3       18 UNK         0.1400 
    101 CB        -0.0821  -24.8899  -51.6475 C.3       18 UNK        -0.1800 
    102 C         -1.0271  -24.0555  -53.8222 C.2       18 UNK         0.5000 
    103 O         -0.6875  -24.6645  -54.8375 O.2       18 UNK        -0.5000 
    104 N         -1.1723  -22.7293  -53.7564 N.am      19 UNK        -0.5000 
    105 CA        -1.0654  -21.8083  -54.8778 C.3       19 UNK         0.1400 
    106 CB         0.2479  -21.0131  -54.7659 C.3       19 UNK        -0.1800 
    107 C         -2.3147  -20.9212  -54.8501 C.2       19 UNK         0.5000 
    108 O         -2.2461  -19.7651  -54.4316 O.2       19 UNK        -0.5000 
    109 N         -3.4564  -21.5006  -55.2452 N.am      20 UNK        -0.5000 
    110 CA        -4.7542  -20.8283  -55.3394 C.3       20 UNK         0.1400 
    111 CB        -5.8079  -21.8286  -55.8379 C.3       20 UNK        -0.1800 
    112 C         -4.6838  -19.5931  -56.2579 C.2       20 UNK         0.5000 
    113 O         -4.2561  -19.7153  -57.4090 O.2       20 UNK        -0.5000 
    114 N         -5.0291  -18.4226  -55.7014 N.am      21 UNK        -0.5000 
    115 CA        -4.9027  -17.0869  -56.3049 C.3       21 UNK         0.1400 
    116 CB        -5.9091  -16.9214  -57.4630 C.3       21 UNK        -0.1800 
    117 C         -3.4548  -16.7258  -56.7184 C.2       21 UNK         0.5000 
    118 O         -3.2595  -15.9170  -57.6273 O.2       21 UNK        -0.5000 
    119 N         -2.4716  -17.3504  -56.0553 N.am      22 UNK        -0.5000 
    120 CA        -1.0324  -17.3089  -56.3589 C.3       22 UNK         0.1400 
    121 C         -0.6390  -18.0124  -57.6944 C.2       22 UNK         0.5000 
    122 N         -1.4898  -18.8436  -58.2876 N.am      22 UNK        -0.7600 
    123 O          0.4704  -17.8329  -58.1894 O.2       22 UNK        -0.5000 
    124 C124       -0.3929  -15.8999  -56.1982 C.3       23 UNK        -0.0398 
    125 S125       -0.7079  -15.1613  -54.5579 S.3       23 UNK        -0.2404 
    126 C126        0.5696  -15.9708  -53.5436 C.3       23 UNK        -0.0205 
    127 H127       -5.9282  -13.6447  -47.4816 H         1 UNK         0.0600 
    128 H128       -5.9965  -14.2768  -45.8334 H         1 UNK         0.0600 
    129 H129       -5.3176  -15.2645  -47.1319 H         1 UNK         0.0600 
    130 H130       -4.3184  -12.1583  -47.7195 H         1 UNK         0.3000 
    131 H131       -2.4426  -11.0752  -47.7804 H         1 UNK         0.0600 
    132 H132       -0.9533  -13.4994  -46.6793 H         1 UNK         0.0800 
    133 H133       -0.2285  -12.1226  -47.4651 H         1 UNK         0.0800 
    134 H134       -1.3381  -15.6405  -47.9317 H         1 UNK         0.0800 
    135 H135        0.3097  -15.1372  -48.2647 H         1 UNK         0.0800 
    136 H136        0.3345  -14.6542  -51.1739 H         1 UNK         0.1150 
    137 H137       -0.5042  -18.4200  -53.0271 H         1 UNK         0.1150 
    138 H138       -1.5730  -17.7751  -48.9286 H         1 UNK         0.1150 
    139 H139       -2.3013  -19.7950  -50.0477 H         1 UNK         0.0800 
    140 H140       -2.2327  -19.8658  -51.7855 H         1 UNK         0.0800 
    141 H141       -0.2725  -19.9787  -48.5708 H         1 UNK         0.0800 
    142 H142        1.2264  -20.7530  -48.9827 H         1 UNK         0.0800 
    143 H143        0.1703  -23.0016  -48.7870 H         1 UNK         0.0600 
    144 H144        0.7171  -21.3038  -46.6076 H         1 UNK         0.3000 
    145 H145        0.6668  -23.8964  -44.1003 H         1 UNK         0.0600 
    146 H146        2.8919  -22.8952  -43.8641 H         1 UNK         0.0600 
    147 H147        2.7150  -22.0210  -45.3829 H         1 UNK         0.0600 
    148 H148        2.8138  -23.7776  -45.3803 H         1 UNK         0.0600 
    149 H149        1.0327  -21.1186  -43.7809 H         1 UNK         0.3000 
    150 H150       -2.3866  -20.2463  -43.0966 H         1 UNK         0.0600 
    151 H151       -1.4079  -21.0642  -40.9642 H         1 UNK         0.0600 
    152 H152       -1.2328  -19.3194  -41.0911 H         1 UNK         0.0600 
    153 H153        0.1521  -20.3695  -41.3842 H         1 UNK         0.0600 
    154 H154       -0.1049  -18.5959  -43.1969 H         1 UNK         0.3000 
    155 H155       -0.1775  -17.8354  -46.7064 H         1 UNK         0.0600 
    156 H156       -0.6891  -16.2651  -44.1192 H         1 UNK         0.0600 
    157 H157       -1.8067  -16.4100  -45.4638 H         1 UNK         0.0600 
    158 H158       -0.2734  -15.5959  -45.6911 H         1 UNK         0.0600 
    159 H159        1.5854  -17.1863  -44.4996 H         1 UNK         0.3000 
    160 H160        3.9418  -19.7724  -45.0971 H         1 UNK         0.0600 
    161 H161        4.1648  -16.7830  -45.7192 H         1 UNK         0.0600 
    162 H162        4.5597  -18.0936  -46.8219 H         1 UNK         0.0600 
    163 H163        5.5028  -17.8688  -45.3564 H         1 UNK         0.0600 
    164 H164        3.7940  -17.4562  -43.3527 H         1 UNK         0.3000 
    165 H165        2.1417  -19.1564  -40.6883 H         1 UNK         0.0600 
    166 H166        4.2147  -18.7012  -39.4162 H         1 UNK         0.0600 
    167 H167        4.4614  -20.0695  -40.4890 H         1 UNK         0.0600 
    168 H168        5.1259  -18.4963  -40.9131 H         1 UNK         0.0600 
    169 H169        3.4536  -16.6643  -40.6923 H         1 UNK         0.3000 
    170 H170        0.5819  -14.8208  -41.0496 H         1 UNK         0.0600 
    171 H171        2.4385  -15.0423  -39.3694 H         1 UNK         0.0600 
    172 H172        3.6157  -14.6425  -40.6231 H         1 UNK         0.0600 
    173 H173        2.4074  -13.4646  -40.1333 H         1 UNK         0.0600 
    174 H174        1.1580  -13.5168  -42.7481 H         1 UNK         0.3000 
    175 H175        3.9060  -13.1269  -44.7736 H         1 UNK         0.0600 
    176 H176        1.2952  -14.1046  -46.0193 H         1 UNK         0.0600 
    177 H177        2.6163  -13.2794  -46.8300 H         1 UNK         0.0600 
    178 H178        2.8406  -14.9144  -46.2342 H         1 UNK         0.0600 
    179 H179        1.2051  -12.0581  -44.8337 H         1 UNK         0.3000 
    180 H180        1.5816   -9.7730  -42.2123 H         1 UNK         0.0600 
    181 H181        1.1995   -8.0060  -43.9080 H         1 UNK         0.0600 
    182 H182        1.7227   -9.0882  -45.1984 H         1 UNK         0.0600 
    183 H183        2.8691   -8.5469  -43.9771 H         1 UNK         0.0600 
    184 H184       -0.4004   -9.9486  -44.2466 H         1 UNK         0.3000 
    185 H185       -2.4834  -12.3414  -42.5899 H         1 UNK         0.0600 
    186 H186       -2.6382   -9.3644  -43.2984 H         1 UNK         0.0600 
    187 H187       -4.0054  -10.4279  -42.9753 H         1 UNK         0.0600 
    188 H188       -2.8522  -10.0633  -41.7014 H         1 UNK         0.0600 
    189 H189       -2.6613  -12.8099  -44.7233 H         1 UNK         0.3000 
    190 H190       -2.0934  -20.8451  -46.9674 H         1 UNK         0.3000 
    191 H191       -4.3146  -21.6168  -48.6764 H         1 UNK         0.0600 
    192 H192       -4.0488  -19.2895  -47.8859 H         1 UNK         0.0600 
    193 H193       -4.2373  -19.8060  -46.2134 H         1 UNK         0.0600 
    194 H194       -5.5718  -19.9769  -47.3432 H         1 UNK         0.0600 
    195 H195       -3.8114  -21.7946  -45.0966 H         1 UNK         0.3000 
    196 H196       -6.2366  -23.3211  -44.8126 H         1 UNK         0.0600 
    197 H197       -5.5801  -21.6151  -43.1560 H         1 UNK         0.0600 
    198 H198       -4.1460  -22.5397  -42.7190 H         1 UNK         0.0600 
    199 H199       -5.7447  -23.1887  -42.3943 H         1 UNK         0.0600 
    200 H200       -2.7772  -24.1186  -44.1403 H         1 UNK         0.3000 
    201 H201       -3.4098  -26.7650  -43.2546 H         1 UNK         0.0600 
    202 H202       -1.4073  -25.4333  -42.5055 H         1 UNK         0.0600 
    203 H203       -0.6821  -25.6838  -44.0933 H         1 UNK         0.0600 
    204 H204       -1.0015  -27.0558  -43.0494 H         1 UNK         0.0600 
    205 H205       -1.8288  -25.6177  -46.2954 H         1 UNK         0.3000 
    206 H206       -1.8399  -28.3010  -47.4345 H         1 UNK         0.0600 
    207 H207       -0.9919  -25.6237  -48.6264 H         1 UNK         0.0600 
    208 H208        0.0598  -26.7173  -47.7289 H         1 UNK         0.0600 
    209 H209       -0.6174  -27.2264  -49.2653 H         1 UNK         0.0600 
    210 H210       -4.2726  -26.0320  -47.2190 H         1 UNK         0.3000 
    211 H211       -6.2665  -25.7191  -48.1377 H         1 UNK         0.0600 
    212 H212       -5.8795  -28.4304  -49.5032 H         1 UNK         0.0600 
    213 H213       -7.4031  -27.5910  -49.2571 H         1 UNK         0.0600 
    214 H214       -6.4962  -28.1763  -47.8715 H         1 UNK         0.0600 
    215 H215       -4.7010  -24.0901  -49.1793 H         1 UNK         0.3000 
    216 H216       -4.2353  -22.6398  -50.7918 H         1 UNK         0.0600 
    217 H217       -5.8255  -22.3041  -52.6378 H         1 UNK         0.0600 
    218 H218       -6.6917  -22.5962  -51.1384 H         1 UNK         0.0600 
    219 H219       -6.5643  -23.8716  -52.3485 H         1 UNK         0.0600 
    220 H220       -2.2695  -24.0199  -50.7936 H         1 UNK         0.3000 
    221 H221       -1.6014  -25.8547  -52.8171 H         1 UNK         0.0600 
    222 H222        0.1706  -23.9109  -51.2402 H         1 UNK         0.0600 
    223 H223       -0.2189  -25.5752  -50.8166 H         1 UNK         0.0600 
    224 H224        0.7815  -25.2438  -52.2124 H         1 UNK         0.0600 
    225 H225       -1.4567  -22.3207  -52.8770 H         1 UNK         0.3000 
    226 H226       -1.0636  -22.3438  -55.8295 H         1 UNK         0.0600 
    227 H227        1.1111  -21.6755  -54.8298 H         1 UNK         0.0600 
    228 H228        0.3348  -20.2869  -55.5744 H         1 UNK         0.0600 
    229 H229        0.3165  -20.4715  -53.8227 H         1 UNK         0.0600 
    230 H230       -3.4318  -22.4659  -55.5406 H         1 UNK         0.3000 
    231 H231       -5.0332  -20.5101  -54.3330 H         1 UNK         0.0600 
    232 H232       -6.7938  -21.3646  -55.8860 H         1 UNK         0.0600 
    233 H233       -5.8847  -22.6878  -55.1710 H         1 UNK         0.0600 
    234 H234       -5.5700  -22.1996  -56.8357 H         1 UNK         0.0600 
    235 H235       -5.3366  -18.4273  -54.7387 H         1 UNK         0.3000 
    236 H236       -5.1766  -16.3736  -55.5263 H         1 UNK         0.0600 
    237 H237       -5.6567  -17.5568  -58.3124 H         1 UNK         0.0600 
    238 H238       -6.9210  -17.1724  -57.1451 H         1 UNK         0.0600 
    239 H239       -5.9300  -15.8914  -57.8207 H         1 UNK         0.0600 
    240 H240       -2.7218  -18.0258  -55.3407 H         1 UNK         0.3000 
    241 H241       -0.5769  -17.9399  -55.5963 H         1 UNK         0.0600 
    242 H242       -1.2166  -19.2956  -59.1456 H         1 UNK         0.3800 
    243 H243       -2.4140  -19.0165  -57.9065 H         1 UNK         0.3800 
    244 H244       -0.7752  -15.2196  -56.9599 H         1 UNK         0.0800 
    245 H245        0.6865  -15.9427  -56.3527 H         1 UNK         0.0800 
    246 H246        1.3719  -15.2592  -53.3431 H         1 UNK         0.0800 
    247 H247        1.0270  -16.7993  -54.0861 H         1 UNK         0.0800 
@<TRIPOS>BOND
     1    1    2 1    
     2    1  127 1    
     3    1  128 1    
     4    1  129 1    
     5    2    3 2    
     6    2    4 am   BACKBONE|DICT|INTERRES
     7    4    5 1    
     8    4  130 1    
     9    5    6 1    
    10    5   65 1    
    11    5  131 1    
    12    6    7 1    
    13    6  132 1    
    14    6  133 1    
    15    7    8 1    
    16    8    9 1    
    17    8  134 1    
    18    8  135 1    
    19    9   10 ar   
    20    9   14 ar   
    21   10   11 ar   
    22   10  136 1    
    23   11   12 ar   
    24   11  126 1    
    25   12   13 ar   
    26   12  137 1    
    27   13   14 ar   
    28   13   15 1    
    29   14  138 1    
    30   15   16 1    
    31   15  139 1    
    32   15  140 1    
    33   16   17 1    
    34   17   18 1    
    35   17  141 1    
    36   17  142 1    
    37   18   19 1    
    38   18   67 1    
    39   18  143 1    
    40   19   20 am   BACKBONE|DICT|INTERRES
    41   19  144 1    
    42   20   21 2    
    43   20   22 1    
    44   22   23 1    
    45   22   24 1    
    46   22  145 1    
    47   23  146 1    
    48   23  147 1    
    49   23  148 1    
    50   24   25 am   BACKBONE|DICT|INTERRES
    51   24  149 1    
    52   25   26 2    
    53   25   27 1    
    54   27   28 1    
    55   27   29 1    
    56   27  150 1    
    57   28  151 1    
    58   28  152 1    
    59   28  153 1    
    60   29   30 am   BACKBONE|DICT|INTERRES
    61   29  154 1    
    62   30   31 2    
    63   30   32 1    
    64   32   33 1    
    65   32   34 1    
    66   32  155 1    
    67   33  156 1    
    68   33  157 1    
    69   33  158 1    
    70   34   35 am   BACKBONE|DICT|INTERRES
    71   34  159 1    
    72   35   36 2    
    73   35   37 1    
    74   37   38 1    
    75   37   39 1    
    76   37  160 1    
    77   38  161 1    
    78   38  162 1    
    79   38  163 1    
    80   39   40 am   BACKBONE|DICT|INTERRES
    81   39  164 1    
    82   40   41 2    
    83   40   42 1    
    84   42   43 1    
    85   42   44 1    
    86   42  165 1    
    87   43  166 1    
    88   43  167 1    
    89   43  168 1    
    90   44   45 am   BACKBONE|DICT|INTERRES
    91   44  169 1    
    92   45   46 2    
    93   45   47 1    
    94   47   48 1    
    95   47   49 1    
    96   47  170 1    
    97   48  171 1    
    98   48  172 1    
    99   48  173 1    
   100   49   50 am   BACKBONE|DICT|INTERRES
   101   49  174 1    
   102   50   51 2    
   103   50   52 1    
   104   52   53 1    
   105   52   54 1    
   106   52  175 1    
   107   53  176 1    
   108   53  177 1    
   109   53  178 1    
   110   54   55 am   BACKBONE|DICT|INTERRES
   111   54  179 1    
   112   55   56 2    
   113   55   57 1    
   114   57   58 1    
   115   57   59 1    
   116   57  180 1    
   117   58  181 1    
   118   58  182 1    
   119   58  183 1    
   120   59   60 am   BACKBONE|DICT|INTERRES
   121   59  184 1    
   122   60   61 2    
   123   60   62 1    
   124   62   63 1    
   125   62   64 1    
   126   62  185 1    
   127   63  186 1    
   128   63  187 1    
   129   63  188 1    
   130   64   65 am   BACKBONE|DICT|INTERRES
   131   64  189 1    
   132   65   66 2    
   133   67   68 2    
   134   67   69 am   BACKBONE|DICT|INTERRES
   135   69   70 1    
   136   69  190 1    
   137   70   71 1    
   138   70   72 1    
   139   70  191 1    
   140   71  192 1    
   141   71  193 1    
   142   71  194 1    
   143   72   73 2    
   144   72   74 am   BACKBONE|DICT|INTERRES
   145   74   75 1    
   146   74  195 1    
   147   75   76 1    
   148   75   77 1    
   149   75  196 1    
   150   76  197 1    
   151   76  198 1    
   152   76  199 1    
   153   77   78 2    
   154   77   79 am   BACKBONE|DICT|INTERRES
   155   79   80 1    
   156   79  200 1    
   157   80   81 1    
   158   80   82 1    
   159   80  201 1    
   160   81  202 1    
   161   81  203 1    
   162   81  204 1    
   163   82   83 2    
   164   82   84 am   BACKBONE|DICT|INTERRES
   165   84   85 1    
   166   84  205 1    
   167   85   86 1    
   168   85   87 1    
   169   85  206 1    
   170   86  207 1    
   171   86  208 1    
   172   86  209 1    
   173   87   88 2    
   174   87   89 am   BACKBONE|DICT|INTERRES
   175   89   90 1    
   176   89  210 1    
   177   90   91 1    
   178   90   92 1    
   179   90  211 1    
   180   91  212 1    
   181   91  213 1    
   182   91  214 1    
   183   92   93 2    
   184   92   94 am   BACKBONE|DICT|INTERRES
   185   94   95 1    
   186   94  215 1    
   187   95   96 1    
   188   95   97 1    
   189   95  216 1    
   190   96  217 1    
   191   96  218 1    
   192   96  219 1    
   193   97   98 2    
   194   97   99 am   BACKBONE|DICT|INTERRES
   195   99  100 1    
   196   99  220 1    
   197  100  101 1    
   198  100  102 1    
   199  100  221 1    
   200  101  222 1    
   201  101  223 1    
   202  101  224 1    
   203  102  103 2    
   204  102  104 am   BACKBONE|DICT|INTERRES
   205  104  105 1    
   206  104  225 1    
   207  105  106 1    
   208  105  107 1    
   209  105  226 1    
   210  106  227 1    
   211  106  228 1    
   212  106  229 1    
   213  107  108 2    
   214  107  109 am   BACKBONE|DICT|INTERRES
   215  109  110 1    
   216  109  230 1    
   217  110  111 1    
   218  110  112 1    
   219  110  231 1    
   220  111  232 1    
   221  111  233 1    
   222  111  234 1    
   223  112  113 2    
   224  112  114 am   BACKBONE|DICT|INTERRES
   225  114  115 1    
   226  114  235 1    
   227  115  116 1    
   228  115  117 1    
   229  115  236 1    
   230  116  237 1    
   231  116  238 1    
   232  116  239 1    
   233  117  118 2    
   234  117  119 am   BACKBONE|DICT|INTERRES
   235  119  120 1    
   236  119  240 1    
   237  120  121 1    
   238  120  124 1    
   239  120  241 1    
   240  121  122 am   BACKBONE|DICT|INTERRES
   241  121  123 2    
   242  122  242 1    
   243  122  243 1    
   244  124  125 1    
   245  124  244 1    
   246  124  245 1    
   247  125  126 1    
   248  126  246 1    
   249  126  247 1    
@<TRIPOS>SUBSTRUCTURE
     1 UNK         1 GROUP             0       ****    0 ROOT    
