@<TRIPOS>MOLECULE
3R540
247   249    1
SMALL
USER_CHARGES


@<TRIPOS>ATOM
      1 CA         -1.2583  -14.8709  -45.2339 C.3       0 UNK        -0.1800 
      2 C          -1.6903  -13.4354  -45.4850 C.2       0 UNK         0.5000 
      3 O          -1.7733  -12.6533  -44.5384 O.2       0 UNK        -0.5000 
      4 N          -1.9581  -13.0803  -46.7496 N.am      1 UNK        -0.5000 
      5 CA         -2.3132  -11.7169  -47.1703 C.3       1 UNK         0.1400 
      6 C6         -2.9624  -11.6854  -48.5772 C.3       23 UNK        -0.0398 
      7 S7         -1.8971  -12.2931  -49.9369 S.3       23 UNK        -0.2404 
      8 C8         -2.8323  -13.7229  -50.5677 C.3       23 UNK        -0.0205 
      9 C9         -2.5452  -14.9844  -49.7693 C.ar      23 UNK        -0.0193 
     10 C10        -1.4342  -15.7707  -50.0866 C.ar      23 UNK        -0.1150 
     11 C11        -1.1648  -16.9392  -49.3704 C.ar      23 UNK        -0.0193 
     12 C12        -2.0068  -17.3050  -48.3197 C.ar      23 UNK        -0.1150 
     13 C13        -3.1312  -16.5381  -47.9939 C.ar      23 UNK        -0.0193 
     14 C14        -3.3919  -15.3762  -48.7282 C.ar      23 UNK        -0.1150 
     15 C15        -4.0529  -16.9214  -46.8371 C.3       23 UNK        -0.0205 
     16 S16        -4.5948  -18.6651  -46.8497 S.3       23 UNK        -0.2404 
     17 C17        -3.2402  -19.4857  -45.9432 C.3       23 UNK        -0.0398 
     18 CA         -2.6755  -20.7216  -46.6975 C.3       11 UNK         0.1400 
     19 N          -1.2183  -20.8399  -46.5499 N.am      11 UNK        -0.5000 
     20 C          -0.4451  -21.7872  -47.1011 C.2       10 UNK         0.5000 
     21 O          -0.8726  -22.6695  -47.8389 O.2       10 UNK        -0.5000 
     22 CA          1.0442  -21.8096  -46.7071 C.3       10 UNK         0.1400 
     23 CB          1.8725  -20.9102  -47.6341 C.3       10 UNK        -0.1800 
     24 N           1.2673  -21.4440  -45.3063 N.am      10 UNK        -0.5000 
     25 C           0.8007  -22.1479  -44.2630 C.2       9 UNK         0.5000 
     26 O           0.1832  -23.2074  -44.3781 O.2       9 UNK        -0.5000 
     27 CA          0.9990  -21.5348  -42.8639 C.3       9 UNK         0.1400 
     28 CB          2.4099  -21.8192  -42.3282 C.3       9 UNK        -0.1800 
     29 N           0.7525  -20.0931  -42.8565 N.am      9 UNK        -0.5000 
     30 C          -0.4363  -19.5245  -43.1027 C.2       8 UNK         0.5000 
     31 O          -1.4793  -20.1593  -43.2619 O.2       8 UNK        -0.5000 
     32 CA         -0.4435  -17.9944  -43.2736 C.3       8 UNK         0.1400 
     33 CB         -0.5253  -17.2733  -41.9199 C.3       8 UNK        -0.1800 
     34 N           0.7242  -17.5271  -44.0261 N.am      8 UNK        -0.5000 
     35 C           0.9064  -17.7602  -45.3338 C.2       7 UNK         0.5000 
     36 O           0.0895  -18.3582  -46.0273 O.2       7 UNK        -0.5000 
     37 CA          2.2168  -17.2735  -45.9762 C.3       7 UNK         0.1400 
     38 CB          2.0241  -15.8816  -46.5799 C.3       7 UNK        -0.1800 
     39 N           3.3426  -17.2540  -45.0438 N.am      7 UNK        -0.5000 
     40 C           3.9123  -18.3591  -44.5457 C.2       6 UNK         0.5000 
     41 O           3.5676  -19.5011  -44.8523 O.2       6 UNK        -0.5000 
     42 CA          4.9909  -18.1466  -43.4671 C.3       6 UNK         0.1400 
     43 CB          6.3218  -17.7043  -44.0937 C.3       6 UNK        -0.1800 
     44 N           4.5821  -17.1843  -42.4369 N.am      6 UNK        -0.5000 
     45 C           3.5076  -17.3335  -41.6483 C.2       5 UNK         0.5000 
     46 O           2.7479  -18.2983  -41.7240 O.2       5 UNK        -0.5000 
     47 CA          3.1949  -16.2297  -40.6196 C.3       5 UNK         0.1400 
     48 CB          3.3076  -16.7893  -39.1931 C.3       5 UNK        -0.1800 
     49 N           4.0600  -15.0513  -40.7234 N.am      5 UNK        -0.5000 
     50 C           3.9328  -13.9906  -41.5334 C.2       4 UNK         0.5000 
     51 O           4.7243  -13.0493  -41.4603 O.2       4 UNK        -0.5000 
     52 CA          2.7768  -13.9175  -42.5631 C.3       4 UNK         0.1400 
     53 CB          1.5164  -13.2955  -41.9405 C.3       4 UNK        -0.1800 
     54 N           3.1681  -13.1068  -43.7170 N.am      4 UNK        -0.5000 
     55 C           4.0750  -13.4804  -44.6288 C.2       3 UNK         0.5000 
     56 O           4.5341  -14.6235  -44.6857 O.2       3 UNK        -0.5000 
     57 CA          4.5503  -12.3877  -45.6136 C.3       3 UNK         0.1400 
     58 CB          5.2861  -12.9633  -46.8429 C.3       3 UNK        -0.1800 
     59 N           3.4849  -11.4536  -46.0113 N.am      3 UNK        -0.5000 
     60 C           2.3884  -11.7565  -46.7191 C.2       2 UNK         0.5000 
     61 O           2.1493  -12.8764  -47.1744 O.2       2 UNK        -0.5000 
     62 CA          1.3808  -10.6250  -46.9668 C.3       2 UNK         0.1400 
     63 CB          1.7709   -9.7825  -48.1933 C.3       2 UNK        -0.1800 
     64 N           0.0929  -11.2655  -47.1841 N.am      2 UNK        -0.5000 
     65 C          -1.1245  -10.7332  -47.0495 C.2       1 UNK         0.5000 
     66 O          -1.3314   -9.5429  -46.8081 O.2       1 UNK        -0.5000 
     67 C          -3.4243  -21.9949  -46.2503 C.2       11 UNK         0.5000 
     68 O          -4.3839  -22.4010  -46.9056 O.2       11 UNK        -0.5000 
     69 N          -2.9636  -22.5894  -45.1399 N.am      12 UNK        -0.5000 
     70 CA         -3.5112  -23.8152  -44.5627 C.3       12 UNK         0.1400 
     71 CB         -3.1038  -23.8982  -43.0835 C.3       12 UNK        -0.1800 
     72 C          -3.0719  -25.0808  -45.3217 C.2       12 UNK         0.5000 
     73 O          -3.8323  -26.0486  -45.3650 O.2       12 UNK        -0.5000 
     74 N          -1.8602  -25.0614  -45.8955 N.am      13 UNK        -0.5000 
     75 CA         -1.3337  -26.1307  -46.7468 C.3       13 UNK         0.1400 
     76 CB          0.1883  -25.9710  -46.8858 C.3       13 UNK        -0.1800 
     77 C          -2.0155  -26.1544  -48.1287 C.2       13 UNK         0.5000 
     78 O          -2.3250  -27.2308  -48.6421 O.2       13 UNK        -0.5000 
     79 N          -2.2473  -24.9619  -48.6888 N.am      14 UNK        -0.5000 
     80 CA         -3.0054  -24.7121  -49.9104 C.3       14 UNK         0.1400 
     81 CB         -2.7602  -23.2508  -50.3303 C.3       14 UNK        -0.1800 
     82 C          -4.5116  -24.9728  -49.7268 C.2       14 UNK         0.5000 
     83 O          -4.9982  -25.1139  -48.6018 O.2       14 UNK        -0.5000 
     84 N          -5.2525  -24.9674  -50.8403 N.am      15 UNK        -0.5000 
     85 CA         -6.7140  -25.0250  -50.8655 C.3       15 UNK         0.1400 
     86 CB         -7.1677  -25.5807  -52.2271 C.3       15 UNK        -0.1800 
     87 C          -7.2958  -23.6285  -50.5694 C.2       15 UNK         0.5000 
     88 O          -7.8690  -22.9971  -51.4575 O.2       15 UNK        -0.5000 
     89 N          -7.0561  -23.1342  -49.3448 N.am      16 UNK        -0.5000 
     90 CA         -7.4009  -21.7963  -48.8414 C.3       16 UNK         0.1400 
     91 CB         -8.9270  -21.6714  -48.6545 C.3       16 UNK        -0.1800 
     92 C          -6.8079  -20.6574  -49.7026 C.2       16 UNK         0.5000 
     93 O          -7.4417  -19.6155  -49.8751 O.2       16 UNK        -0.5000 
     94 N          -5.6172  -20.9162  -50.2644 N.am      17 UNK        -0.5000 
     95 CA         -4.8615  -20.0909  -51.2129 C.3       17 UNK         0.1400 
     96 CB         -4.4514  -18.7485  -50.5745 C.3       17 UNK        -0.1800 
     97 C          -5.5211  -19.9107  -52.5993 C.2       17 UNK         0.5000 
     98 O          -5.0132  -19.1271  -53.4024 O.2       17 UNK        -0.5000 
     99 N          -6.6095  -20.6405  -52.8892 N.am      18 UNK        -0.5000 
    100 CA        -7.2814  -20.6185  -54.1918 C.3       18 UNK         0.1400 
    101 CB        -8.7487  -21.0393  -54.0170 C.3       18 UNK        -0.1800 
    102 C         -6.5818  -21.5196  -55.2271 C.2       18 UNK         0.5000 
    103 O         -6.6979  -21.2670  -56.4270 O.2       18 UNK        -0.5000 
    104 N         -5.8698  -22.5455  -54.7493 N.am      19 UNK        -0.5000 
    105 CA        -5.1025  -23.5105  -55.5274 C.3       19 UNK         0.1400 
    106 CB        -6.0496  -24.5248  -56.1983 C.3       19 UNK        -0.1800 
    107 C         -4.1115  -24.2138  -54.5882 C.2       19 UNK         0.5000 
    108 O         -4.2544  -24.1091  -53.3665 O.2       19 UNK        -0.5000 
    109 N         -3.1525  -24.9403  -55.1799 N.am      20 UNK        -0.5000 
    110 CA        -2.0726  -25.6819  -54.5171 C.3       20 UNK         0.1400 
    111 CB        -2.6339  -26.8147  -53.6290 C.3       20 UNK        -0.1800 
    112 C         -1.1045  -24.7379  -53.7750 C.2       20 UNK         0.5000 
    113 O         -0.9490  -24.8408  -52.5593 O.2       20 UNK        -0.5000 
    114 N         -0.4795  -23.8418  -54.5523 N.am      21 UNK        -0.5000 
    115 CA         0.3846  -22.7217  -54.1540 C.3       21 UNK         0.1400 
    116 CB         1.4263  -23.1103  -53.0800 C.3       21 UNK        -0.1800 
    117 C         -0.4252  -21.4636  -53.7798 C.2       21 UNK         0.5000 
    118 O         -1.6568  -21.4739  -53.8399 O.2       21 UNK        -0.5000 
    119 N          0.3025  -20.3806  -53.4719 N.am      22 UNK        -0.5000 
    120 CA        -0.2017  -19.0118  -53.2380 C.3       22 UNK         0.1400 
    121 C         -0.7466  -18.2916  -54.5125 C.2       22 UNK         0.5000 
    122 N         -0.5186  -18.8020  -55.7169 N.am      22 UNK        -0.7600 
    123 O         -1.3475  -17.2250  -54.4186 O.2       22 UNK        -0.5000 
    124 C124       -1.1806  -18.8984  -52.0367 C.3       23 UNK        -0.0398 
    125 S125       -0.4467  -19.4131  -50.4456 S.3       23 UNK        -0.2404 
    126 C126        0.0357  -17.8080  -49.7222 C.3       23 UNK        -0.0205 
    127 H127       -2.0069  -15.3889  -44.6358 H         1 UNK         0.0600 
    128 H128       -0.3199  -14.8812  -44.6807 H         1 UNK         0.0600 
    129 H129       -1.1131  -15.4220  -46.1628 H         1 UNK         0.0600 
    130 H130       -1.8804  -13.7612  -47.4932 H         1 UNK         0.3000 
    131 H131       -3.0718  -11.3580  -46.4711 H         1 UNK         0.0600 
    132 H132       -3.8873  -12.2621  -48.5551 H         1 UNK         0.0800 
    133 H133       -3.2683  -10.6668  -48.8220 H         1 UNK         0.0800 
    134 H134       -2.5532  -13.8864  -51.6098 H         1 UNK         0.0800 
    135 H135       -3.9009  -13.5032  -50.5776 H         1 UNK         0.0800 
    136 H136       -0.7832  -15.4739  -50.8970 H         1 UNK         0.1150 
    137 H137       -1.7805  -18.2072  -47.7778 H         1 UNK         0.1150 
    138 H138       -4.2536  -14.7701  -48.4863 H         1 UNK         0.1150 
    139 H139       -3.5639  -16.6924  -45.8909 H         1 UNK         0.0800 
    140 H140       -4.9526  -16.3050  -46.8634 H         1 UNK         0.0800 
    141 H141       -2.4540  -18.7557  -45.7626 H         1 UNK         0.0800 
    142 H142       -3.5999  -19.7406  -44.9442 H         1 UNK         0.0800 
    143 H143       -2.8519  -20.5980  -47.7685 H         1 UNK         0.0600 
    144 H144       -0.7576  -20.1010  -46.0282 H         1 UNK         0.3000 
    145 H145        1.4033  -22.8328  -46.8333 H         1 UNK         0.0600 
    146 H146        2.9245  -20.9024  -47.3488 H         1 UNK         0.0600 
    147 H147        1.8144  -21.2621  -48.6649 H         1 UNK         0.0600 
    148 H148        1.5110  -19.8846  -47.6263 H         1 UNK         0.0600 
    149 H149        1.8137  -20.6086  -45.1285 H         1 UNK         0.3000 
    150 H150        0.2783  -22.0030  -42.1901 H         1 UNK         0.0600 
    151 H151        2.6054  -22.8916  -42.2951 H         1 UNK         0.0600 
    152 H152        2.5308  -21.4336  -41.3157 H         1 UNK         0.0600 
    153 H153        3.1795  -21.3636  -42.9514 H         1 UNK         0.0600 
    154 H154        1.5528  -19.4922  -42.6815 H         1 UNK         0.3000 
    155 H155       -1.3372  -17.7288  -43.8417 H         1 UNK         0.0600 
    156 H156       -0.5069  -16.1905  -42.0457 H         1 UNK         0.0600 
    157 H157        0.2922  -17.5516  -41.2562 H         1 UNK         0.0600 
    158 H158       -1.4546  -17.5245  -41.4075 H         1 UNK         0.0600 
    159 H159        1.4673  -17.0924  -43.5035 H         1 UNK         0.3000 
    160 H160        2.4652  -17.9564  -46.7897 H         1 UNK         0.0600 
    161 H161        1.8000  -15.1426  -45.8111 H         1 UNK         0.0600 
    162 H162        1.2023  -15.8702  -47.2973 H         1 UNK         0.0600 
    163 H163        2.9199  -15.5543  -47.1077 H         1 UNK         0.0600 
    164 H164        3.7242  -16.3446  -44.7942 H         1 UNK         0.3000 
    165 H165        5.1531  -19.1076  -42.9744 H         1 UNK         0.0600 
    166 H166        7.1098  -17.6441  -43.3429 H         1 UNK         0.0600 
    167 H167        6.6506  -18.4156  -44.8524 H         1 UNK         0.0600 
    168 H168        6.2408  -16.7283  -44.5730 H         1 UNK         0.0600 
    169 H169        5.1560  -16.3605  -42.3298 H         1 UNK         0.3000 
    170 H170        2.1568  -15.9338  -40.7701 H         1 UNK         0.0600 
    171 H171        2.6451  -17.6447  -39.0520 H         1 UNK         0.0600 
    172 H172        4.3224  -17.1202  -38.9686 H         1 UNK         0.0600 
    173 H173        3.0268  -16.0404  -38.4522 H         1 UNK         0.0600 
    174 H174        4.8355  -15.0442  -40.0769 H         1 UNK         0.3000 
    175 H175        2.5338  -14.9167  -42.9251 H         1 UNK         0.0600 
    176 H176        0.6973  -13.2634  -42.6599 H         1 UNK         0.0600 
    177 H177        1.1676  -13.8679  -41.0811 H         1 UNK         0.0600 
    178 H178        1.6999  -12.2764  -41.5977 H         1 UNK         0.0600 
    179 H179        2.8584  -12.1466  -43.7177 H         1 UNK         0.3000 
    180 H180        5.2761  -11.7921  -45.0582 H         1 UNK         0.0600 
    181 H181        5.6176  -12.1695  -47.5120 H         1 UNK         0.0600 
    182 H182        4.6556  -13.6441  -47.4150 H         1 UNK         0.0600 
    183 H183        6.1721  -13.5221  -46.5395 H         1 UNK         0.0600 
    184 H184        3.5993  -10.5029  -45.6874 H         1 UNK         0.3000 
    185 H185        1.3254   -9.9936  -46.0778 H         1 UNK         0.0600 
    186 H186        1.8249  -10.3921  -49.0963 H         1 UNK         0.0600 
    187 H187        1.0503   -8.9843  -48.3717 H         1 UNK         0.0600 
    188 H188        2.7458   -9.3144  -48.0525 H         1 UNK         0.0600 
    189 H189        0.1746  -12.2597  -47.3635 H         1 UNK         0.3000 
    190 H190       -2.1677  -22.1808  -44.6673 H         1 UNK         0.3000 
    191 H191       -4.6011  -23.7622  -44.6105 H         1 UNK         0.0600 
    192 H192       -2.0214  -23.9564  -42.9651 H         1 UNK         0.0600 
    193 H193       -3.5333  -24.7819  -42.6100 H         1 UNK         0.0600 
    194 H194       -3.4546  -23.0281  -42.5283 H         1 UNK         0.0600 
    195 H195       -1.2795  -24.2414  -45.7742 H         1 UNK         0.3000 
    196 H196       -1.5291  -27.0876  -46.2581 H         1 UNK         0.0600 
    197 H197        0.6137  -26.7934  -47.4619 H         1 UNK         0.0600 
    198 H198        0.6761  -25.9678  -45.9107 H         1 UNK         0.0600 
    199 H199        0.4525  -25.0444  -47.3954 H         1 UNK         0.0600 
    200 H200       -1.9020  -24.1322  -48.2124 H         1 UNK         0.3000 
    201 H201       -2.6371  -25.3827  -50.6867 H         1 UNK         0.0600 
    202 H202       -1.6981  -23.0606  -50.4879 H         1 UNK         0.0600 
    203 H203       -3.1130  -22.5499  -49.5731 H         1 UNK         0.0600 
    204 H204       -3.2625  -23.0099  -51.2657 H         1 UNK         0.0600 
    205 H205       -4.8018  -24.7693  -51.7326 H         1 UNK         0.3000 
    206 H206       -7.0680  -25.7085  -50.0909 H         1 UNK         0.0600 
    207 H207       -6.7430  -26.5673  -52.4125 H         1 UNK         0.0600 
    208 H208       -8.2531  -25.6796  -52.2650 H         1 UNK         0.0600 
    209 H209       -6.8702  -24.9293  -53.0485 H         1 UNK         0.0600 
    210 H210       -6.5058  -23.7116  -48.7152 H         1 UNK         0.3000 
    211 H211       -6.9368  -21.7066  -47.8582 H         1 UNK         0.0600 
    212 H212       -9.4543  -21.6971  -49.6087 H         1 UNK         0.0600 
    213 H213       -9.1859  -20.7334  -48.1622 H         1 UNK         0.0600 
    214 H214       -9.3154  -22.4793  -48.0345 H         1 UNK         0.0600 
    215 H215       -5.2068  -21.8131  -50.0511 H         1 UNK         0.3000 
    216 H216       -3.9437  -20.6448  -51.4101 H         1 UNK         0.0600 
    217 H217       -3.8788  -18.1282  -51.2632 H         1 UNK         0.0600 
    218 H218       -3.8203  -18.9216  -49.7049 H         1 UNK         0.0600 
    219 H219       -5.3098  -18.1581  -50.2559 H         1 UNK         0.0600 
    220 H220       -6.9885  -21.2778  -52.1968 H         1 UNK         0.3000 
    221 H221       -7.2728  -19.5970  -54.5779 H         1 UNK         0.0600 
    222 H222       -8.8376  -22.0839  -53.7178 H         1 UNK         0.0600 
    223 H223       -9.2494  -20.4296  -53.2646 H         1 UNK         0.0600 
    224 H224       -9.2990  -20.9220  -54.9512 H         1 UNK         0.0600 
    225 H225       -5.7814  -22.6657  -53.7483 H         1 UNK         0.3000 
    226 H226       -4.5310  -22.9765  -56.2892 H         1 UNK         0.0600 
    227 H227       -6.7417  -24.0329  -56.8816 H         1 UNK         0.0600 
    228 H228       -5.4936  -25.2593  -56.7816 H         1 UNK         0.0600 
    229 H229       -6.6404  -25.0706  -55.4623 H         1 UNK         0.0600 
    230 H230       -3.1336  -24.9659  -56.1898 H         1 UNK         0.3000 
    231 H231       -1.4918  -26.1569  -55.3094 H         1 UNK         0.0600 
    232 H232       -3.2712  -27.4854  -54.2050 H         1 UNK         0.0600 
    233 H233       -3.2204  -26.4354  -52.7931 H         1 UNK         0.0600 
    234 H234       -1.8254  -27.4149  -53.2102 H         1 UNK         0.0600 
    235 H235       -0.7241  -23.8444  -55.5321 H         1 UNK         0.3000 
    236 H236        0.9395  -22.4638  -55.0572 H         1 UNK         0.0600 
    237 H237        2.2221  -22.3680  -53.0160 H         1 UNK         0.0600 
    238 H238        0.9789  -23.1857  -52.0881 H         1 UNK         0.0600 
    239 H239        1.8986  -24.0651  -53.3112 H         1 UNK         0.0600 
    240 H240        1.3080  -20.4697  -53.4545 H         1 UNK         0.3000 
    241 H241        0.6821  -18.4306  -52.9731 H         1 UNK         0.0600 
    242 H242       -0.8625  -18.3172  -56.5310 H         1 UNK         0.3800 
    243 H243       -0.0084  -19.6628  -55.8255 H         1 UNK         0.3800 
    244 H244       -1.5455  -17.8771  -51.9340 H         1 UNK         0.0800 
    245 H245       -2.0665  -19.5040  -52.2182 H         1 UNK         0.0800 
    246 H246        0.7040  -17.2888  -50.4106 H         1 UNK         0.0800 
    247 H247        0.6132  -17.9908  -48.8159 H         1 UNK         0.0800 
@<TRIPOS>BOND
     1    1    2 1    
     2    1  127 1    
     3    1  128 1    
     4    1  129 1    
     5    2    3 2    
     6    2    4 am   BACKBONE|DICT|INTERRES
     7    4    5 1    
     8    4  130 1    
     9    5    6 1    
    10    5   65 1    
    11    5  131 1    
    12    6    7 1    
    13    6  132 1    
    14    6  133 1    
    15    7    8 1    
    16    8    9 1    
    17    8  134 1    
    18    8  135 1    
    19    9   10 ar   
    20    9   14 ar   
    21   10   11 ar   
    22   10  136 1    
    23   11   12 ar   
    24   11  126 1    
    25   12   13 ar   
    26   12  137 1    
    27   13   14 ar   
    28   13   15 1    
    29   14  138 1    
    30   15   16 1    
    31   15  139 1    
    32   15  140 1    
    33   16   17 1    
    34   17   18 1    
    35   17  141 1    
    36   17  142 1    
    37   18   19 1    
    38   18   67 1    
    39   18  143 1    
    40   19   20 am   BACKBONE|DICT|INTERRES
    41   19  144 1    
    42   20   21 2    
    43   20   22 1    
    44   22   23 1    
    45   22   24 1    
    46   22  145 1    
    47   23  146 1    
    48   23  147 1    
    49   23  148 1    
    50   24   25 am   BACKBONE|DICT|INTERRES
    51   24  149 1    
    52   25   26 2    
    53   25   27 1    
    54   27   28 1    
    55   27   29 1    
    56   27  150 1    
    57   28  151 1    
    58   28  152 1    
    59   28  153 1    
    60   29   30 am   BACKBONE|DICT|INTERRES
    61   29  154 1    
    62   30   31 2    
    63   30   32 1    
    64   32   33 1    
    65   32   34 1    
    66   32  155 1    
    67   33  156 1    
    68   33  157 1    
    69   33  158 1    
    70   34   35 am   BACKBONE|DICT|INTERRES
    71   34  159 1    
    72   35   36 2    
    73   35   37 1    
    74   37   38 1    
    75   37   39 1    
    76   37  160 1    
    77   38  161 1    
    78   38  162 1    
    79   38  163 1    
    80   39   40 am   BACKBONE|DICT|INTERRES
    81   39  164 1    
    82   40   41 2    
    83   40   42 1    
    84   42   43 1    
    85   42   44 1    
    86   42  165 1    
    87   43  166 1    
    88   43  167 1    
    89   43  168 1    
    90   44   45 am   BACKBONE|DICT|INTERRES
    91   44  169 1    
    92   45   46 2    
    93   45   47 1    
    94   47   48 1    
    95   47   49 1    
    96   47  170 1    
    97   48  171 1    
    98   48  172 1    
    99   48  173 1    
   100   49   50 am   BACKBONE|DICT|INTERRES
   101   49  174 1    
   102   50   51 2    
   103   50   52 1    
   104   52   53 1    
   105   52   54 1    
   106   52  175 1    
   107   53  176 1    
   108   53  177 1    
   109   53  178 1    
   110   54   55 am   BACKBONE|DICT|INTERRES
   111   54  179 1    
   112   55   56 2    
   113   55   57 1    
   114   57   58 1    
   115   57   59 1    
   116   57  180 1    
   117   58  181 1    
   118   58  182 1    
   119   58  183 1    
   120   59   60 am   BACKBONE|DICT|INTERRES
   121   59  184 1    
   122   60   61 2    
   123   60   62 1    
   124   62   63 1    
   125   62   64 1    
   126   62  185 1    
   127   63  186 1    
   128   63  187 1    
   129   63  188 1    
   130   64   65 am   BACKBONE|DICT|INTERRES
   131   64  189 1    
   132   65   66 2    
   133   67   68 2    
   134   67   69 am   BACKBONE|DICT|INTERRES
   135   69   70 1    
   136   69  190 1    
   137   70   71 1    
   138   70   72 1    
   139   70  191 1    
   140   71  192 1    
   141   71  193 1    
   142   71  194 1    
   143   72   73 2    
   144   72   74 am   BACKBONE|DICT|INTERRES
   145   74   75 1    
   146   74  195 1    
   147   75   76 1    
   148   75   77 1    
   149   75  196 1    
   150   76  197 1    
   151   76  198 1    
   152   76  199 1    
   153   77   78 2    
   154   77   79 am   BACKBONE|DICT|INTERRES
   155   79   80 1    
   156   79  200 1    
   157   80   81 1    
   158   80   82 1    
   159   80  201 1    
   160   81  202 1    
   161   81  203 1    
   162   81  204 1    
   163   82   83 2    
   164   82   84 am   BACKBONE|DICT|INTERRES
   165   84   85 1    
   166   84  205 1    
   167   85   86 1    
   168   85   87 1    
   169   85  206 1    
   170   86  207 1    
   171   86  208 1    
   172   86  209 1    
   173   87   88 2    
   174   87   89 am   BACKBONE|DICT|INTERRES
   175   89   90 1    
   176   89  210 1    
   177   90   91 1    
   178   90   92 1    
   179   90  211 1    
   180   91  212 1    
   181   91  213 1    
   182   91  214 1    
   183   92   93 2    
   184   92   94 am   BACKBONE|DICT|INTERRES
   185   94   95 1    
   186   94  215 1    
   187   95   96 1    
   188   95   97 1    
   189   95  216 1    
   190   96  217 1    
   191   96  218 1    
   192   96  219 1    
   193   97   98 2    
   194   97   99 am   BACKBONE|DICT|INTERRES
   195   99  100 1    
   196   99  220 1    
   197  100  101 1    
   198  100  102 1    
   199  100  221 1    
   200  101  222 1    
   201  101  223 1    
   202  101  224 1    
   203  102  103 2    
   204  102  104 am   BACKBONE|DICT|INTERRES
   205  104  105 1    
   206  104  225 1    
   207  105  106 1    
   208  105  107 1    
   209  105  226 1    
   210  106  227 1    
   211  106  228 1    
   212  106  229 1    
   213  107  108 2    
   214  107  109 am   BACKBONE|DICT|INTERRES
   215  109  110 1    
   216  109  230 1    
   217  110  111 1    
   218  110  112 1    
   219  110  231 1    
   220  111  232 1    
   221  111  233 1    
   222  111  234 1    
   223  112  113 2    
   224  112  114 am   BACKBONE|DICT|INTERRES
   225  114  115 1    
   226  114  235 1    
   227  115  116 1    
   228  115  117 1    
   229  115  236 1    
   230  116  237 1    
   231  116  238 1    
   232  116  239 1    
   233  117  118 2    
   234  117  119 am   BACKBONE|DICT|INTERRES
   235  119  120 1    
   236  119  240 1    
   237  120  121 1    
   238  120  124 1    
   239  120  241 1    
   240  121  122 am   BACKBONE|DICT|INTERRES
   241  121  123 2    
   242  122  242 1    
   243  122  243 1    
   244  124  125 1    
   245  124  244 1    
   246  124  245 1    
   247  125  126 1    
   248  126  246 1    
   249  126  247 1    
@<TRIPOS>SUBSTRUCTURE
     1 UNK         1 GROUP             0       ****    0 ROOT    
