@<TRIPOS>MOLECULE
3R540
247   249    1
SMALL
USER_CHARGES


@<TRIPOS>ATOM
      1 CA          3.6886  -14.4553  -50.0437 C.3       0 UNK        -0.1800 
      2 C           2.9657  -13.5240  -49.0810 C.2       0 UNK         0.5000 
      3 O           3.5054  -13.1943  -48.0259 O.2       0 UNK        -0.5000 
      4 N           1.7462  -13.1096  -49.4399 N.am      1 UNK        -0.5000 
      5 CA          0.9020  -12.1846  -48.6797 C.3       1 UNK         0.1400 
      6 C6         -0.6049  -12.3386  -49.0324 C.3       23 UNK        -0.0398 
      7 S7         -0.9739  -12.5017  -50.8198 S.3       23 UNK        -0.2404 
      8 C8         -2.3260  -13.7354  -50.8171 C.3       23 UNK        -0.0205 
      9 C9         -1.8957  -15.2052  -50.7811 C.ar      23 UNK        -0.0193 
     10 C10        -2.7469  -16.1694  -51.3320 C.ar      23 UNK        -0.1150 
     11 C11        -2.4159  -17.5277  -51.2965 C.ar      23 UNK        -0.0193 
     12 C12        -1.2217  -17.9284  -50.6912 C.ar      23 UNK        -0.1150 
     13 C13        -0.3577  -16.9804  -50.1373 C.ar      23 UNK        -0.0193 
     14 C14        -0.7012  -15.6283  -50.1867 C.ar      23 UNK        -0.1150 
     15 C15         0.9433  -17.4119  -49.4738 C.3       23 UNK        -0.0205 
     16 S16         0.9737  -17.0791  -47.6781 S.3       23 UNK        -0.2404 
     17 C17        -0.5749  -17.8571  -47.1057 C.3       23 UNK        -0.0398 
     18 CA         -0.5392  -19.4016  -47.1697 C.3       11 UNK         0.1400 
     19 N           0.3548  -20.0001  -46.1729 N.am      11 UNK        -0.5000 
     20 C           0.6896  -21.2984  -46.1474 C.2       10 UNK         0.5000 
     21 O           0.3262  -22.1111  -46.9973 O.2       10 UNK        -0.5000 
     22 CA          1.5215  -21.7881  -44.9482 C.3       10 UNK         0.1400 
     23 CB          3.0100  -21.4606  -45.1372 C.3       10 UNK        -0.1800 
     24 N           1.0456  -21.2450  -43.6751 N.am      10 UNK        -0.5000 
     25 C          -0.1605  -21.5006  -43.1470 C.2       9 UNK         0.5000 
     26 O          -0.9756  -22.2718  -43.6523 O.2       9 UNK        -0.5000 
     27 CA         -0.5460  -20.7259  -41.8722 C.3       9 UNK         0.1400 
     28 CB          0.0510  -21.3877  -40.6222 C.3       9 UNK        -0.1800 
     29 N          -0.1476  -19.3186  -41.9278 N.am      9 UNK        -0.5000 
     30 C          -0.6110  -18.4368  -42.8253 C.2       8 UNK         0.5000 
     31 O          -1.4713  -18.7005  -43.6641 O.2       8 UNK        -0.5000 
     32 CA          0.0351  -17.0422  -42.8263 C.3       8 UNK         0.1400 
     33 CB         -0.6244  -16.1336  -41.7807 C.3       8 UNK        -0.1800 
     34 N           1.4834  -17.1059  -42.6166 N.am      8 UNK        -0.5000 
     35 C           2.3352  -17.6472  -43.5004 C.2       7 UNK         0.5000 
     36 O           1.9885  -18.0863  -44.5955 O.2       7 UNK        -0.5000 
     37 CA          3.8042  -17.7810  -43.0640 C.3       7 UNK         0.1400 
     38 CB          4.5885  -16.4844  -43.3116 C.3       7 UNK        -0.1800 
     39 N           3.9197  -18.1763  -41.6603 N.am      7 UNK        -0.5000 
     40 C           3.6133  -19.4021  -41.2117 C.2       6 UNK         0.5000 
     41 O           3.2431  -20.3188  -41.9444 O.2       6 UNK        -0.5000 
     42 CA          3.6983  -19.6433  -39.6932 C.3       6 UNK         0.1400 
     43 CB          5.0954  -20.1518  -39.3083 C.3       6 UNK        -0.1800 
     44 N           3.3768  -18.4646  -38.8874 N.am      6 UNK        -0.5000 
     45 C           2.1964  -17.8307  -38.8780 C.2       5 UNK         0.5000 
     46 O           1.2394  -18.1705  -39.5766 O.2       5 UNK        -0.5000 
     47 CA          2.0572  -16.6035  -37.9484 C.3       5 UNK         0.1400 
     48 CB          3.3313  -16.2806  -37.1347 C.3       5 UNK        -0.1800 
     49 N           1.6067  -15.4000  -38.6571 N.am      5 UNK        -0.5000 
     50 C           2.1682  -14.8466  -39.7403 C.2       4 UNK         0.5000 
     51 O           3.1255  -15.3326  -40.3500 O.2       4 UNK        -0.5000 
     52 CA          1.5588  -13.5194  -40.2159 C.3       4 UNK         0.1400 
     53 CB          2.0119  -12.3508  -39.3241 C.3       4 UNK        -0.1800 
     54 N           1.9831  -13.2723  -41.5900 N.am      4 UNK        -0.5000 
     55 C           1.2557  -12.6699  -42.5343 C.2       3 UNK         0.5000 
     56 O           0.1273  -12.2072  -42.3452 O.2       3 UNK        -0.5000 
     57 CA          1.8916  -12.6003  -43.9305 C.3       3 UNK         0.1400 
     58 CB          1.8869  -13.9825  -44.6068 C.3       3 UNK        -0.1800 
     59 N           1.1420  -11.6734  -44.7722 N.am      3 UNK        -0.5000 
     60 C           1.6764  -10.8104  -45.6391 C.2       2 UNK         0.5000 
     61 O           2.8868  -10.6182  -45.7712 O.2       2 UNK        -0.5000 
     62 CA          0.6761  -10.0445  -46.5245 C.3       2 UNK         0.1400 
     63 CB          0.3351   -8.6855  -45.8949 C.3       2 UNK        -0.1800 
     64 N           1.2051   -9.8217  -47.8734 N.am      2 UNK        -0.5000 
     65 C           1.3960  -10.7233  -48.8508 C.2       1 UNK         0.5000 
     66 O           1.9327  -10.3942  -49.9106 O.2       1 UNK        -0.5000 
     67 C          -1.9651  -19.9816  -47.0972 C.2       11 UNK         0.5000 
     68 O          -2.5383  -20.2850  -48.1425 O.2       11 UNK        -0.5000 
     69 N          -2.4994  -20.1645  -45.8815 N.am      12 UNK        -0.5000 
     70 CA         -3.8004  -20.7902  -45.6386 C.3       12 UNK         0.1400 
     71 CB         -4.1724  -20.6613  -44.1542 C.3       12 UNK        -0.1800 
     72 C          -3.8442  -22.2603  -46.0932 C.2       12 UNK         0.5000 
     73 O          -4.8237  -22.6717  -46.7146 O.2       12 UNK        -0.5000 
     74 N          -2.7681  -23.0117  -45.8203 N.am      13 UNK        -0.5000 
     75 CA         -2.5805  -24.3850  -46.2874 C.3       13 UNK         0.1400 
     76 CB         -1.3373  -24.9976  -45.6257 C.3       13 UNK        -0.1800 
     77 C          -2.4935  -24.4752  -47.8213 C.2       13 UNK         0.5000 
     78 O          -3.1427  -25.3384  -48.4108 O.2       13 UNK        -0.5000 
     79 N          -1.7389  -23.5584  -48.4443 N.am      14 UNK        -0.5000 
     80 CA         -1.6274  -23.4278  -49.8980 C.3       14 UNK         0.1400 
     81 CB         -0.5507  -22.3912  -50.2500 C.3       14 UNK        -0.1800 
     82 C          -2.9681  -23.0733  -50.5645 C.2       14 UNK         0.5000 
     83 O          -3.3233  -23.6908  -51.5675 O.2       14 UNK        -0.5000 
     84 N          -3.7062  -22.1243  -49.9718 N.am      15 UNK        -0.5000 
     85 CA         -5.0474  -21.7213  -50.3969 C.3       15 UNK         0.1400 
     86 CB         -5.5095  -20.5125  -49.5681 C.3       15 UNK        -0.1800 
     87 C          -6.0768  -22.8610  -50.2953 C.2       15 UNK         0.5000 
     88 O          -6.9349  -22.9789  -51.1671 O.2       15 UNK        -0.5000 
     89 N          -5.9726  -23.6903  -49.2490 N.am      16 UNK        -0.5000 
     90 CA         -6.8065  -24.8763  -49.0647 C.3       16 UNK         0.1400 
     91 CB         -6.6728  -25.3805  -47.6194 C.3       16 UNK        -0.1800 
     92 C          -6.4697  -25.9927  -50.0708 C.2       16 UNK         0.5000 
     93 O          -7.3832  -26.6012  -50.6293 O.2       16 UNK        -0.5000 
     94 N          -5.1706  -26.2464  -50.2759 N.am      17 UNK        -0.5000 
     95 CA         -4.6628  -27.3250  -51.1211 C.3       17 UNK         0.1400 
     96 CB         -3.1928  -27.5997  -50.7659 C.3       17 UNK        -0.1800 
     97 C          -4.8082  -27.0502  -52.6277 C.2       17 UNK         0.5000 
     98 O          -5.2712  -27.9273  -53.3582 O.2       17 UNK        -0.5000 
     99 N          -4.3810  -25.8612  -53.0704 N.am      18 UNK        -0.5000 
    100 CA        -4.2379  -25.5119  -54.4864 C.3       18 UNK         0.1400 
    101 CB        -2.8622  -24.8580  -54.6861 C.3       18 UNK        -0.1800 
    102 C         -5.3514  -24.5856  -55.0036 C.2       18 UNK         0.5000 
    103 O         -5.3337  -24.2385  -56.1857 O.2       18 UNK        -0.5000 
    104 N         -6.2873  -24.1837  -54.1319 N.am      19 UNK        -0.5000 
    105 CA        -7.3579  -23.2188  -54.4003 C.3       19 UNK         0.1400 
    106 CB        -8.3745  -23.7909  -55.4165 C.3       19 UNK        -0.1800 
    107 C         -6.7749  -21.8393  -54.7803 C.2       19 UNK         0.5000 
    108 O         -5.8360  -21.3768  -54.1289 O.2       19 UNK        -0.5000 
    109 N         -7.3185  -21.2134  -55.8315 N.am      20 UNK        -0.5000 
    110 CA        -6.9142  -19.8994  -56.3359 C.3       20 UNK         0.1400 
    111 CB        -7.9746  -19.4133  -57.3370 C.3       20 UNK        -0.1800 
    112 C         -5.5093  -19.8581  -56.9737 C.2       20 UNK         0.5000 
    113 O         -4.9860  -18.7629  -57.1838 O.2       20 UNK        -0.5000 
    114 N         -4.9241  -21.0248  -57.2864 N.am      21 UNK        -0.5000 
    115 CA        -3.5730  -21.1348  -57.8414 C.3       21 UNK         0.1400 
    116 CB        -3.3810  -22.5268  -58.4618 C.3       21 UNK        -0.1800 
    117 C         -2.4724  -20.8454  -56.8020 C.2       21 UNK         0.5000 
    118 O         -1.4094  -20.3517  -57.1821 O.2       21 UNK        -0.5000 
    119 N         -2.7542  -21.1348  -55.5226 N.am      22 UNK        -0.5000 
    120 CA        -1.8664  -20.9198  -54.3655 C.3       22 UNK         0.1400 
    121 C         -0.5100  -21.6940  -54.4616 C.2       22 UNK         0.5000 
    122 N          0.5367  -21.2761  -53.7597 N.am      22 UNK        -0.7600 
    123 O         -0.4003  -22.7146  -55.1366 O.2       22 UNK        -0.5000 
    124 C124       -1.7024  -19.4089  -54.0261 C.3       23 UNK        -0.0398 
    125 S125       -3.2976  -18.5758  -53.7147 S.3       23 UNK        -0.2404 
    126 C126       -3.3610  -18.5590  -51.8959 C.3       23 UNK        -0.0205 
    127 H127        3.0774  -14.6914  -50.9152 H         1 UNK         0.0600 
    128 H128        3.9397  -15.3899  -49.5422 H         1 UNK         0.0600 
    129 H129        4.6128  -13.9933  -50.3904 H         1 UNK         0.0600 
    130 H130        1.3825  -13.3596  -50.3485 H         1 UNK         0.3000 
    131 H131        1.0082  -12.4759  -47.6364 H         1 UNK         0.0600 
    132 H132       -0.9932  -13.2174  -48.5164 H         1 UNK         0.0800 
    133 H133       -1.1896  -11.5052  -48.6399 H         1 UNK         0.0800 
    134 H134       -2.9947  -13.5407  -49.9777 H         1 UNK         0.0800 
    135 H135       -2.9160  -13.5628  -51.7186 H         1 UNK         0.0800 
    136 H136       -3.6769  -15.8644  -51.7915 H         1 UNK         0.1150 
    137 H137       -0.9688  -18.9781  -50.6468 H         1 UNK         0.1150 
    138 H138       -0.0316  -14.9193  -49.7348 H         1 UNK         0.1150 
    139 H139        1.1365  -18.4709  -49.6483 H         1 UNK         0.0800 
    140 H140        1.7713  -16.8776  -49.9406 H         1 UNK         0.0800 
    141 H141       -1.3973  -17.4536  -47.6990 H         1 UNK         0.0800 
    142 H142       -0.7638  -17.5266  -46.0838 H         1 UNK         0.0800 
    143 H143       -0.1539  -19.6898  -48.1485 H         1 UNK         0.0600 
    144 H144        0.7480  -19.3737  -45.4766 H         1 UNK         0.3000 
    145 H145        1.4220  -22.8745  -44.9002 H         1 UNK         0.0600 
    146 H146        3.6090  -21.8655  -44.3214 H         1 UNK         0.0600 
    147 H147        3.3885  -21.8924  -46.0644 H         1 UNK         0.0600 
    148 H148        3.1872  -20.3865  -45.1805 H         1 UNK         0.0600 
    149 H149        1.6873  -20.6453  -43.1670 H         1 UNK         0.3000 
    150 H150       -1.6337  -20.7555  -41.7817 H         1 UNK         0.0600 
    151 H151       -0.3067  -22.4127  -40.5182 H         1 UNK         0.0600 
    152 H152       -0.2306  -20.8500  -39.7166 H         1 UNK         0.0600 
    153 H153        1.1388  -21.4255  -40.6654 H         1 UNK         0.0600 
    154 H154        0.5194  -18.9987  -41.2322 H         1 UNK         0.3000 
    155 H155       -0.1430  -16.6005  -43.8090 H         1 UNK         0.0600 
    156 H156       -0.4085  -16.4559  -40.7625 H         1 UNK         0.0600 
    157 H157       -1.7088  -16.1279  -41.8983 H         1 UNK         0.0600 
    158 H158       -0.2889  -15.1054  -41.8935 H         1 UNK         0.0600 
    159 H159        1.8387  -16.8136  -41.7165 H         1 UNK         0.3000 
    160 H160        4.2584  -18.5623  -43.6775 H         1 UNK         0.0600 
    161 H161        4.5175  -16.1803  -44.3568 H         1 UNK         0.0600 
    162 H162        5.6462  -16.6170  -43.0841 H         1 UNK         0.0600 
    163 H163        4.2187  -15.6603  -42.7030 H         1 UNK         0.0600 
    164 H164        4.1638  -17.4534  -40.9962 H         1 UNK         0.3000 
    165 H165        2.9740  -20.4205  -39.4430 H         1 UNK         0.0600 
    166 H166        5.1431  -20.4141  -38.2512 H         1 UNK         0.0600 
    167 H167        5.3552  -21.0467  -39.8755 H         1 UNK         0.0600 
    168 H168        5.8645  -19.4037  -39.5048 H         1 UNK         0.0600 
    169 H169        4.1142  -18.1091  -38.2965 H         1 UNK         0.3000 
    170 H170        1.2686  -16.8567  -37.2386 H         1 UNK         0.0600 
    171 H171        3.6317  -17.1244  -36.5122 H         1 UNK         0.0600 
    172 H172        4.1727  -16.0170  -37.7769 H         1 UNK         0.0600 
    173 H173        3.1583  -15.4398  -36.4627 H         1 UNK         0.0600 
    174 H174        0.8003  -14.9447  -38.2532 H         1 UNK         0.3000 
    175 H175        0.4716  -13.6088  -40.1697 H         1 UNK         0.0600 
    176 H176        1.7064  -12.5027  -38.2883 H         1 UNK         0.0600 
    177 H177        1.5732  -11.4095  -39.6557 H         1 UNK         0.0600 
    178 H178        3.0966  -12.2361  -39.3341 H         1 UNK         0.0600 
    179 H179        2.8754  -13.6892  -41.8231 H         1 UNK         0.3000 
    180 H180        2.9219  -12.2583  -43.8100 H         1 UNK         0.0600 
    181 H181        0.8744  -14.3674  -44.7345 H         1 UNK         0.0600 
    182 H182        2.4406  -14.7092  -44.0166 H         1 UNK         0.0600 
    183 H183        2.3551  -13.9441  -45.5904 H         1 UNK         0.0600 
    184 H184        0.1402  -11.6984  -44.6324 H         1 UNK         0.3000 
    185 H185       -0.2473  -10.6210  -46.6005 H         1 UNK         0.0600 
    186 H186       -0.0867   -8.8111  -44.8968 H         1 UNK         0.0600 
    187 H187        1.2183   -8.0522  -45.8001 H         1 UNK         0.0600 
    188 H188       -0.4014   -8.1471  -46.4918 H         1 UNK         0.0600 
    189 H189        1.5563   -8.8897  -48.0341 H         1 UNK         0.3000 
    190 H190       -1.9921  -19.8345  -45.0640 H         1 UNK         0.3000 
    191 H191       -4.5440  -20.2424  -46.2209 H         1 UNK         0.0600 
    192 H192       -5.1555  -21.0918  -43.9600 H         1 UNK         0.0600 
    193 H193       -3.4568  -21.1745  -43.5121 H         1 UNK         0.0600 
    194 H194       -4.2076  -19.6162  -43.8463 H         1 UNK         0.0600 
    195 H195       -2.0246  -22.6161  -45.2517 H         1 UNK         0.3000 
    196 H196       -3.4503  -24.9645  -45.9711 H         1 UNK         0.0600 
    197 H197       -1.1966  -26.0316  -45.9427 H         1 UNK         0.0600 
    198 H198       -1.4305  -24.9994  -44.5396 H         1 UNK         0.0600 
    199 H199       -0.4306  -24.4495  -45.8812 H         1 UNK         0.0600 
    200 H200       -1.1936  -22.9090  -47.8840 H         1 UNK         0.3000 
    201 H201       -1.3072  -24.3942  -50.2928 H         1 UNK         0.0600 
    202 H202        0.4165  -22.6692  -49.8310 H         1 UNK         0.0600 
    203 H203       -0.8041  -21.3997  -49.8762 H         1 UNK         0.0600 
    204 H204       -0.4276  -22.3146  -51.3298 H         1 UNK         0.0600 
    205 H205       -3.3162  -21.6279  -49.1736 H         1 UNK         0.3000 
    206 H206       -4.9854  -21.4185  -51.4443 H         1 UNK         0.0600 
    207 H207       -5.6337  -20.7706  -48.5163 H         1 UNK         0.0600 
    208 H208       -4.7959  -19.6916  -49.6217 H         1 UNK         0.0600 
    209 H209       -6.4675  -20.1371  -49.9295 H         1 UNK         0.0600 
    210 H210       -5.2867  -23.4908  -48.5285 H         1 UNK         0.3000 
    211 H211       -7.8482  -24.5886  -49.2226 H         1 UNK         0.0600 
    212 H212       -5.6469  -25.6625  -47.3817 H         1 UNK         0.0600 
    213 H213       -7.3018  -26.2554  -47.4511 H         1 UNK         0.0600 
    214 H214       -6.9810  -24.6157  -46.9064 H         1 UNK         0.0600 
    215 H215       -4.4800  -25.7285  -49.7389 H         1 UNK         0.3000 
    216 H216       -5.2320  -28.2292  -50.8944 H         1 UNK         0.0600 
    217 H217       -2.7847  -28.4052  -51.3776 H         1 UNK         0.0600 
    218 H218       -3.0901  -27.8996  -49.7228 H         1 UNK         0.0600 
    219 H219       -2.5692  -26.7183  -50.9218 H         1 UNK         0.0600 
    220 H220       -4.0298  -25.1726  -52.4065 H         1 UNK         0.3000 
    221 H221       -4.2655  -26.4128  -55.1024 H         1 UNK         0.0600 
    222 H222       -2.6669  -24.6592  -55.7403 H         1 UNK         0.0600 
    223 H223       -2.0598  -25.5015  -54.3253 H         1 UNK         0.0600 
    224 H224       -2.7914  -23.9076  -54.1579 H         1 UNK         0.0600 
    225 H225       -6.1927  -24.4744  -53.1688 H         1 UNK         0.3000 
    226 H226       -7.8986  -23.0735  -53.4669 H         1 UNK         0.0600 
    227 H227       -9.2535  -23.1505  -55.4985 H         1 UNK         0.0600 
    228 H228       -7.9488  -23.9024  -56.4142 H         1 UNK         0.0600 
    229 H229       -8.7280  -24.7721  -55.0993 H         1 UNK         0.0600 
    230 H230       -8.0692  -21.6721  -56.3269 H         1 UNK         0.3000 
    231 H231       -6.9004  -19.2072  -55.4913 H         1 UNK         0.0600 
    232 H232       -8.9595  -19.3558  -56.8731 H         1 UNK         0.0600 
    233 H233       -8.0462  -20.0769  -58.1997 H         1 UNK         0.0600 
    234 H234       -7.7352  -18.4162  -57.7092 H         1 UNK         0.0600 
    235 H235       -5.4056  -21.8891  -57.0769 H         1 UNK         0.3000 
    236 H236       -3.4732  -20.3983  -58.6418 H         1 UNK         0.0600 
    237 H237       -4.1507  -22.7414  -59.2032 H         1 UNK         0.0600 
    238 H238       -2.4156  -22.5965  -58.9644 H         1 UNK         0.0600 
    239 H239       -3.4102  -23.3123  -57.7075 H         1 UNK         0.0600 
    240 H240       -3.6700  -21.5037  -55.3068 H         1 UNK         0.3000 
    241 H241       -2.3822  -21.3856  -53.5248 H         1 UNK         0.0600 
    242 H242        1.3961  -21.7989  -53.8266 H         1 UNK         0.3800 
    243 H243        0.5098  -20.4475  -53.1896 H         1 UNK         0.3800 
    244 H244       -1.2010  -18.8890  -54.8436 H         1 UNK         0.0800 
    245 H245       -1.0687  -19.2694  -53.1519 H         1 UNK         0.0800 
    246 H246       -3.1409  -19.5572  -51.5141 H         1 UNK         0.0800 
    247 H247       -4.3819  -18.3304  -51.5877 H         1 UNK         0.0800 
@<TRIPOS>BOND
     1    1    2 1    
     2    1  127 1    
     3    1  128 1    
     4    1  129 1    
     5    2    3 2    
     6    2    4 am   BACKBONE|DICT|INTERRES
     7    4    5 1    
     8    4  130 1    
     9    5    6 1    
    10    5   65 1    
    11    5  131 1    
    12    6    7 1    
    13    6  132 1    
    14    6  133 1    
    15    7    8 1    
    16    8    9 1    
    17    8  134 1    
    18    8  135 1    
    19    9   10 ar   
    20    9   14 ar   
    21   10   11 ar   
    22   10  136 1    
    23   11   12 ar   
    24   11  126 1    
    25   12   13 ar   
    26   12  137 1    
    27   13   14 ar   
    28   13   15 1    
    29   14  138 1    
    30   15   16 1    
    31   15  139 1    
    32   15  140 1    
    33   16   17 1    
    34   17   18 1    
    35   17  141 1    
    36   17  142 1    
    37   18   19 1    
    38   18   67 1    
    39   18  143 1    
    40   19   20 am   BACKBONE|DICT|INTERRES
    41   19  144 1    
    42   20   21 2    
    43   20   22 1    
    44   22   23 1    
    45   22   24 1    
    46   22  145 1    
    47   23  146 1    
    48   23  147 1    
    49   23  148 1    
    50   24   25 am   BACKBONE|DICT|INTERRES
    51   24  149 1    
    52   25   26 2    
    53   25   27 1    
    54   27   28 1    
    55   27   29 1    
    56   27  150 1    
    57   28  151 1    
    58   28  152 1    
    59   28  153 1    
    60   29   30 am   BACKBONE|DICT|INTERRES
    61   29  154 1    
    62   30   31 2    
    63   30   32 1    
    64   32   33 1    
    65   32   34 1    
    66   32  155 1    
    67   33  156 1    
    68   33  157 1    
    69   33  158 1    
    70   34   35 am   BACKBONE|DICT|INTERRES
    71   34  159 1    
    72   35   36 2    
    73   35   37 1    
    74   37   38 1    
    75   37   39 1    
    76   37  160 1    
    77   38  161 1    
    78   38  162 1    
    79   38  163 1    
    80   39   40 am   BACKBONE|DICT|INTERRES
    81   39  164 1    
    82   40   41 2    
    83   40   42 1    
    84   42   43 1    
    85   42   44 1    
    86   42  165 1    
    87   43  166 1    
    88   43  167 1    
    89   43  168 1    
    90   44   45 am   BACKBONE|DICT|INTERRES
    91   44  169 1    
    92   45   46 2    
    93   45   47 1    
    94   47   48 1    
    95   47   49 1    
    96   47  170 1    
    97   48  171 1    
    98   48  172 1    
    99   48  173 1    
   100   49   50 am   BACKBONE|DICT|INTERRES
   101   49  174 1    
   102   50   51 2    
   103   50   52 1    
   104   52   53 1    
   105   52   54 1    
   106   52  175 1    
   107   53  176 1    
   108   53  177 1    
   109   53  178 1    
   110   54   55 am   BACKBONE|DICT|INTERRES
   111   54  179 1    
   112   55   56 2    
   113   55   57 1    
   114   57   58 1    
   115   57   59 1    
   116   57  180 1    
   117   58  181 1    
   118   58  182 1    
   119   58  183 1    
   120   59   60 am   BACKBONE|DICT|INTERRES
   121   59  184 1    
   122   60   61 2    
   123   60   62 1    
   124   62   63 1    
   125   62   64 1    
   126   62  185 1    
   127   63  186 1    
   128   63  187 1    
   129   63  188 1    
   130   64   65 am   BACKBONE|DICT|INTERRES
   131   64  189 1    
   132   65   66 2    
   133   67   68 2    
   134   67   69 am   BACKBONE|DICT|INTERRES
   135   69   70 1    
   136   69  190 1    
   137   70   71 1    
   138   70   72 1    
   139   70  191 1    
   140   71  192 1    
   141   71  193 1    
   142   71  194 1    
   143   72   73 2    
   144   72   74 am   BACKBONE|DICT|INTERRES
   145   74   75 1    
   146   74  195 1    
   147   75   76 1    
   148   75   77 1    
   149   75  196 1    
   150   76  197 1    
   151   76  198 1    
   152   76  199 1    
   153   77   78 2    
   154   77   79 am   BACKBONE|DICT|INTERRES
   155   79   80 1    
   156   79  200 1    
   157   80   81 1    
   158   80   82 1    
   159   80  201 1    
   160   81  202 1    
   161   81  203 1    
   162   81  204 1    
   163   82   83 2    
   164   82   84 am   BACKBONE|DICT|INTERRES
   165   84   85 1    
   166   84  205 1    
   167   85   86 1    
   168   85   87 1    
   169   85  206 1    
   170   86  207 1    
   171   86  208 1    
   172   86  209 1    
   173   87   88 2    
   174   87   89 am   BACKBONE|DICT|INTERRES
   175   89   90 1    
   176   89  210 1    
   177   90   91 1    
   178   90   92 1    
   179   90  211 1    
   180   91  212 1    
   181   91  213 1    
   182   91  214 1    
   183   92   93 2    
   184   92   94 am   BACKBONE|DICT|INTERRES
   185   94   95 1    
   186   94  215 1    
   187   95   96 1    
   188   95   97 1    
   189   95  216 1    
   190   96  217 1    
   191   96  218 1    
   192   96  219 1    
   193   97   98 2    
   194   97   99 am   BACKBONE|DICT|INTERRES
   195   99  100 1    
   196   99  220 1    
   197  100  101 1    
   198  100  102 1    
   199  100  221 1    
   200  101  222 1    
   201  101  223 1    
   202  101  224 1    
   203  102  103 2    
   204  102  104 am   BACKBONE|DICT|INTERRES
   205  104  105 1    
   206  104  225 1    
   207  105  106 1    
   208  105  107 1    
   209  105  226 1    
   210  106  227 1    
   211  106  228 1    
   212  106  229 1    
   213  107  108 2    
   214  107  109 am   BACKBONE|DICT|INTERRES
   215  109  110 1    
   216  109  230 1    
   217  110  111 1    
   218  110  112 1    
   219  110  231 1    
   220  111  232 1    
   221  111  233 1    
   222  111  234 1    
   223  112  113 2    
   224  112  114 am   BACKBONE|DICT|INTERRES
   225  114  115 1    
   226  114  235 1    
   227  115  116 1    
   228  115  117 1    
   229  115  236 1    
   230  116  237 1    
   231  116  238 1    
   232  116  239 1    
   233  117  118 2    
   234  117  119 am   BACKBONE|DICT|INTERRES
   235  119  120 1    
   236  119  240 1    
   237  120  121 1    
   238  120  124 1    
   239  120  241 1    
   240  121  122 am   BACKBONE|DICT|INTERRES
   241  121  123 2    
   242  122  242 1    
   243  122  243 1    
   244  124  125 1    
   245  124  244 1    
   246  124  245 1    
   247  125  126 1    
   248  126  246 1    
   249  126  247 1    
@<TRIPOS>SUBSTRUCTURE
     1 UNK         1 GROUP             0       ****    0 ROOT    
