@<TRIPOS>MOLECULE
3R540
247   249    1
SMALL
USER_CHARGES


@<TRIPOS>ATOM
      1 CA          6.8021  -14.8746  -48.4493 C.3       0 UNK        -0.1800 
      2 C           5.3131  -15.1602  -48.5815 C.2       0 UNK         0.5000 
      3 O           4.8052  -16.0691  -47.9247 O.2       0 UNK        -0.5000 
      4 N           4.6157  -14.3870  -49.4239 N.am      1 UNK        -0.5000 
      5 CA          3.1709  -14.4592  -49.6649 C.3       1 UNK         0.1400 
      6 C6          2.7639  -13.6567  -50.9308 C.3       23 UNK        -0.0398 
      7 S7          3.3118  -14.4401  -52.4881 S.3       23 UNK        -0.2404 
      8 C8          1.7273  -14.9493  -53.2434 C.3       23 UNK        -0.0205 
      9 C9          1.2520  -16.3000  -52.7250 C.ar      23 UNK        -0.0193 
     10 C10         1.3201  -17.4367  -53.5401 C.ar      23 UNK        -0.1150 
     11 C11         0.9115  -18.6834  -53.0548 C.ar      23 UNK        -0.0193 
     12 C12         0.4679  -18.7926  -51.7346 C.ar      23 UNK        -0.1150 
     13 C13         0.3780  -17.6639  -50.9202 C.ar      23 UNK        -0.0193 
     14 C14         0.7457  -16.4175  -51.4272 C.ar      23 UNK        -0.1150 
     15 C15        -0.0739  -17.8076  -49.4807 C.3       23 UNK        -0.0205 
     16 S16         1.3540  -18.2245  -48.4397 S.3       23 UNK        -0.2404 
     17 C17         0.5382  -18.7463  -46.9040 C.3       23 UNK        -0.0398 
     18 CA          0.3750  -20.2878  -46.8147 C.3       11 UNK         0.1400 
     19 N           0.6545  -20.7947  -45.4700 N.am      11 UNK        -0.5000 
     20 C           0.7010  -22.0844  -45.1110 C.2       10 UNK         0.5000 
     21 O           0.5273  -23.0188  -45.8917 O.2       10 UNK        -0.5000 
     22 CA          0.9455  -22.3763  -43.6205 C.3       10 UNK         0.1400 
     23 CB          2.4478  -22.3782  -43.3008 C.3       10 UNK        -0.1800 
     24 N           0.2619  -21.4111  -42.7594 N.am      10 UNK        -0.5000 
     25 C          -1.0609  -21.3987  -42.5445 C.2       9 UNK         0.5000 
     26 O          -1.8362  -22.2377  -43.0051 O.2       9 UNK        -0.5000 
     27 CA         -1.6113  -20.2250  -41.7095 C.3       9 UNK         0.1400 
     28 CB         -1.3866  -20.4709  -40.2100 C.3       9 UNK        -0.1800 
     29 N          -1.0250  -18.9347  -42.0778 N.am      9 UNK        -0.5000 
     30 C          -1.1223  -18.3740  -43.2913 C.2       8 UNK         0.5000 
     31 O          -1.7528  -18.8648  -44.2270 O.2       8 UNK        -0.5000 
     32 CA         -0.3402  -17.0700  -43.5216 C.3       8 UNK         0.1400 
     33 CB         -1.1735  -15.8644  -43.0679 C.3       8 UNK        -0.1800 
     34 N           0.9748  -17.0380  -42.8743 N.am      8 UNK        -0.5000 
     35 C           1.9561  -17.9368  -43.0496 C.2       7 UNK         0.5000 
     36 O           1.8445  -18.9440  -43.7431 O.2       7 UNK        -0.5000 
     37 CA          3.2781  -17.6849  -42.3147 C.3       7 UNK         0.1400 
     38 CB          4.1181  -16.6480  -43.0701 C.3       7 UNK        -0.1800 
     39 N           3.0349  -17.2355  -40.9474 N.am      7 UNK        -0.5000 
     40 C           2.7645  -18.0650  -39.9301 C.2       6 UNK         0.5000 
     41 O           2.7779  -19.2929  -40.0246 O.2       6 UNK        -0.5000 
     42 CA          2.3885  -17.4148  -38.5858 C.3       6 UNK         0.1400 
     43 CB          3.6487  -17.1025  -37.7648 C.3       6 UNK        -0.1800 
     44 N           1.5991  -16.1923  -38.7398 N.am      6 UNK        -0.5000 
     45 C           0.3686  -16.1387  -39.2680 C.2       5 UNK         0.5000 
     46 O          -0.2471  -17.1219  -39.6839 O.2       5 UNK        -0.5000 
     47 CA         -0.2649  -14.7394  -39.3816 C.3       5 UNK         0.1400 
     48 CB         -0.9798  -14.3706  -38.0729 C.3       5 UNK        -0.1800 
     49 N           0.6682  -13.6638  -39.7400 N.am      5 UNK        -0.5000 
     50 C           1.4691  -13.6386  -40.8152 C.2       4 UNK         0.5000 
     51 O           1.6099  -14.5939  -41.5825 O.2       4 UNK        -0.5000 
     52 CA          2.2027  -12.3080  -41.0731 C.3       4 UNK         0.1400 
     53 CB          3.2038  -11.9679  -39.9486 C.3       4 UNK        -0.1800 
     54 N           2.8187  -12.2590  -42.4050 N.am      4 UNK        -0.5000 
     55 C           3.9375  -12.8550  -42.8386 C.2       3 UNK         0.5000 
     56 O           4.7176  -13.4816  -42.1195 O.2       3 UNK        -0.5000 
     57 CA          4.2077  -12.7426  -44.3556 C.3       3 UNK         0.1400 
     58 CB          5.6849  -12.9915  -44.7094 C.3       3 UNK        -0.1800 
     59 N           3.3873  -13.6713  -45.1351 N.am      3 UNK        -0.5000 
     60 C           2.0634  -13.5906  -45.3241 C.2       2 UNK         0.5000 
     61 O           1.3602  -12.6859  -44.8690 O.2       2 UNK        -0.5000 
     62 CA          1.4476  -14.7012  -46.2022 C.3       2 UNK         0.1400 
     63 CB         -0.0590  -14.5068  -46.4710 C.3       2 UNK        -0.1800 
     64 N           2.1703  -14.8897  -47.4653 N.am      2 UNK        -0.5000 
     65 C           2.3897  -13.9757  -48.4226 C.2       1 UNK         0.5000 
     66 O           2.0231  -12.8011  -48.3540 O.2       1 UNK        -0.5000 
     67 C          -1.0082  -20.7403  -47.3219 C.2       11 UNK         0.5000 
     68 O          -1.1113  -21.2418  -48.4398 O.2       11 UNK        -0.5000 
     69 N          -2.0351  -20.6037  -46.4708 N.am      12 UNK        -0.5000 
     70 CA         -3.4034  -21.0476  -46.7369 C.3       12 UNK         0.1400 
     71 CB         -4.3240  -20.5672  -45.6062 C.3       12 UNK        -0.1800 
     72 C          -3.5178  -22.5718  -46.9158 C.2       12 UNK         0.5000 
     73 O          -4.2776  -23.0233  -47.7736 O.2       12 UNK        -0.5000 
     74 N          -2.7436  -23.3339  -46.1302 N.am      13 UNK        -0.5000 
     75 CA         -2.6466  -24.7892  -46.2371 C.3       13 UNK         0.1400 
     76 CB         -1.9314  -25.3588  -45.0027 C.3       13 UNK        -0.1800 
     77 C          -1.9532  -25.2264  -47.5402 C.2       13 UNK         0.5000 
     78 O          -2.4590  -26.1171  -48.2226 O.2       13 UNK        -0.5000 
     79 N          -0.8443  -24.5590  -47.8919 N.am      14 UNK        -0.5000 
     80 CA         -0.0997  -24.7621  -49.1387 C.3       14 UNK         0.1400 
     81 CB          1.2048  -23.9520  -49.0921 C.3       14 UNK        -0.1800 
     82 C          -0.9193  -24.4049  -50.3942 C.2       14 UNK         0.5000 
     83 O          -0.8258  -25.1025  -51.4043 O.2       14 UNK        -0.5000 
     84 N          -1.7396  -23.3518  -50.2897 N.am      15 UNK        -0.5000 
     85 CA         -2.7000  -22.9148  -51.3038 C.3       15 UNK         0.1400 
     86 CB         -3.1212  -21.4744  -50.9784 C.3       15 UNK        -0.1800 
     87 C          -3.9516  -23.8115  -51.4041 C.2       15 UNK         0.5000 
     88 O          -4.7638  -23.5978  -52.3058 O.2       15 UNK        -0.5000 
     89 N          -4.1141  -24.7539  -50.4617 N.am      16 UNK        -0.5000 
     90 CA         -5.2515  -25.6627  -50.2911 C.3       16 UNK         0.1400 
     91 CB         -5.2872  -26.7048  -51.4272 C.3       16 UNK        -0.1800 
     92 C          -6.5819  -24.9044  -50.1032 C.2       16 UNK         0.5000 
     93 O          -7.5817  -25.2313  -50.7442 O.2       16 UNK        -0.5000 
     94 N          -6.5441  -23.8795  -49.2374 N.am      17 UNK        -0.5000 
     95 CA         -7.6132  -22.9179  -48.9500 C.3       17 UNK         0.1400 
     96 CB         -8.8287  -23.6103  -48.2978 C.3       17 UNK        -0.1800 
     97 C          -7.9798  -22.0592  -50.1797 C.2       17 UNK         0.5000 
     98 O          -9.1555  -21.7627  -50.3985 O.2       17 UNK        -0.5000 
     99 N          -6.9475  -21.6760  -50.9474 N.am      18 UNK        -0.5000 
    100 CA        -6.9904  -20.9058  -52.1939 C.3       18 UNK         0.1400 
    101 CB        -7.5069  -19.4738  -51.9448 C.3       18 UNK        -0.1800 
    102 C         -7.7648  -21.6509  -53.2979 C.2       18 UNK         0.5000 
    103 O         -8.7980  -21.1722  -53.7727 O.2       18 UNK        -0.5000 
    104 N         -7.2592  -22.8347  -53.6668 N.am      19 UNK        -0.5000 
    105 CA        -7.8284  -23.7341  -54.6720 C.3       19 UNK         0.1400 
    106 CB        -7.2083  -25.1299  -54.4918 C.3       19 UNK        -0.1800 
    107 C         -7.6616  -23.1956  -56.1098 C.2       19 UNK         0.5000 
    108 O         -6.8440  -23.7094  -56.8748 O.2       19 UNK        -0.5000 
    109 N         -8.4333  -22.1480  -56.4332 N.am      20 UNK        -0.5000 
    110 CA        -8.5135  -21.4225  -57.7110 C.3       20 UNK         0.1400 
    111 CB        -8.9284  -22.3631  -58.8614 C.3       20 UNK        -0.1800 
    112 C         -7.2594  -20.5906  -58.0625 C.2       20 UNK         0.5000 
    113 O         -7.1984  -20.0106  -59.1478 O.2       20 UNK        -0.5000 
    114 N         -6.3020  -20.5139  -57.1357 N.am      21 UNK        -0.5000 
    115 CA        -5.0516  -19.7702  -57.2020 C.3       21 UNK         0.1400 
    116 CB        -4.0693  -20.4576  -58.1697 C.3       21 UNK        -0.1800 
    117 C         -4.4752  -19.7230  -55.7804 C.2       21 UNK         0.5000 
    118 O         -4.9016  -20.5078  -54.9278 O.2       21 UNK        -0.5000 
    119 N         -3.5130  -18.8201  -55.5518 N.am      22 UNK        -0.5000 
    120 CA        -2.7685  -18.6728  -54.2847 C.3       22 UNK         0.1400 
    121 C         -3.6211  -18.1861  -53.0696 C.2       22 UNK         0.5000 
    122 N         -4.8058  -17.6249  -53.2783 N.am      22 UNK        -0.7600 
    123 O         -3.1916  -18.2700  -51.9237 O.2       22 UNK        -0.5000 
    124 C124       -1.8979  -19.9271  -53.9759 C.3       23 UNK        -0.0398 
    125 S125       -0.4543  -20.0223  -55.0933 S.3       23 UNK        -0.2404 
    126 C126        0.9586  -19.9210  -53.9413 C.3       23 UNK        -0.0205 
    127 H127        7.1116  -14.0349  -49.0720 H         1 UNK         0.0600 
    128 H128        7.3792  -15.7500  -48.7468 H         1 UNK         0.0600 
    129 H129        7.0478  -14.6388  -47.4139 H         1 UNK         0.0600 
    130 H130        5.0988  -13.6586  -49.9298 H         1 UNK         0.3000 
    131 H131        2.9106  -15.5072  -49.8279 H         1 UNK         0.0600 
    132 H132        1.6834  -13.5129  -50.9720 H         1 UNK         0.0800 
    133 H133        3.1832  -12.6498  -50.8917 H         1 UNK         0.0800 
    134 H134        0.9608  -14.1920  -53.0739 H         1 UNK         0.0800 
    135 H135        1.8657  -14.9941  -54.3247 H         1 UNK         0.0800 
    136 H136        1.6893  -17.3545  -54.5527 H         1 UNK         0.1150 
    137 H137        0.1839  -19.7571  -51.3365 H         1 UNK         0.1150 
    138 H138        0.6662  -15.5475  -50.7942 H         1 UNK         0.1150 
    139 H139       -0.5347  -16.8849  -49.1253 H         1 UNK         0.0800 
    140 H140       -0.8350  -18.5863  -49.4120 H         1 UNK         0.0800 
    141 H141       -0.4049  -18.2126  -46.7701 H         1 UNK         0.0800 
    142 H142        1.1887  -18.3867  -46.1094 H         1 UNK         0.0800 
    143 H143        1.1199  -20.7585  -47.4602 H         1 UNK         0.0600 
    144 H144        0.8886  -20.0997  -44.7649 H         1 UNK         0.3000 
    145 H145        0.5531  -23.3726  -43.4060 H         1 UNK         0.0600 
    146 H146        2.6276  -22.6323  -42.2560 H         1 UNK         0.0600 
    147 H147        2.9736  -23.1146  -43.9099 H         1 UNK         0.0600 
    148 H148        2.9060  -21.4076  -43.4923 H         1 UNK         0.0600 
    149 H149        0.8212  -20.6523  -42.3949 H         1 UNK         0.3000 
    150 H150       -2.6866  -20.1660  -41.8902 H         1 UNK         0.0600 
    151 H151       -1.8183  -21.4233  -39.8998 H         1 UNK         0.0600 
    152 H152       -1.8543  -19.6902  -39.6095 H         1 UNK         0.0600 
    153 H153       -0.3249  -20.4916  -39.9600 H         1 UNK         0.0600 
    154 H154       -0.5207  -18.4357  -41.3528 H         1 UNK         0.3000 
    155 H155       -0.1710  -16.9744  -44.5941 H         1 UNK         0.0600 
    156 H156       -1.4781  -15.9626  -42.0272 H         1 UNK         0.0600 
    157 H157       -0.6221  -14.9301  -43.1733 H         1 UNK         0.0600 
    158 H158       -2.0826  -15.7764  -43.6639 H         1 UNK         0.0600 
    159 H159        1.1714  -16.2206  -42.3002 H         1 UNK         0.3000 
    160 H160        3.8412  -18.6206  -42.2931 H         1 UNK         0.0600 
    161 H161        3.5771  -15.7105  -43.1833 H         1 UNK         0.0600 
    162 H162        4.3711  -17.0027  -44.0700 H         1 UNK         0.0600 
    163 H163        5.0527  -16.4365  -42.5503 H         1 UNK         0.0600 
    164 H164        2.9402  -16.2378  -40.8081 H         1 UNK         0.3000 
    165 H165        1.7857  -18.1347  -38.0279 H         1 UNK         0.0600 
    166 H166        3.3914  -16.7175  -36.7779 H         1 UNK         0.0600 
    167 H167        4.2497  -18.0005  -37.6156 H         1 UNK         0.0600 
    168 H168        4.2797  -16.3635  -38.2604 H         1 UNK         0.0600 
    169 H169        2.0281  -15.3299  -38.4381 H         1 UNK         0.3000 
    170 H170       -1.0184  -14.7829  -40.1677 H         1 UNK         0.0600 
    171 H171       -0.2759  -14.2570  -37.2475 H         1 UNK         0.0600 
    172 H172       -1.5330  -13.4367  -38.1741 H         1 UNK         0.0600 
    173 H173       -1.6977  -15.1414  -37.7886 H         1 UNK         0.0600 
    174 H174        0.6228  -12.8378  -39.1610 H         1 UNK         0.3000 
    175 H175        1.4394  -11.5287  -41.0827 H         1 UNK         0.0600 
    176 H176        3.7776  -11.0724  -40.1872 H         1 UNK         0.0600 
    177 H177        3.9077  -12.7804  -39.7663 H         1 UNK         0.0600 
    178 H178        2.6865  -11.7763  -39.0082 H         1 UNK         0.0600 
    179 H179        2.2121  -11.8933  -43.1310 H         1 UNK         0.3000 
    180 H180        3.9613  -11.7241  -44.6629 H         1 UNK         0.0600 
    181 H181        5.9891  -14.0137  -44.4800 H         1 UNK         0.0600 
    182 H182        6.3387  -12.3204  -44.1509 H         1 UNK         0.0600 
    183 H183        5.8708  -12.8170  -45.7694 H         1 UNK         0.0600 
    184 H184        3.8792  -14.4443  -45.5591 H         1 UNK         0.3000 
    185 H185        1.5653  -15.6283  -45.6401 H         1 UNK         0.0600 
    186 H186       -0.6185  -14.4214  -45.5401 H         1 UNK         0.0600 
    187 H187       -0.2548  -13.6030  -47.0485 H         1 UNK         0.0600 
    188 H188       -0.4720  -15.3524  -47.0208 H         1 UNK         0.0600 
    189 H189        2.5998  -15.7988  -47.5942 H         1 UNK         0.3000 
    190 H190       -1.8753  -20.1403  -45.5787 H         1 UNK         0.3000 
    191 H191       -3.7313  -20.5793  -47.6670 H         1 UNK         0.0600 
    192 H192       -4.3185  -19.4797  -45.5301 H         1 UNK         0.0600 
    193 H193       -5.3552  -20.8767  -45.7813 H         1 UNK         0.0600 
    194 H194       -4.0167  -20.9701  -44.6400 H         1 UNK         0.0600 
    195 H195       -2.1500  -22.8838  -45.4468 H         1 UNK         0.3000 
    196 H196       -3.6617  -25.1923  -46.2500 H         1 UNK         0.0600 
    197 H197       -1.9040  -26.4484  -45.0386 H         1 UNK         0.0600 
    198 H198       -2.4459  -25.0758  -44.0841 H         1 UNK         0.0600 
    199 H199       -0.9021  -25.0092  -44.9287 H         1 UNK         0.0600 
    200 H200       -0.4690  -23.8659  -47.2487 H         1 UNK         0.3000 
    201 H201        0.1588  -25.8210  -49.2022 H         1 UNK         0.0600 
    202 H202        1.8217  -24.2471  -48.2431 H         1 UNK         0.0600 
    203 H203        1.0122  -22.8821  -49.0081 H         1 UNK         0.0600 
    204 H204        1.7956  -24.1098  -49.9952 H         1 UNK         0.0600 
    205 H205       -1.6824  -22.7794  -49.4513 H         1 UNK         0.3000 
    206 H206       -2.2059  -22.9214  -52.2773 H         1 UNK         0.0600 
    207 H207       -2.2562  -20.8186  -50.8829 H         1 UNK         0.0600 
    208 H208       -3.7520  -21.0638  -51.7662 H         1 UNK         0.0600 
    209 H209       -3.6809  -21.4187  -50.0447 H         1 UNK         0.0600 
    210 H210       -3.3947  -24.8374  -49.7546 H         1 UNK         0.3000 
    211 H211       -5.0781  -26.2013  -49.3585 H         1 UNK         0.0600 
    212 H212       -5.4327  -26.2392  -52.4009 H         1 UNK         0.0600 
    213 H213       -6.0962  -27.4209  -51.2796 H         1 UNK         0.0600 
    214 H214       -4.3566  -27.2710  -51.4660 H         1 UNK         0.0600 
    215 H215       -5.6625  -23.6884  -48.7621 H         1 UNK         0.3000 
    216 H216       -7.2016  -22.2258  -48.2138 H         1 UNK         0.0600 
    217 H217       -9.5541  -22.8749  -47.9482 H         1 UNK         0.0600 
    218 H218       -8.5277  -24.2034  -47.4344 H         1 UNK         0.0600 
    219 H219       -9.3454  -24.2699  -48.9954 H         1 UNK         0.0600 
    220 H220       -6.0376  -22.0345  -50.6983 H         1 UNK         0.3000 
    221 H221       -5.9607  -20.8211  -52.5400 H         1 UNK         0.0600 
    222 H222       -8.5419  -19.4625  -51.6030 H         1 UNK         0.0600 
    223 H223       -6.9000  -18.9625  -51.1977 H         1 UNK         0.0600 
    224 H224       -7.4615  -18.8840  -52.8608 H         1 UNK         0.0600 
    225 H225       -6.3940  -23.1441  -53.2297 H         1 UNK         0.3000 
    226 H226       -8.8998  -23.8266  -54.4820 H         1 UNK         0.0600 
    227 H227       -7.4520  -25.5399  -53.5120 H         1 UNK         0.0600 
    228 H228       -7.5884  -25.8292  -55.2375 H         1 UNK         0.0600 
    229 H229       -6.1218  -25.1031  -54.5853 H         1 UNK         0.0600 
    230 H230       -8.9841  -21.7509  -55.6771 H         1 UNK         0.3000 
    231 H231       -9.3175  -20.6967  -57.5818 H         1 UNK         0.0600 
    232 H232       -8.1406  -23.0747  -59.1096 H         1 UNK         0.0600 
    233 H233       -9.1507  -21.7982  -59.7673 H         1 UNK         0.0600 
    234 H234       -9.8247  -22.9283  -58.6060 H         1 UNK         0.0600 
    235 H235       -6.4276  -21.0030  -56.2575 H         1 UNK         0.3000 
    236 H236       -5.2568  -18.7509  -57.5347 H         1 UNK         0.0600 
    237 H237       -4.4588  -20.4786  -59.1873 H         1 UNK         0.0600 
    238 H238       -3.1146  -19.9313  -58.2021 H         1 UNK         0.0600 
    239 H239       -3.8670  -21.4862  -57.8681 H         1 UNK         0.0600 
    240 H240       -3.2247  -18.2077  -56.3013 H         1 UNK         0.3000 
    241 H241       -2.0830  -17.8399  -54.4468 H         1 UNK         0.0600 
    242 H242       -5.1679  -17.5192  -54.2116 H         1 UNK         0.3800 
    243 H243       -5.3337  -17.2872  -52.4904 H         1 UNK         0.3800 
    244 H244       -1.5510  -19.9280  -52.9471 H         1 UNK         0.0800 
    245 H245       -2.4749  -20.8465  -54.0725 H         1 UNK         0.0800 
    246 H246        1.8845  -19.9192  -54.5180 H         1 UNK         0.0800 
    247 H247        0.9840  -20.8258  -53.3316 H         1 UNK         0.0800 
@<TRIPOS>BOND
     1    1    2 1    
     2    1  127 1    
     3    1  128 1    
     4    1  129 1    
     5    2    3 2    
     6    2    4 am   BACKBONE|DICT|INTERRES
     7    4    5 1    
     8    4  130 1    
     9    5    6 1    
    10    5   65 1    
    11    5  131 1    
    12    6    7 1    
    13    6  132 1    
    14    6  133 1    
    15    7    8 1    
    16    8    9 1    
    17    8  134 1    
    18    8  135 1    
    19    9   10 ar   
    20    9   14 ar   
    21   10   11 ar   
    22   10  136 1    
    23   11   12 ar   
    24   11  126 1    
    25   12   13 ar   
    26   12  137 1    
    27   13   14 ar   
    28   13   15 1    
    29   14  138 1    
    30   15   16 1    
    31   15  139 1    
    32   15  140 1    
    33   16   17 1    
    34   17   18 1    
    35   17  141 1    
    36   17  142 1    
    37   18   19 1    
    38   18   67 1    
    39   18  143 1    
    40   19   20 am   BACKBONE|DICT|INTERRES
    41   19  144 1    
    42   20   21 2    
    43   20   22 1    
    44   22   23 1    
    45   22   24 1    
    46   22  145 1    
    47   23  146 1    
    48   23  147 1    
    49   23  148 1    
    50   24   25 am   BACKBONE|DICT|INTERRES
    51   24  149 1    
    52   25   26 2    
    53   25   27 1    
    54   27   28 1    
    55   27   29 1    
    56   27  150 1    
    57   28  151 1    
    58   28  152 1    
    59   28  153 1    
    60   29   30 am   BACKBONE|DICT|INTERRES
    61   29  154 1    
    62   30   31 2    
    63   30   32 1    
    64   32   33 1    
    65   32   34 1    
    66   32  155 1    
    67   33  156 1    
    68   33  157 1    
    69   33  158 1    
    70   34   35 am   BACKBONE|DICT|INTERRES
    71   34  159 1    
    72   35   36 2    
    73   35   37 1    
    74   37   38 1    
    75   37   39 1    
    76   37  160 1    
    77   38  161 1    
    78   38  162 1    
    79   38  163 1    
    80   39   40 am   BACKBONE|DICT|INTERRES
    81   39  164 1    
    82   40   41 2    
    83   40   42 1    
    84   42   43 1    
    85   42   44 1    
    86   42  165 1    
    87   43  166 1    
    88   43  167 1    
    89   43  168 1    
    90   44   45 am   BACKBONE|DICT|INTERRES
    91   44  169 1    
    92   45   46 2    
    93   45   47 1    
    94   47   48 1    
    95   47   49 1    
    96   47  170 1    
    97   48  171 1    
    98   48  172 1    
    99   48  173 1    
   100   49   50 am   BACKBONE|DICT|INTERRES
   101   49  174 1    
   102   50   51 2    
   103   50   52 1    
   104   52   53 1    
   105   52   54 1    
   106   52  175 1    
   107   53  176 1    
   108   53  177 1    
   109   53  178 1    
   110   54   55 am   BACKBONE|DICT|INTERRES
   111   54  179 1    
   112   55   56 2    
   113   55   57 1    
   114   57   58 1    
   115   57   59 1    
   116   57  180 1    
   117   58  181 1    
   118   58  182 1    
   119   58  183 1    
   120   59   60 am   BACKBONE|DICT|INTERRES
   121   59  184 1    
   122   60   61 2    
   123   60   62 1    
   124   62   63 1    
   125   62   64 1    
   126   62  185 1    
   127   63  186 1    
   128   63  187 1    
   129   63  188 1    
   130   64   65 am   BACKBONE|DICT|INTERRES
   131   64  189 1    
   132   65   66 2    
   133   67   68 2    
   134   67   69 am   BACKBONE|DICT|INTERRES
   135   69   70 1    
   136   69  190 1    
   137   70   71 1    
   138   70   72 1    
   139   70  191 1    
   140   71  192 1    
   141   71  193 1    
   142   71  194 1    
   143   72   73 2    
   144   72   74 am   BACKBONE|DICT|INTERRES
   145   74   75 1    
   146   74  195 1    
   147   75   76 1    
   148   75   77 1    
   149   75  196 1    
   150   76  197 1    
   151   76  198 1    
   152   76  199 1    
   153   77   78 2    
   154   77   79 am   BACKBONE|DICT|INTERRES
   155   79   80 1    
   156   79  200 1    
   157   80   81 1    
   158   80   82 1    
   159   80  201 1    
   160   81  202 1    
   161   81  203 1    
   162   81  204 1    
   163   82   83 2    
   164   82   84 am   BACKBONE|DICT|INTERRES
   165   84   85 1    
   166   84  205 1    
   167   85   86 1    
   168   85   87 1    
   169   85  206 1    
   170   86  207 1    
   171   86  208 1    
   172   86  209 1    
   173   87   88 2    
   174   87   89 am   BACKBONE|DICT|INTERRES
   175   89   90 1    
   176   89  210 1    
   177   90   91 1    
   178   90   92 1    
   179   90  211 1    
   180   91  212 1    
   181   91  213 1    
   182   91  214 1    
   183   92   93 2    
   184   92   94 am   BACKBONE|DICT|INTERRES
   185   94   95 1    
   186   94  215 1    
   187   95   96 1    
   188   95   97 1    
   189   95  216 1    
   190   96  217 1    
   191   96  218 1    
   192   96  219 1    
   193   97   98 2    
   194   97   99 am   BACKBONE|DICT|INTERRES
   195   99  100 1    
   196   99  220 1    
   197  100  101 1    
   198  100  102 1    
   199  100  221 1    
   200  101  222 1    
   201  101  223 1    
   202  101  224 1    
   203  102  103 2    
   204  102  104 am   BACKBONE|DICT|INTERRES
   205  104  105 1    
   206  104  225 1    
   207  105  106 1    
   208  105  107 1    
   209  105  226 1    
   210  106  227 1    
   211  106  228 1    
   212  106  229 1    
   213  107  108 2    
   214  107  109 am   BACKBONE|DICT|INTERRES
   215  109  110 1    
   216  109  230 1    
   217  110  111 1    
   218  110  112 1    
   219  110  231 1    
   220  111  232 1    
   221  111  233 1    
   222  111  234 1    
   223  112  113 2    
   224  112  114 am   BACKBONE|DICT|INTERRES
   225  114  115 1    
   226  114  235 1    
   227  115  116 1    
   228  115  117 1    
   229  115  236 1    
   230  116  237 1    
   231  116  238 1    
   232  116  239 1    
   233  117  118 2    
   234  117  119 am   BACKBONE|DICT|INTERRES
   235  119  120 1    
   236  119  240 1    
   237  120  121 1    
   238  120  124 1    
   239  120  241 1    
   240  121  122 am   BACKBONE|DICT|INTERRES
   241  121  123 2    
   242  122  242 1    
   243  122  243 1    
   244  124  125 1    
   245  124  244 1    
   246  124  245 1    
   247  125  126 1    
   248  126  246 1    
   249  126  247 1    
@<TRIPOS>SUBSTRUCTURE
     1 UNK         1 GROUP             0       ****    0 ROOT    
