@<TRIPOS>MOLECULE
3R540
247   249    1
SMALL
USER_CHARGES


@<TRIPOS>ATOM
      1 CA         -4.3413  -10.2565  -44.7608 C.3       0 UNK        -0.1800 
      2 C          -3.1596  -11.0540  -45.2926 C.2       0 UNK         0.5000 
      3 O          -2.0156  -10.7518  -44.9561 O.2       0 UNK        -0.5000 
      4 N          -3.4288  -12.0802  -46.1115 N.am      1 UNK        -0.5000 
      5 CA         -2.4246  -12.9595  -46.7289 C.3       1 UNK         0.1400 
      6 C6         -3.0804  -13.8980  -47.7735 C.3       23 UNK        -0.0398 
      7 S7         -1.8945  -14.5325  -49.0043 S.3       23 UNK        -0.2404 
      8 C8         -2.5773  -16.1873  -49.3227 C.3       23 UNK        -0.0205 
      9 C9         -1.7006  -16.9513  -50.3001 C.ar      23 UNK        -0.0193 
     10 C10        -1.8792  -16.8013  -51.6793 C.ar      23 UNK        -0.1150 
     11 C11        -1.0603  -17.4885  -52.5816 C.ar      23 UNK        -0.0193 
     12 C12        -0.0562  -18.3258  -52.0879 C.ar      23 UNK        -0.1150 
     13 C13         0.1206  -18.4987  -50.7136 C.ar      23 UNK        -0.0193 
     14 C14        -0.7004  -17.8017  -49.8228 C.ar      23 UNK        -0.1150 
     15 C15         1.2112  -19.4282  -50.2058 C.3       23 UNK        -0.0205 
     16 S16         0.5179  -20.9810  -49.5578 S.3       23 UNK        -0.2404 
     17 C17         0.5630  -20.6270  -47.7731 C.3       23 UNK        -0.0398 
     18 CA         -0.3994  -21.5031  -46.9443 C.3       11 UNK         0.1400 
     19 N           0.0365  -21.5763  -45.5487 N.am      11 UNK        -0.5000 
     20 C          -0.4646  -22.4114  -44.6297 C.2       10 UNK         0.5000 
     21 O          -1.3300  -23.2517  -44.8694 O.2       10 UNK        -0.5000 
     22 CA          0.0597  -22.2439  -43.1918 C.3       10 UNK         0.1400 
     23 CB          1.3880  -22.9915  -43.0052 C.3       10 UNK        -0.1800 
     24 N           0.2372  -20.8383  -42.8255 N.am      10 UNK        -0.5000 
     25 C          -0.7594  -19.9462  -42.7367 C.2       9 UNK         0.5000 
     26 O          -1.9461  -20.2283  -42.8956 O.2       9 UNK        -0.5000 
     27 CA         -0.3573  -18.4813  -42.5022 C.3       9 UNK         0.1400 
     28 CB         -0.0006  -18.2286  -41.0302 C.3       9 UNK        -0.1800 
     29 N           0.7497  -18.0753  -43.3695 N.am      9 UNK        -0.5000 
     30 C           0.6625  -17.9759  -44.7040 C.2       8 UNK         0.5000 
     31 O          -0.3778  -18.1534  -45.3317 O.2       8 UNK        -0.5000 
     32 CA          1.9514  -17.6696  -45.4807 C.3       8 UNK         0.1400 
     33 CB          2.0371  -16.1815  -45.8250 C.3       8 UNK        -0.1800 
     34 N           3.1510  -18.0930  -44.7601 N.am      8 UNK        -0.5000 
     35 C           3.5309  -19.3749  -44.6780 C.2       7 UNK         0.5000 
     36 O           2.8926  -20.3059  -45.1729 O.2       7 UNK        -0.5000 
     37 CA          4.8123  -19.6679  -43.8800 C.3       7 UNK         0.1400 
     38 CB          6.0465  -19.0866  -44.5877 C.3       7 UNK        -0.1800 
     39 N           4.7743  -19.1863  -42.4974 N.am      7 UNK        -0.5000 
     40 C           3.8588  -19.5222  -41.5778 C.2       6 UNK         0.5000 
     41 O           2.8558  -20.1906  -41.8221 O.2       6 UNK        -0.5000 
     42 CA          4.0913  -19.0314  -40.1363 C.3       6 UNK         0.1400 
     43 CB          4.5995  -20.1906  -39.2663 C.3       6 UNK        -0.1800 
     44 N           5.0516  -17.9262  -40.0486 N.am      6 UNK        -0.5000 
     45 C           4.8207  -16.6221  -40.2585 C.2       5 UNK         0.5000 
     46 O           5.7299  -15.7958  -40.1692 O.2       5 UNK        -0.5000 
     47 CA          3.3862  -16.1328  -40.5680 C.3       5 UNK         0.1400 
     48 CB          2.6173  -15.8498  -39.2671 C.3       5 UNK        -0.1800 
     49 N           3.3905  -14.9120  -41.3664 N.am      5 UNK        -0.5000 
     50 C           3.7746  -14.8129  -42.6432 C.2       4 UNK         0.5000 
     51 O           4.1280  -15.7796  -43.3232 O.2       4 UNK        -0.5000 
     52 CA          3.7047  -13.3943  -43.2503 C.3       4 UNK         0.1400 
     53 CB          4.1662  -13.3252  -44.7163 C.3       4 UNK        -0.1800 
     54 N           2.3520  -12.8392  -43.1408 N.am      4 UNK        -0.5000 
     55 C           1.8573  -12.2395  -42.0487 C.2       3 UNK         0.5000 
     56 O           2.5224  -12.0299  -41.0330 O.2       3 UNK        -0.5000 
     57 CA          0.3660  -11.8503  -42.0659 C.3       3 UNK         0.1400 
     58 CB          0.1942  -10.4135  -42.5791 C.3       3 UNK        -0.1800 
     59 N          -0.4900  -12.7543  -42.8426 N.am      3 UNK        -0.5000 
     60 C          -0.6610  -14.0615  -42.5857 C.2       2 UNK         0.5000 
     61 O          -0.0738  -14.6503  -41.6789 O.2       2 UNK        -0.5000 
     62 CA         -1.6627  -14.8562  -43.4519 C.3       2 UNK         0.1400 
     63 CB         -2.8100  -15.4040  -42.5867 C.3       2 UNK        -0.1800 
     64 N          -2.2457  -14.1073  -44.5650 N.am      2 UNK        -0.5000 
     65 C          -1.6018  -13.7494  -45.6840 C.2       1 UNK         0.5000 
     66 O          -0.4089  -13.9749  -45.8813 O.2       1 UNK        -0.5000 
     67 C          -1.8674  -21.0362  -47.0681 C.2       11 UNK         0.5000 
     68 O          -2.6405  -21.6511  -47.8033 O.2       11 UNK        -0.5000 
     69 N          -2.2408  -19.9915  -46.3146 N.am      12 UNK        -0.5000 
     70 CA         -3.6040  -19.4689  -46.2142 C.3       12 UNK         0.1400 
     71 CB         -3.5959  -18.1389  -45.4448 C.3       12 UNK        -0.1800 
     72 C          -4.5771  -20.4713  -45.5678 C.2       12 UNK         0.5000 
     73 O          -5.7005  -20.6125  -46.0500 O.2       12 UNK        -0.5000 
     74 N          -4.1210  -21.1913  -44.5316 N.am      13 UNK        -0.5000 
     75 CA         -4.8550  -22.2883  -43.8901 C.3       13 UNK         0.1400 
     76 CB         -4.1160  -22.7341  -42.6200 C.3       13 UNK        -0.1800 
     77 C          -5.0929  -23.4845  -44.8341 C.2       13 UNK         0.5000 
     78 O          -6.1286  -24.1421  -44.7338 O.2       13 UNK        -0.5000 
     79 N          -4.1641  -23.7002  -45.7751 N.am      14 UNK        -0.5000 
     80 CA         -4.2739  -24.6372  -46.8946 C.3       14 UNK         0.1400 
     81 CB         -2.8621  -25.0967  -47.3007 C.3       14 UNK        -0.1800 
     82 C          -5.0511  -24.0528  -48.0972 C.2       14 UNK         0.5000 
     83 O          -4.9488  -24.5934  -49.1987 O.2       14 UNK        -0.5000 
     84 N          -5.8030  -22.9624  -47.8825 N.am      15 UNK        -0.5000 
     85 CA         -6.6644  -22.2624  -48.8388 C.3       15 UNK         0.1400 
     86 CB         -7.8422  -23.1614  -49.2715 C.3       15 UNK        -0.1800 
     87 C          -5.8852  -21.6665  -50.0265 C.2       15 UNK         0.5000 
     88 O          -6.3415  -21.7627  -51.1653 O.2       15 UNK        -0.5000 
     89 N          -4.7160  -21.0762  -49.7326 N.am      16 UNK        -0.5000 
     90 CA         -3.7482  -20.5112  -50.6804 C.3       16 UNK         0.1400 
     91 CB         -4.3558  -19.3241  -51.4572 C.3       16 UNK        -0.1800 
     92 C          -3.1686  -21.6073  -51.5933 C.2       16 UNK         0.5000 
     93 O          -3.1946  -21.4766  -52.8174 O.2       16 UNK        -0.5000 
     94 N          -2.7228  -22.7076  -50.9658 N.am      17 UNK        -0.5000 
     95 CA         -2.2585  -23.9503  -51.5970 C.3       17 UNK         0.1400 
     96 CB         -0.9021  -23.7262  -52.2972 C.3       17 UNK        -0.1800 
     97 C          -3.3315  -24.5523  -52.5319 C.2       17 UNK         0.5000 
     98 O          -3.0671  -24.8178  -53.7065 O.2       17 UNK        -0.5000 
     99 N          -4.5540  -24.6776  -51.9943 N.am      18 UNK        -0.5000 
    100 CA        -5.7962  -25.0967  -52.6550 C.3       18 UNK         0.1400 
    101 CB        -5.7060  -26.5780  -53.0762 C.3       18 UNK        -0.1800 
    102 C         -6.2437  -24.1851  -53.8217 C.2       18 UNK         0.5000 
    103 O         -7.0896  -24.5969  -54.6173 O.2       18 UNK        -0.5000 
    104 N         -5.6641  -22.9776  -53.9149 N.am      19 UNK        -0.5000 
    105 CA        -5.8199  -21.9790  -54.9762 C.3       19 UNK         0.1400 
    106 CB        -7.2433  -21.3865  -54.9646 C.3       19 UNK        -0.1800 
    107 C         -5.3954  -22.5027  -56.3656 C.2       19 UNK         0.5000 
    108 O         -5.8979  -22.0257  -57.3855 O.2       19 UNK        -0.5000 
    109 N         -4.4739  -23.4764  -56.3907 N.am      20 UNK        -0.5000 
    110 CA        -4.0138  -24.1927  -57.5805 C.3       20 UNK         0.1400 
    111 CB        -3.4673  -25.5627  -57.1398 C.3       20 UNK        -0.1800 
    112 C         -2.9933  -23.3746  -58.3990 C.2       20 UNK         0.5000 
    113 O         -1.8630  -23.8224  -58.6008 O.2       20 UNK        -0.5000 
    114 N         -3.4164  -22.1805  -58.8406 N.am      21 UNK        -0.5000 
    115 CA        -2.6525  -21.1828  -59.5999 C.3       21 UNK         0.1400 
    116 CB        -2.3744  -21.6878  -61.0313 C.3       21 UNK        -0.1800 
    117 C         -1.3780  -20.7363  -58.8528 C.2       21 UNK         0.5000 
    118 O         -0.2803  -20.7677  -59.4140 O.2       21 UNK        -0.5000 
    119 N         -1.5549  -20.3771  -57.5748 N.am      22 UNK        -0.5000 
    120 CA        -0.4847  -19.9789  -56.6513 C.3       22 UNK         0.1400 
    121 C          0.2928  -18.6966  -57.0745 C.2       22 UNK         0.5000 
    122 N          1.5337  -18.5465  -56.6297 N.am      22 UNK        -0.7600 
    123 O         -0.2218  -17.8236  -57.7708 O.2       22 UNK        -0.5000 
    124 C124       -0.9981  -19.9081  -55.1884 C.3       23 UNK        -0.0398 
    125 S125       -2.2414  -18.6037  -54.8597 S.3       23 UNK        -0.2404 
    126 C126       -1.2350  -17.2929  -54.0829 C.3       23 UNK        -0.0205 
    127 H127       -5.2914  -10.6429  -45.1306 H         1 UNK         0.0600 
    128 H128       -4.2563   -9.2133  -45.0651 H         1 UNK         0.0600 
    129 H129       -4.3588  -10.2946  -43.6716 H         1 UNK         0.0600 
    130 H130       -4.3912  -12.2752  -46.3489 H         1 UNK         0.3000 
    131 H131       -1.7264  -12.3031  -47.2533 H         1 UNK         0.0600 
    132 H132       -3.5998  -14.7241  -47.2840 H         1 UNK         0.0800 
    133 H133       -3.8437  -13.3566  -48.3343 H         1 UNK         0.0800 
    134 H134       -2.6585  -16.7381  -48.3842 H         1 UNK         0.0800 
    135 H135       -3.5893  -16.0962  -49.7203 H         1 UNK         0.0800 
    136 H136       -2.6513  -16.1414  -52.0493 H         1 UNK         0.1150 
    137 H137        0.6037  -18.8387  -52.7696 H         1 UNK         0.1150 
    138 H138       -0.5612  -17.9105  -48.7575 H         1 UNK         0.1150 
    139 H139        1.9046  -19.6745  -51.0113 H         1 UNK         0.0800 
    140 H140        1.8074  -18.9215  -49.4455 H         1 UNK         0.0800 
    141 H141        0.3747  -19.5701  -47.5905 H         1 UNK         0.0800 
    142 H142        1.5918  -20.8052  -47.4575 H         1 UNK         0.0800 
    143 H143       -0.3505  -22.5217  -47.3357 H         1 UNK         0.0600 
    144 H144        0.7819  -20.9503  -45.2694 H         1 UNK         0.3000 
    145 H145       -0.6765  -22.6795  -42.5135 H         1 UNK         0.0600 
    146 H146        1.2827  -24.0468  -43.2602 H         1 UNK         0.0600 
    147 H147        2.1760  -22.5762  -43.6349 H         1 UNK         0.0600 
    148 H148        1.7269  -22.9380  -41.9704 H         1 UNK         0.0600 
    149 H149        1.1903  -20.5364  -42.6380 H         1 UNK         0.3000 
    150 H150       -1.2216  -17.8639  -42.7497 H         1 UNK         0.0600 
    151 H151        0.2506  -17.1827  -40.8587 H         1 UNK         0.0600 
    152 H152        0.8421  -18.8359  -40.7031 H         1 UNK         0.0600 
    153 H153       -0.8445  -18.4677  -40.3821 H         1 UNK         0.0600 
    154 H154        1.6533  -17.9509  -42.9406 H         1 UNK         0.3000 
    155 H155        1.9127  -18.2163  -46.4243 H         1 UNK         0.0600 
    156 H156        1.9118  -15.5555  -44.9416 H         1 UNK         0.0600 
    157 H157        1.2531  -15.9097  -46.5323 H         1 UNK         0.0600 
    158 H158        2.9914  -15.9383  -46.2917 H         1 UNK         0.0600 
    159 H159        3.6922  -17.3662  -44.2966 H         1 UNK         0.3000 
    160 H160        4.9271  -20.7531  -43.8417 H         1 UNK         0.0600 
    161 H161        6.0974  -19.4213  -45.6247 H         1 UNK         0.0600 
    162 H162        6.9672  -19.4065  -44.0995 H         1 UNK         0.0600 
    163 H163        6.0330  -17.9958  -44.5942 H         1 UNK         0.0600 
    164 H164        5.5474  -18.6065  -42.2055 H         1 UNK         0.3000 
    165 H165        3.1284  -18.7216  -39.7299 H         1 UNK         0.0600 
    166 H166        4.7123  -19.8832  -38.2263 H         1 UNK         0.0600 
    167 H167        3.8998  -21.0276  -39.2810 H         1 UNK         0.0600 
    168 H168        5.5642  -20.5636  -39.6129 H         1 UNK         0.0600 
    169 H169        5.9950  -18.2000  -39.8156 H         1 UNK         0.3000 
    170 H170        2.8459  -16.8835  -41.1437 H         1 UNK         0.0600 
    171 H171        1.5980  -15.5233  -39.4755 H         1 UNK         0.0600 
    172 H172        2.5500  -16.7381  -38.6389 H         1 UNK         0.0600 
    173 H173        3.1021  -15.0705  -38.6776 H         1 UNK         0.0600 
    174 H174        3.1163  -14.0595  -40.8932 H         1 UNK         0.3000 
    175 H175        4.3954  -12.7769  -42.6720 H         1 UNK         0.0600 
    176 H176        3.4647  -13.8130  -45.3898 H         1 UNK         0.0600 
    177 H177        4.2656  -12.2898  -45.0422 H         1 UNK         0.0600 
    178 H178        5.1398  -13.7990  -44.8482 H         1 UNK         0.0600 
    179 H179        1.7260  -13.0123  -43.9147 H         1 UNK         0.3000 
    180 H180        0.0150  -11.8819  -41.0324 H         1 UNK         0.0600 
    181 H181       -0.8404  -10.0828  -42.4860 H         1 UNK         0.0600 
    182 H182        0.4821  -10.3248  -43.6274 H         1 UNK         0.0600 
    183 H183        0.8090   -9.7163  -42.0085 H         1 UNK         0.0600 
    184 H184       -1.0054  -12.3376  -43.6076 H         1 UNK         0.3000 
    185 H185       -1.1160  -15.7025  -43.8701 H         1 UNK         0.0600 
    186 H186       -3.4139  -14.5988  -42.1667 H         1 UNK         0.0600 
    187 H187       -3.4685  -16.0505  -43.1666 H         1 UNK         0.0600 
    188 H188       -2.4313  -15.9953  -41.7521 H         1 UNK         0.0600 
    189 H189       -3.2147  -13.8410  -44.4679 H         1 UNK         0.3000 
    190 H190       -1.5352  -19.4904  -45.7793 H         1 UNK         0.3000 
    191 H191       -3.9582  -19.2690  -47.2277 H         1 UNK         0.0600 
    192 H192       -3.2146  -18.2646  -44.4311 H         1 UNK         0.0600 
    193 H193       -4.6012  -17.7229  -45.3695 H         1 UNK         0.0600 
    194 H194       -2.9737  -17.3957  -45.9438 H         1 UNK         0.0600 
    195 H195       -3.2096  -20.9660  -44.1417 H         1 UNK         0.3000 
    196 H196       -5.8332  -21.9037  -43.5945 H         1 UNK         0.0600 
    197 H197       -4.6657  -23.5229  -42.1051 H         1 UNK         0.0600 
    198 H198       -4.0016  -21.9070  -41.9192 H         1 UNK         0.0600 
    199 H199       -3.1229  -23.1212  -42.8464 H         1 UNK         0.0600 
    200 H200       -3.3191  -23.1417  -45.7479 H         1 UNK         0.3000 
    201 H201       -4.8258  -25.5181  -46.5615 H         1 UNK         0.0600 
    202 H202       -2.3257  -25.5170  -46.4499 H         1 UNK         0.0600 
    203 H203       -2.2665  -24.2742  -47.6956 H         1 UNK         0.0600 
    204 H204       -2.9039  -25.8697  -48.0689 H         1 UNK         0.0600 
    205 H205       -5.7754  -22.5450  -46.9605 H         1 UNK         0.3000 
    206 H206       -7.0868  -21.4117  -48.3026 H         1 UNK         0.0600 
    207 H207       -8.5512  -22.6078  -49.8881 H         1 UNK         0.0600 
    208 H208       -7.5070  -24.0208  -49.8517 H         1 UNK         0.0600 
    209 H209       -8.3899  -23.5350  -48.4063 H         1 UNK         0.0600 
    210 H210       -4.3783  -21.1493  -48.7795 H         1 UNK         0.3000 
    211 H211       -2.9129  -20.1253  -50.0940 H         1 UNK         0.0600 
    212 H212       -5.2024  -19.6217  -52.0755 H         1 UNK         0.0600 
    213 H213       -3.6177  -18.8862  -52.1270 H         1 UNK         0.0600 
    214 H214       -4.6897  -18.5385  -50.7799 H         1 UNK         0.0600 
    215 H215       -2.7695  -22.7159  -49.9549 H         1 UNK         0.3000 
    216 H216       -2.1051  -24.6717  -50.7931 H         1 UNK         0.0600 
    217 H217       -0.5086  -24.6630  -52.6932 H         1 UNK         0.0600 
    218 H218       -0.1616  -23.3305  -51.6023 H         1 UNK         0.0600 
    219 H219       -0.9847  -23.0280  -53.1308 H         1 UNK         0.0600 
    220 H220       -4.6596  -24.4580  -51.0049 H         1 UNK         0.3000 
    221 H221       -6.5765  -25.0155  -51.8977 H         1 UNK         0.0600 
    222 H222       -4.9914  -26.7252  -53.8866 H         1 UNK         0.0600 
    223 H223       -5.4008  -27.2074  -52.2402 H         1 UNK         0.0600 
    224 H224       -6.6718  -26.9481  -53.4218 H         1 UNK         0.0600 
    225 H225       -4.9906  -22.7266  -53.2011 H         1 UNK         0.3000 
    226 H226       -5.1272  -21.1717  -54.7349 H         1 UNK         0.0600 
    227 H227       -7.5085  -21.0247  -53.9709 H         1 UNK         0.0600 
    228 H228       -7.3212  -20.5406  -55.6484 H         1 UNK         0.0600 
    229 H229       -7.9909  -22.1207  -55.2657 H         1 UNK         0.0600 
    230 H230       -4.0886  -23.7906  -55.5077 H         1 UNK         0.3000 
    231 H231       -4.8722  -24.3760  -58.2302 H         1 UNK         0.0600 
    232 H232       -2.6045  -25.4581  -56.4805 H         1 UNK         0.0600 
    233 H233       -4.2258  -26.1358  -56.6059 H         1 UNK         0.0600 
    234 H234       -3.1568  -26.1574  -57.9997 H         1 UNK         0.0600 
    235 H235       -4.3609  -21.9118  -58.5779 H         1 UNK         0.3000 
    236 H236       -3.2875  -20.2993  -59.6803 H         1 UNK         0.0600 
    237 H237       -1.7183  -22.5588  -61.0352 H         1 UNK         0.0600 
    238 H238       -3.2992  -21.9631  -61.5381 H         1 UNK         0.0600 
    239 H239       -1.8942  -20.9140  -61.6312 H         1 UNK         0.0600 
    240 H240       -2.4909  -20.3578  -57.1993 H         1 UNK         0.3000 
    241 H241        0.2413  -20.7938  -56.6866 H         1 UNK         0.0600 
    242 H242        2.0468  -17.7180  -56.8887 H         1 UNK         0.3800 
    243 H243        1.9864  -19.2479  -56.0645 H         1 UNK         0.3800 
    244 H244       -1.4513  -20.8634  -54.9192 H         1 UNK         0.0800 
    245 H245       -0.1544  -19.8019  -54.5123 H         1 UNK         0.0800 
    246 H246       -1.7194  -16.3341  -54.2730 H         1 UNK         0.0800 
    247 H247       -0.2592  -17.2309  -54.5657 H         1 UNK         0.0800 
@<TRIPOS>BOND
     1    1    2 1    
     2    1  127 1    
     3    1  128 1    
     4    1  129 1    
     5    2    3 2    
     6    2    4 am   BACKBONE|DICT|INTERRES
     7    4    5 1    
     8    4  130 1    
     9    5    6 1    
    10    5   65 1    
    11    5  131 1    
    12    6    7 1    
    13    6  132 1    
    14    6  133 1    
    15    7    8 1    
    16    8    9 1    
    17    8  134 1    
    18    8  135 1    
    19    9   10 ar   
    20    9   14 ar   
    21   10   11 ar   
    22   10  136 1    
    23   11   12 ar   
    24   11  126 1    
    25   12   13 ar   
    26   12  137 1    
    27   13   14 ar   
    28   13   15 1    
    29   14  138 1    
    30   15   16 1    
    31   15  139 1    
    32   15  140 1    
    33   16   17 1    
    34   17   18 1    
    35   17  141 1    
    36   17  142 1    
    37   18   19 1    
    38   18   67 1    
    39   18  143 1    
    40   19   20 am   BACKBONE|DICT|INTERRES
    41   19  144 1    
    42   20   21 2    
    43   20   22 1    
    44   22   23 1    
    45   22   24 1    
    46   22  145 1    
    47   23  146 1    
    48   23  147 1    
    49   23  148 1    
    50   24   25 am   BACKBONE|DICT|INTERRES
    51   24  149 1    
    52   25   26 2    
    53   25   27 1    
    54   27   28 1    
    55   27   29 1    
    56   27  150 1    
    57   28  151 1    
    58   28  152 1    
    59   28  153 1    
    60   29   30 am   BACKBONE|DICT|INTERRES
    61   29  154 1    
    62   30   31 2    
    63   30   32 1    
    64   32   33 1    
    65   32   34 1    
    66   32  155 1    
    67   33  156 1    
    68   33  157 1    
    69   33  158 1    
    70   34   35 am   BACKBONE|DICT|INTERRES
    71   34  159 1    
    72   35   36 2    
    73   35   37 1    
    74   37   38 1    
    75   37   39 1    
    76   37  160 1    
    77   38  161 1    
    78   38  162 1    
    79   38  163 1    
    80   39   40 am   BACKBONE|DICT|INTERRES
    81   39  164 1    
    82   40   41 2    
    83   40   42 1    
    84   42   43 1    
    85   42   44 1    
    86   42  165 1    
    87   43  166 1    
    88   43  167 1    
    89   43  168 1    
    90   44   45 am   BACKBONE|DICT|INTERRES
    91   44  169 1    
    92   45   46 2    
    93   45   47 1    
    94   47   48 1    
    95   47   49 1    
    96   47  170 1    
    97   48  171 1    
    98   48  172 1    
    99   48  173 1    
   100   49   50 am   BACKBONE|DICT|INTERRES
   101   49  174 1    
   102   50   51 2    
   103   50   52 1    
   104   52   53 1    
   105   52   54 1    
   106   52  175 1    
   107   53  176 1    
   108   53  177 1    
   109   53  178 1    
   110   54   55 am   BACKBONE|DICT|INTERRES
   111   54  179 1    
   112   55   56 2    
   113   55   57 1    
   114   57   58 1    
   115   57   59 1    
   116   57  180 1    
   117   58  181 1    
   118   58  182 1    
   119   58  183 1    
   120   59   60 am   BACKBONE|DICT|INTERRES
   121   59  184 1    
   122   60   61 2    
   123   60   62 1    
   124   62   63 1    
   125   62   64 1    
   126   62  185 1    
   127   63  186 1    
   128   63  187 1    
   129   63  188 1    
   130   64   65 am   BACKBONE|DICT|INTERRES
   131   64  189 1    
   132   65   66 2    
   133   67   68 2    
   134   67   69 am   BACKBONE|DICT|INTERRES
   135   69   70 1    
   136   69  190 1    
   137   70   71 1    
   138   70   72 1    
   139   70  191 1    
   140   71  192 1    
   141   71  193 1    
   142   71  194 1    
   143   72   73 2    
   144   72   74 am   BACKBONE|DICT|INTERRES
   145   74   75 1    
   146   74  195 1    
   147   75   76 1    
   148   75   77 1    
   149   75  196 1    
   150   76  197 1    
   151   76  198 1    
   152   76  199 1    
   153   77   78 2    
   154   77   79 am   BACKBONE|DICT|INTERRES
   155   79   80 1    
   156   79  200 1    
   157   80   81 1    
   158   80   82 1    
   159   80  201 1    
   160   81  202 1    
   161   81  203 1    
   162   81  204 1    
   163   82   83 2    
   164   82   84 am   BACKBONE|DICT|INTERRES
   165   84   85 1    
   166   84  205 1    
   167   85   86 1    
   168   85   87 1    
   169   85  206 1    
   170   86  207 1    
   171   86  208 1    
   172   86  209 1    
   173   87   88 2    
   174   87   89 am   BACKBONE|DICT|INTERRES
   175   89   90 1    
   176   89  210 1    
   177   90   91 1    
   178   90   92 1    
   179   90  211 1    
   180   91  212 1    
   181   91  213 1    
   182   91  214 1    
   183   92   93 2    
   184   92   94 am   BACKBONE|DICT|INTERRES
   185   94   95 1    
   186   94  215 1    
   187   95   96 1    
   188   95   97 1    
   189   95  216 1    
   190   96  217 1    
   191   96  218 1    
   192   96  219 1    
   193   97   98 2    
   194   97   99 am   BACKBONE|DICT|INTERRES
   195   99  100 1    
   196   99  220 1    
   197  100  101 1    
   198  100  102 1    
   199  100  221 1    
   200  101  222 1    
   201  101  223 1    
   202  101  224 1    
   203  102  103 2    
   204  102  104 am   BACKBONE|DICT|INTERRES
   205  104  105 1    
   206  104  225 1    
   207  105  106 1    
   208  105  107 1    
   209  105  226 1    
   210  106  227 1    
   211  106  228 1    
   212  106  229 1    
   213  107  108 2    
   214  107  109 am   BACKBONE|DICT|INTERRES
   215  109  110 1    
   216  109  230 1    
   217  110  111 1    
   218  110  112 1    
   219  110  231 1    
   220  111  232 1    
   221  111  233 1    
   222  111  234 1    
   223  112  113 2    
   224  112  114 am   BACKBONE|DICT|INTERRES
   225  114  115 1    
   226  114  235 1    
   227  115  116 1    
   228  115  117 1    
   229  115  236 1    
   230  116  237 1    
   231  116  238 1    
   232  116  239 1    
   233  117  118 2    
   234  117  119 am   BACKBONE|DICT|INTERRES
   235  119  120 1    
   236  119  240 1    
   237  120  121 1    
   238  120  124 1    
   239  120  241 1    
   240  121  122 am   BACKBONE|DICT|INTERRES
   241  121  123 2    
   242  122  242 1    
   243  122  243 1    
   244  124  125 1    
   245  124  244 1    
   246  124  245 1    
   247  125  126 1    
   248  126  246 1    
   249  126  247 1    
@<TRIPOS>SUBSTRUCTURE
     1 UNK         1 GROUP             0       ****    0 ROOT    
