@<TRIPOS>MOLECULE
3R540
247   249    1
SMALL
USER_CHARGES


@<TRIPOS>ATOM
      1 CA         -3.1155  -17.4838  -49.5617 C.3       0 UNK        -0.1800 
      2 C          -2.1043  -16.9169  -48.5772 C.2       0 UNK         0.5000 
      3 O          -2.1212  -17.2842  -47.4038 O.2       0 UNK        -0.5000 
      4 N          -1.2257  -16.0249  -49.0553 N.am      1 UNK        -0.5000 
      5 CA         -0.1011  -15.4276  -48.3205 C.3       1 UNK         0.1400 
      6 C6          0.9417  -16.4996  -47.8955 C.3       23 UNK        -0.0398 
      7 S7          2.6881  -16.0366  -48.1703 S.3       23 UNK        -0.2404 
      8 C8          2.8662  -16.0050  -49.9952 C.3       23 UNK        -0.0205 
      9 C9          2.4754  -17.2715  -50.7619 C.ar      23 UNK        -0.0193 
     10 C10         2.2840  -17.1744  -52.1457 C.ar      23 UNK        -0.1150 
     11 C11         1.8775  -18.2832  -52.8937 C.ar      23 UNK        -0.0193 
     12 C12         1.6332  -19.4939  -52.2435 C.ar      23 UNK        -0.1150 
     13 C13         1.8129  -19.6067  -50.8642 C.ar      23 UNK        -0.0193 
     14 C14         2.2882  -18.5129  -50.1399 C.ar      23 UNK        -0.1150 
     15 C15         1.4259  -20.8888  -50.1513 C.3       23 UNK        -0.0205 
     16 S16        -0.3247  -20.8086  -49.6473 S.3       23 UNK        -0.2404 
     17 C17        -0.2002  -20.4699  -47.8596 C.3       23 UNK        -0.0398 
     18 CA         -0.3987  -21.7694  -47.0460 C.3       11 UNK         0.1400 
     19 N           0.3065  -21.7557  -45.7644 N.am      11 UNK        -0.5000 
     20 C           0.6204  -22.8686  -45.0851 C.2       10 UNK         0.5000 
     21 O           0.3702  -24.0038  -45.4894 O.2       10 UNK        -0.5000 
     22 CA          1.2946  -22.6889  -43.7130 C.3       10 UNK         0.1400 
     23 CB          2.7943  -22.4046  -43.8770 C.3       10 UNK        -0.1800 
     24 N           0.6745  -21.6320  -42.9142 N.am      10 UNK        -0.5000 
     25 C          -0.5931  -21.6591  -42.4777 C.2       9 UNK         0.5000 
     26 O          -1.3659  -22.5976  -42.6748 O.2       9 UNK        -0.5000 
     27 CA         -1.0942  -20.4033  -41.7421 C.3       9 UNK         0.1400 
     28 CB         -0.6579  -20.4127  -40.2694 C.3       9 UNK        -0.1800 
     29 N          -0.6402  -19.1690  -42.3842 N.am      9 UNK        -0.5000 
     30 C          -1.0252  -18.7684  -43.6046 C.2       8 UNK         0.5000 
     31 O          -1.8245  -19.3854  -44.3050 O.2       8 UNK        -0.5000 
     32 CA         -0.3579  -17.5001  -44.1563 C.3       8 UNK         0.1400 
     33 CB         -0.9985  -16.2403  -43.5549 C.3       8 UNK        -0.1800 
     34 N           1.0860  -17.5062  -43.9109 N.am      8 UNK        -0.5000 
     35 C           1.9367  -18.3602  -44.5036 C.2       7 UNK         0.5000 
     36 O           1.5907  -19.1727  -45.3600 O.2       7 UNK        -0.5000 
     37 CA          3.4058  -18.3571  -44.0366 C.3       7 UNK         0.1400 
     38 CB          4.2788  -17.5041  -44.9656 C.3       7 UNK        -0.1800 
     39 N           3.5742  -17.9171  -42.6515 N.am      7 UNK        -0.5000 
     40 C           3.1047  -18.5862  -41.5890 C.2       6 UNK         0.5000 
     41 O           2.5180  -19.6659  -41.6730 O.2       6 UNK        -0.5000 
     42 CA          3.2760  -17.9220  -40.2088 C.3       6 UNK         0.1400 
     43 CB          4.5366  -18.4554  -39.5126 C.3       6 UNK        -0.1800 
     44 N           3.3271  -16.4545  -40.2367 N.am      6 UNK        -0.5000 
     45 C           2.3582  -15.6499  -40.6983 C.2       5 UNK         0.5000 
     46 O           1.3357  -16.0740  -41.2362 O.2       5 UNK        -0.5000 
     47 CA          2.5649  -14.1278  -40.5513 C.3       5 UNK         0.1400 
     48 CB          3.6766  -13.7434  -39.5541 C.3       5 UNK        -0.1800 
     49 N           2.8737  -13.5338  -41.8507 N.am      5 UNK        -0.5000 
     50 C           1.9693  -13.1318  -42.7529 C.2       4 UNK         0.5000 
     51 O           0.7513  -13.1513  -42.5613 O.2       4 UNK        -0.5000 
     52 CA          2.5460  -12.6290  -44.0902 C.3       4 UNK         0.1400 
     53 CB          3.2172  -13.7775  -44.8600 C.3       4 UNK        -0.1800 
     54 N           1.5085  -12.0509  -44.9414 N.am      4 UNK        -0.5000 
     55 C           1.1551  -10.7589  -44.9532 C.2       3 UNK         0.5000 
     56 O           1.6929   -9.9011  -44.2509 O.2       3 UNK        -0.5000 
     57 CA          0.0326  -10.3341  -45.9247 C.3       3 UNK         0.1400 
     58 CB          0.6304   -9.6704  -47.1754 C.3       3 UNK        -0.1800 
     59 N          -0.8218  -11.4441  -46.3477 N.am      3 UNK        -0.5000 
     60 C          -1.7607  -12.0159  -45.5832 C.2       2 UNK         0.5000 
     61 O          -2.0786  -11.5959  -44.4701 O.2       2 UNK        -0.5000 
     62 CA         -2.4694  -13.2659  -46.1473 C.3       2 UNK         0.1400 
     63 CB         -3.8816  -12.9080  -46.6360 C.3       2 UNK        -0.1800 
     64 N          -1.7671  -13.9724  -47.2265 N.am      2 UNK        -0.5000 
     65 C          -0.5464  -14.5231  -47.1465 C.2       1 UNK         0.5000 
     66 O           0.2129  -14.3335  -46.1985 O.2       1 UNK        -0.5000 
     67 C          -1.8871  -22.1453  -46.8878 C.2       11 UNK         0.5000 
     68 O          -2.4139  -22.8624  -47.7375 O.2       11 UNK        -0.5000 
     69 N          -2.5375  -21.7238  -45.7925 N.am      12 UNK        -0.5000 
     70 CA         -3.9073  -22.1192  -45.4460 C.3       12 UNK         0.1400 
     71 CB         -4.3966  -21.3316  -44.2227 C.3       12 UNK        -0.1800 
     72 C          -4.0497  -23.6349  -45.2118 C.2       12 UNK         0.5000 
     73 O          -5.0442  -24.2210  -45.6392 O.2       12 UNK        -0.5000 
     74 N          -3.0250  -24.2586  -44.6121 N.am      13 UNK        -0.5000 
     75 CA         -2.9101  -25.7131  -44.4617 C.3       13 UNK         0.1400 
     76 CB         -1.7598  -26.0364  -43.4966 C.3       13 UNK        -0.1800 
     77 C          -2.7341  -26.4595  -45.8036 C.2       13 UNK         0.5000 
     78 O          -3.0758  -27.6392  -45.8860 O.2       13 UNK        -0.5000 
     79 N          -2.2515  -25.7545  -46.8364 N.am      14 UNK        -0.5000 
     80 CA         -2.1656  -26.2102  -48.2264 C.3       14 UNK         0.1400 
     81 CB         -0.8509  -25.6923  -48.8380 C.3       14 UNK        -0.1800 
     82 C          -3.3899  -25.7654  -49.0590 C.2       14 UNK         0.5000 
     83 O          -3.3272  -25.7868  -50.2903 O.2       14 UNK        -0.5000 
     84 N          -4.4726  -25.3458  -48.3847 N.am      15 UNK        -0.5000 
     85 CA         -5.7448  -24.8740  -48.9391 C.3       15 UNK         0.1400 
     86 CB         -6.4853  -26.0227  -49.6565 C.3       15 UNK        -0.1800 
     87 C          -5.5882  -23.6173  -49.8179 C.2       15 UNK         0.5000 
     88 O          -6.2235  -23.5216  -50.8674 O.2       15 UNK        -0.5000 
     89 N          -4.7188  -22.6903  -49.3885 N.am      16 UNK        -0.5000 
     90 CA         -4.3199  -21.4645  -50.0902 C.3       16 UNK         0.1400 
     91 CB         -5.5140  -20.4994  -50.2416 C.3       16 UNK        -0.1800 
     92 C          -3.6126  -21.7831  -51.4228 C.2       16 UNK         0.5000 
     93 O          -3.9107  -21.1680  -52.4496 O.2       16 UNK        -0.5000 
     94 N          -2.7172  -22.7816  -51.3653 N.am      17 UNK        -0.5000 
     95 CA         -1.9918  -23.3998  -52.4779 C.3       17 UNK         0.1400 
     96 CB         -0.9627  -22.4220  -53.0801 C.3       17 UNK        -0.1800 
     97 C          -2.9552  -24.0007  -53.5189 C.2       17 UNK         0.5000 
     98 O          -2.8808  -23.6670  -54.7017 O.2       17 UNK        -0.5000 
     99 N          -3.8685  -24.8551  -53.0333 N.am      18 UNK        -0.5000 
    100 CA        -4.9549  -25.5013  -53.7784 C.3       18 UNK         0.1400 
    101 CB        -4.3914  -26.5509  -54.7587 C.3       18 UNK        -0.1800 
    102 C         -5.8972  -24.4801  -54.4535 C.2       18 UNK         0.5000 
    103 O         -6.1846  -24.5861  -55.6474 O.2       18 UNK        -0.5000 
    104 N         -6.3470  -23.5010  -53.6571 N.am      19 UNK        -0.5000 
    105 CA        -7.2507  -22.4009  -54.0008 C.3       19 UNK         0.1400 
    106 CB        -8.6493  -22.9369  -54.3720 C.3       19 UNK        -0.1800 
    107 C         -6.6873  -21.4122  -55.0443 C.2       19 UNK         0.5000 
    108 O         -7.4650  -20.7531  -55.7373 O.2       19 UNK        -0.5000 
    109 N         -5.3544  -21.2938  -55.1272 N.am      20 UNK        -0.5000 
    110 CA        -4.6742  -20.2856  -55.9426 C.3       20 UNK         0.1400 
    111 CB        -3.2044  -20.6798  -56.1432 C.3       20 UNK        -0.1800 
    112 C         -4.7777  -18.8855  -55.3127 C.2       20 UNK         0.5000 
    113 O         -4.9887  -17.9110  -56.0355 O.2       20 UNK        -0.5000 
    114 N         -4.6484  -18.8260  -53.9772 N.am      21 UNK        -0.5000 
    115 CA        -4.7866  -17.6416  -53.1214 C.3       21 UNK         0.1400 
    116 CB        -6.2577  -17.1814  -53.0760 C.3       21 UNK        -0.1800 
    117 C         -3.8027  -16.4969  -53.4519 C.2       21 UNK         0.5000 
    118 O         -4.1305  -15.3235  -53.2645 O.2       21 UNK        -0.5000 
    119 N         -2.6122  -16.8635  -53.9368 N.am      22 UNK        -0.5000 
    120 CA        -1.4939  -15.9611  -54.2396 C.3       22 UNK         0.1400 
    121 C         -0.7859  -15.3816  -52.9798 C.2       22 UNK         0.5000 
    122 N          0.0933  -14.4031  -53.1532 N.am      22 UNK        -0.7600 
    123 O         -1.0263  -15.7897  -51.8465 O.2       22 UNK        -0.5000 
    124 C124       -0.5093  -16.6012  -55.2563 C.3       23 UNK        -0.0398 
    125 S125       -0.0391  -18.3342  -54.9025 S.3       23 UNK        -0.2404 
    126 C126        1.7075  -18.1925  -54.4025 C.3       23 UNK        -0.0205 
    127 H127       -2.7929  -18.4670  -49.9045 H         1 UNK         0.0600 
    128 H128       -3.2241  -16.8339  -50.4294 H         1 UNK         0.0600 
    129 H129       -4.0927  -17.5852  -49.0895 H         1 UNK         0.0600 
    130 H130       -1.2380  -15.8244  -50.0562 H         1 UNK         0.3000 
    131 H131        0.3658  -14.7535  -49.0384 H         1 UNK         0.0600 
    132 H132        0.8399  -16.7592  -46.8435 H         1 UNK         0.0800 
    133 H133        0.7387  -17.4361  -48.4073 H         1 UNK         0.0800 
    134 H134        3.9079  -15.7789  -50.2257 H         1 UNK         0.0800 
    135 H135        2.2838  -15.1661  -50.3777 H         1 UNK         0.0800 
    136 H136        2.4449  -16.2279  -52.6425 H         1 UNK         0.1150 
    137 H137        1.2794  -20.3415  -52.8126 H         1 UNK         0.1150 
    138 H138        2.4545  -18.6277  -49.0794 H         1 UNK         0.1150 
    139 H139        1.5683  -21.7422  -50.8152 H         1 UNK         0.0800 
    140 H140        2.0743  -21.0664  -49.2922 H         1 UNK         0.0800 
    141 H141       -0.9249  -19.7052  -47.5761 H         1 UNK         0.0800 
    142 H142        0.7791  -20.0350  -47.6617 H         1 UNK         0.0800 
    143 H143        0.0583  -22.5784  -47.6214 H         1 UNK         0.0600 
    144 H144        0.5874  -20.8484  -45.4036 H         1 UNK         0.3000 
    145 H145        1.1851  -23.6253  -43.1618 H         1 UNK         0.0600 
    146 H146        3.2802  -22.2613  -42.9116 H         1 UNK         0.0600 
    147 H147        3.2941  -23.2367  -44.3742 H         1 UNK         0.0600 
    148 H148        2.9698  -21.5140  -44.4790 H         1 UNK         0.0600 
    149 H149        1.2597  -20.8422  -42.6597 H         1 UNK         0.3000 
    150 H150       -2.1856  -20.4142  -41.7702 H         1 UNK         0.0600 
    151 H151       -1.0199  -21.3085  -39.7633 H         1 UNK         0.0600 
    152 H152       -1.0598  -19.5525  -39.7338 H         1 UNK         0.0600 
    153 H153        0.4271  -20.3950  -40.1658 H         1 UNK         0.0600 
    154 H154        0.0510  -18.6222  -41.8909 H         1 UNK         0.3000 
    155 H155       -0.5260  -17.4804  -45.2331 H         1 UNK         0.0600 
    156 H156       -2.0392  -16.1516  -43.8679 H         1 UNK         0.0600 
    157 H157       -0.4827  -15.3371  -43.8785 H         1 UNK         0.0600 
    158 H158       -0.9857  -16.2551  -42.4650 H         1 UNK         0.0600 
    159 H159        1.4185  -16.9020  -43.1682 H         1 UNK         0.3000 
    160 H160        3.7697  -19.3835  -44.0989 H         1 UNK         0.0600 
    161 H161        3.9789  -16.4590  -44.9522 H         1 UNK         0.0600 
    162 H162        4.2027  -17.8513  -45.9970 H         1 UNK         0.0600 
    163 H163        5.3299  -17.5576  -44.6821 H         1 UNK         0.0600 
    164 H164        4.0411  -17.0357  -42.4993 H         1 UNK         0.3000 
    165 H165        2.4096  -18.2069  -39.6084 H         1 UNK         0.0600 
    166 H166        4.6152  -18.0771  -38.4932 H         1 UNK         0.0600 
    167 H167        4.5191  -19.5445  -39.4523 H         1 UNK         0.0600 
    168 H168        5.4430  -18.1708  -40.0485 H         1 UNK         0.0600 
    169 H169        4.1404  -16.0288  -39.8162 H         1 UNK         0.3000 
    170 H170        1.6270  -13.7146  -40.1743 H         1 UNK         0.0600 
    171 H171        3.7143  -12.6625  -39.4167 H         1 UNK         0.0600 
    172 H172        3.4949  -14.1818  -38.5717 H         1 UNK         0.0600 
    173 H173        4.6635  -14.0644  -39.8897 H         1 UNK         0.0600 
    174 H174        3.8523  -13.4886  -42.0949 H         1 UNK         0.3000 
    175 H175        3.3033  -11.8727  -43.8736 H         1 UNK         0.0600 
    176 H176        2.5334  -14.6146  -45.0041 H         1 UNK         0.0600 
    177 H177        3.5559  -13.4523  -45.8439 H         1 UNK         0.0600 
    178 H178        4.0914  -14.1509  -44.3266 H         1 UNK         0.0600 
    179 H179        0.9654  -12.7202  -45.4800 H         1 UNK         0.3000 
    180 H180       -0.5851   -9.5948  -45.4103 H         1 UNK         0.0600 
    181 H181        1.2555  -10.3643  -47.7389 H         1 UNK         0.0600 
    182 H182        1.2508   -8.8148  -46.9054 H         1 UNK         0.0600 
    183 H183       -0.1521   -9.3052  -47.8409 H         1 UNK         0.0600 
    184 H184       -0.6262  -11.8542  -47.2486 H         1 UNK         0.3000 
    185 H185       -2.5667  -13.9695  -45.3181 H         1 UNK         0.0600 
    186 H186       -4.4372  -13.8000  -46.9265 H         1 UNK         0.0600 
    187 H187       -4.4553  -12.4124  -45.8517 H         1 UNK         0.0600 
    188 H188       -3.8500  -12.2358  -47.4944 H         1 UNK         0.0600 
    189 H189       -2.3112  -14.1755  -48.0524 H         1 UNK         0.3000 
    190 H190       -2.0823  -21.0709  -45.1597 H         1 UNK         0.3000 
    191 H191       -4.5485  -21.8570  -46.2901 H         1 UNK         0.0600 
    192 H192       -4.3973  -20.2595  -44.4192 H         1 UNK         0.0600 
    193 H193       -5.4171  -21.6125  -43.9596 H         1 UNK         0.0600 
    194 H194       -3.7711  -21.5134  -43.3492 H         1 UNK         0.0600 
    195 H195       -2.2652  -23.6992  -44.2392 H         1 UNK         0.3000 
    196 H196       -3.8371  -26.0734  -44.0108 H         1 UNK         0.0600 
    197 H197       -1.6943  -27.1096  -43.3138 H         1 UNK         0.0600 
    198 H198       -1.9057  -25.5502  -42.5318 H         1 UNK         0.0600 
    199 H199       -0.7972  -25.7132  -43.8912 H         1 UNK         0.0600 
    200 H200       -2.0129  -24.7832  -46.6828 H         1 UNK         0.3000 
    201 H201       -2.1402  -27.3011  -48.2542 H         1 UNK         0.0600 
    202 H202        0.0068  -25.9809  -48.2301 H         1 UNK         0.0600 
    203 H203       -0.8436  -24.6064  -48.9299 H         1 UNK         0.0600 
    204 H204       -0.6934  -26.1044  -49.8353 H         1 UNK         0.0600 
    205 H205       -4.4150  -25.3103  -47.3742 H         1 UNK         0.3000 
    206 H206       -6.3565  -24.5709  -48.0886 H         1 UNK         0.0600 
    207 H207       -6.6031  -26.8848  -49.0001 H         1 UNK         0.0600 
    208 H208       -7.4846  -25.7124  -49.9643 H         1 UNK         0.0600 
    209 H209       -5.9564  -26.3526  -50.5507 H         1 UNK         0.0600 
    210 H210       -4.1611  -22.9046  -48.5670 H         1 UNK         0.3000 
    211 H211       -3.5788  -20.9732  -49.4583 H         1 UNK         0.0600 
    212 H212       -6.2570  -20.8722  -50.9467 H         1 UNK         0.0600 
    213 H213       -5.1831  -19.5276  -50.6024 H         1 UNK         0.0600 
    214 H214       -6.0107  -20.3349  -49.2856 H         1 UNK         0.0600 
    215 H215       -2.5804  -23.2217  -50.4660 H         1 UNK         0.3000 
    216 H216       -1.4364  -24.2402  -52.0586 H         1 UNK         0.0600 
    217 H217       -0.4365  -22.8700  -53.9236 H         1 UNK         0.0600 
    218 H218       -1.4242  -21.5001  -53.4305 H         1 UNK         0.0600 
    219 H219       -0.2115  -22.1538  -52.3411 H         1 UNK         0.0600 
    220 H220       -3.8219  -25.0792  -52.0423 H         1 UNK         0.3000 
    221 H221       -5.5583  -26.0321  -53.0408 H         1 UNK         0.0600 
    222 H222       -3.7986  -26.0913  -55.5501 H         1 UNK         0.0600 
    223 H223       -3.7586  -27.2722  -54.2416 H         1 UNK         0.0600 
    224 H224       -5.1967  -27.1100  -55.2363 H         1 UNK         0.0600 
    225 H225       -6.0801  -23.5259  -52.6738 H         1 UNK         0.3000 
    226 H226       -7.3612  -21.8214  -53.0833 H         1 UNK         0.0600 
    227 H227       -9.0272  -23.6142  -53.6061 H         1 UNK         0.0600 
    228 H228       -9.3695  -22.1234  -54.4656 H         1 UNK         0.0600 
    229 H229       -8.6387  -23.4740  -55.3207 H         1 UNK         0.0600 
    230 H230       -4.7756  -21.8472  -54.5076 H         1 UNK         0.3000 
    231 H231       -5.1504  -20.2511  -56.9248 H         1 UNK         0.0600 
    232 H232       -2.6741  -20.7440  -55.1939 H         1 UNK         0.0600 
    233 H233       -2.6829  -19.9473  -56.7605 H         1 UNK         0.0600 
    234 H234       -3.1196  -21.6460  -56.6406 H         1 UNK         0.0600 
    235 H235       -4.4419  -19.6944  -53.4864 H         1 UNK         0.3000 
    236 H236       -4.5177  -17.9709  -52.1195 H         1 UNK         0.0600 
    237 H237       -6.9184  -18.0042  -52.8026 H         1 UNK         0.0600 
    238 H238       -6.4007  -16.3933  -52.3358 H         1 UNK         0.0600 
    239 H239       -6.5878  -16.7914  -54.0392 H         1 UNK         0.0600 
    240 H240       -2.4130  -17.8480  -54.0373 H         1 UNK         0.3000 
    241 H241       -1.9305  -15.0920  -54.7357 H         1 UNK         0.0600 
    242 H242        0.2942  -14.0217  -54.0641 H         1 UNK         0.3800 
    243 H243        0.5462  -14.0093  -52.3450 H         1 UNK         0.3800 
    244 H244        0.3794  -15.9847  -55.3942 H         1 UNK         0.0800 
    245 H245       -0.9912  -16.6126  -56.2348 H         1 UNK         0.0800 
    246 H246        2.2629  -19.0105  -54.8632 H         1 UNK         0.0800 
    247 H247        2.1515  -17.2759  -54.7922 H         1 UNK         0.0800 
@<TRIPOS>BOND
     1    1    2 1    
     2    1  127 1    
     3    1  128 1    
     4    1  129 1    
     5    2    3 2    
     6    2    4 am   BACKBONE|DICT|INTERRES
     7    4    5 1    
     8    4  130 1    
     9    5    6 1    
    10    5   65 1    
    11    5  131 1    
    12    6    7 1    
    13    6  132 1    
    14    6  133 1    
    15    7    8 1    
    16    8    9 1    
    17    8  134 1    
    18    8  135 1    
    19    9   10 ar   
    20    9   14 ar   
    21   10   11 ar   
    22   10  136 1    
    23   11   12 ar   
    24   11  126 1    
    25   12   13 ar   
    26   12  137 1    
    27   13   14 ar   
    28   13   15 1    
    29   14  138 1    
    30   15   16 1    
    31   15  139 1    
    32   15  140 1    
    33   16   17 1    
    34   17   18 1    
    35   17  141 1    
    36   17  142 1    
    37   18   19 1    
    38   18   67 1    
    39   18  143 1    
    40   19   20 am   BACKBONE|DICT|INTERRES
    41   19  144 1    
    42   20   21 2    
    43   20   22 1    
    44   22   23 1    
    45   22   24 1    
    46   22  145 1    
    47   23  146 1    
    48   23  147 1    
    49   23  148 1    
    50   24   25 am   BACKBONE|DICT|INTERRES
    51   24  149 1    
    52   25   26 2    
    53   25   27 1    
    54   27   28 1    
    55   27   29 1    
    56   27  150 1    
    57   28  151 1    
    58   28  152 1    
    59   28  153 1    
    60   29   30 am   BACKBONE|DICT|INTERRES
    61   29  154 1    
    62   30   31 2    
    63   30   32 1    
    64   32   33 1    
    65   32   34 1    
    66   32  155 1    
    67   33  156 1    
    68   33  157 1    
    69   33  158 1    
    70   34   35 am   BACKBONE|DICT|INTERRES
    71   34  159 1    
    72   35   36 2    
    73   35   37 1    
    74   37   38 1    
    75   37   39 1    
    76   37  160 1    
    77   38  161 1    
    78   38  162 1    
    79   38  163 1    
    80   39   40 am   BACKBONE|DICT|INTERRES
    81   39  164 1    
    82   40   41 2    
    83   40   42 1    
    84   42   43 1    
    85   42   44 1    
    86   42  165 1    
    87   43  166 1    
    88   43  167 1    
    89   43  168 1    
    90   44   45 am   BACKBONE|DICT|INTERRES
    91   44  169 1    
    92   45   46 2    
    93   45   47 1    
    94   47   48 1    
    95   47   49 1    
    96   47  170 1    
    97   48  171 1    
    98   48  172 1    
    99   48  173 1    
   100   49   50 am   BACKBONE|DICT|INTERRES
   101   49  174 1    
   102   50   51 2    
   103   50   52 1    
   104   52   53 1    
   105   52   54 1    
   106   52  175 1    
   107   53  176 1    
   108   53  177 1    
   109   53  178 1    
   110   54   55 am   BACKBONE|DICT|INTERRES
   111   54  179 1    
   112   55   56 2    
   113   55   57 1    
   114   57   58 1    
   115   57   59 1    
   116   57  180 1    
   117   58  181 1    
   118   58  182 1    
   119   58  183 1    
   120   59   60 am   BACKBONE|DICT|INTERRES
   121   59  184 1    
   122   60   61 2    
   123   60   62 1    
   124   62   63 1    
   125   62   64 1    
   126   62  185 1    
   127   63  186 1    
   128   63  187 1    
   129   63  188 1    
   130   64   65 am   BACKBONE|DICT|INTERRES
   131   64  189 1    
   132   65   66 2    
   133   67   68 2    
   134   67   69 am   BACKBONE|DICT|INTERRES
   135   69   70 1    
   136   69  190 1    
   137   70   71 1    
   138   70   72 1    
   139   70  191 1    
   140   71  192 1    
   141   71  193 1    
   142   71  194 1    
   143   72   73 2    
   144   72   74 am   BACKBONE|DICT|INTERRES
   145   74   75 1    
   146   74  195 1    
   147   75   76 1    
   148   75   77 1    
   149   75  196 1    
   150   76  197 1    
   151   76  198 1    
   152   76  199 1    
   153   77   78 2    
   154   77   79 am   BACKBONE|DICT|INTERRES
   155   79   80 1    
   156   79  200 1    
   157   80   81 1    
   158   80   82 1    
   159   80  201 1    
   160   81  202 1    
   161   81  203 1    
   162   81  204 1    
   163   82   83 2    
   164   82   84 am   BACKBONE|DICT|INTERRES
   165   84   85 1    
   166   84  205 1    
   167   85   86 1    
   168   85   87 1    
   169   85  206 1    
   170   86  207 1    
   171   86  208 1    
   172   86  209 1    
   173   87   88 2    
   174   87   89 am   BACKBONE|DICT|INTERRES
   175   89   90 1    
   176   89  210 1    
   177   90   91 1    
   178   90   92 1    
   179   90  211 1    
   180   91  212 1    
   181   91  213 1    
   182   91  214 1    
   183   92   93 2    
   184   92   94 am   BACKBONE|DICT|INTERRES
   185   94   95 1    
   186   94  215 1    
   187   95   96 1    
   188   95   97 1    
   189   95  216 1    
   190   96  217 1    
   191   96  218 1    
   192   96  219 1    
   193   97   98 2    
   194   97   99 am   BACKBONE|DICT|INTERRES
   195   99  100 1    
   196   99  220 1    
   197  100  101 1    
   198  100  102 1    
   199  100  221 1    
   200  101  222 1    
   201  101  223 1    
   202  101  224 1    
   203  102  103 2    
   204  102  104 am   BACKBONE|DICT|INTERRES
   205  104  105 1    
   206  104  225 1    
   207  105  106 1    
   208  105  107 1    
   209  105  226 1    
   210  106  227 1    
   211  106  228 1    
   212  106  229 1    
   213  107  108 2    
   214  107  109 am   BACKBONE|DICT|INTERRES
   215  109  110 1    
   216  109  230 1    
   217  110  111 1    
   218  110  112 1    
   219  110  231 1    
   220  111  232 1    
   221  111  233 1    
   222  111  234 1    
   223  112  113 2    
   224  112  114 am   BACKBONE|DICT|INTERRES
   225  114  115 1    
   226  114  235 1    
   227  115  116 1    
   228  115  117 1    
   229  115  236 1    
   230  116  237 1    
   231  116  238 1    
   232  116  239 1    
   233  117  118 2    
   234  117  119 am   BACKBONE|DICT|INTERRES
   235  119  120 1    
   236  119  240 1    
   237  120  121 1    
   238  120  124 1    
   239  120  241 1    
   240  121  122 am   BACKBONE|DICT|INTERRES
   241  121  123 2    
   242  122  242 1    
   243  122  243 1    
   244  124  125 1    
   245  124  244 1    
   246  124  245 1    
   247  125  126 1    
   248  126  246 1    
   249  126  247 1    
@<TRIPOS>SUBSTRUCTURE
     1 UNK         1 GROUP             0       ****    0 ROOT    
