@<TRIPOS>MOLECULE
3R540
247   249    1
SMALL
USER_CHARGES


@<TRIPOS>ATOM
      1 CA         -0.4962  -11.5763  -52.0323 C.3       0 UNK        -0.1800 
      2 C           0.5196  -11.7773  -50.9167 C.2       0 UNK         0.5000 
      3 O           1.6336  -11.2602  -51.0016 O.2       0 UNK        -0.5000 
      4 N           0.1393  -12.5256  -49.8732 N.am      1 UNK        -0.5000 
      5 CA          0.9854  -12.8470  -48.7142 C.3       1 UNK         0.1400 
      6 C6          0.4332  -14.0430  -47.9006 C.3       23 UNK        -0.0398 
      7 S7          0.1264  -15.5220  -48.9253 S.3       23 UNK        -0.2404 
      8 C8          1.6989  -16.4205  -48.7260 C.3       23 UNK        -0.0205 
      9 C9          1.8146  -17.6199  -49.6618 C.ar      23 UNK        -0.0193 
     10 C10         1.5007  -17.4959  -51.0210 C.ar      23 UNK        -0.1150 
     11 C11         1.6336  -18.5838  -51.8866 C.ar      23 UNK        -0.0193 
     12 C12         2.1107  -19.7990  -51.3928 C.ar      23 UNK        -0.1150 
     13 C13         2.4353  -19.9383  -50.0416 C.ar      23 UNK        -0.0193 
     14 C14         2.2789  -18.8484  -49.1779 C.ar      23 UNK        -0.1150 
     15 C15         2.9670  -21.2686  -49.5318 C.3       23 UNK        -0.0205 
     16 S16         1.6377  -22.4984  -49.3622 S.3       23 UNK        -0.2404 
     17 C17         0.7378  -21.8395  -47.9242 C.3       23 UNK        -0.0398 
     18 CA          0.0740  -22.9491  -47.0750 C.3       11 UNK         0.1400 
     19 N           0.0273  -22.5768  -45.6590 N.am      11 UNK        -0.5000 
     20 C          -0.2586  -23.4156  -44.6554 C.2       10 UNK         0.5000 
     21 O          -0.5243  -24.6061  -44.8161 O.2       10 UNK        -0.5000 
     22 CA         -0.2924  -22.8130  -43.2393 C.3       10 UNK         0.1400 
     23 CB          1.1297  -22.6144  -42.6941 C.3       10 UNK        -0.1800 
     24 N          -1.0236  -21.5465  -43.1826 N.am      10 UNK        -0.5000 
     25 C          -2.3316  -21.4206  -43.4487 C.2       9 UNK         0.5000 
     26 O          -3.0628  -22.3645  -43.7449 O.2       9 UNK        -0.5000 
     27 CA         -2.9162  -19.9988  -43.4253 C.3       9 UNK         0.1400 
     28 CB         -3.1669  -19.5345  -41.9829 C.3       9 UNK        -0.1800 
     29 N          -2.0713  -19.0258  -44.1149 N.am      9 UNK        -0.5000 
     30 C          -1.7444  -19.0754  -45.4147 C.2       8 UNK         0.5000 
     31 O          -2.1247  -19.9510  -46.1903 O.2       8 UNK        -0.5000 
     32 CA         -0.7829  -17.9859  -45.9169 C.3       8 UNK         0.1400 
     33 CB         -1.5112  -16.6353  -46.0063 C.3       8 UNK        -0.1800 
     34 N           0.3989  -17.8564  -45.0626 N.am      8 UNK        -0.5000 
     35 C           1.2574  -18.8483  -44.7805 C.2       7 UNK         0.5000 
     36 O           1.1784  -19.9824  -45.2474 O.2       7 UNK        -0.5000 
     37 CA          2.3578  -18.5392  -43.7553 C.3       7 UNK         0.1400 
     38 CB          3.5250  -17.7921  -44.4167 C.3       7 UNK        -0.1800 
     39 N           1.8356  -17.7681  -42.6279 N.am      7 UNK        -0.5000 
     40 C           0.9753  -18.2533  -41.7198 C.2       6 UNK         0.5000 
     41 O           0.5749  -19.4179  -41.7071 O.2       6 UNK        -0.5000 
     42 CA          0.4364  -17.2516  -40.6826 C.3       6 UNK         0.1400 
     43 CB          1.4362  -17.0675  -39.5314 C.3       6 UNK        -0.1800 
     44 N           0.1320  -15.9493  -41.2780 N.am      6 UNK        -0.5000 
     45 C          -0.8487  -15.7392  -42.1675 C.2       5 UNK         0.5000 
     46 O          -1.6331  -16.6134  -42.5342 O.2       5 UNK        -0.5000 
     47 CA         -0.9434  -14.3303  -42.7812 C.3       5 UNK         0.1400 
     48 CB         -1.8577  -13.4308  -41.9374 C.3       5 UNK        -0.1800 
     49 N           0.3573  -13.6779  -42.9418 N.am      5 UNK        -0.5000 
     50 C           1.3413  -14.0969  -43.7471 C.2       4 UNK         0.5000 
     51 O           1.2618  -15.1208  -44.4279 O.2       4 UNK        -0.5000 
     52 CA          2.6176  -13.2284  -43.7847 C.3       4 UNK         0.1400 
     53 CB          3.6310  -13.7021  -44.8417 C.3       4 UNK        -0.1800 
     54 N           2.3190  -11.8106  -44.0078 N.am      4 UNK        -0.5000 
     55 C           1.9184  -10.9494  -43.0602 C.2       3 UNK         0.5000 
     56 O           1.7224  -11.2834  -41.8907 O.2       3 UNK        -0.5000 
     57 CA          1.6794   -9.4818  -43.4666 C.3       3 UNK         0.1400 
     58 CB          2.8752   -8.6110  -43.0518 C.3       3 UNK        -0.1800 
     59 N           1.4331   -9.2937  -44.8959 N.am      3 UNK        -0.5000 
     60 C           0.3251   -9.6754  -45.5436 C.2       2 UNK         0.5000 
     61 O          -0.6290  -10.2306  -44.9964 O.2       2 UNK        -0.5000 
     62 CA          0.2702   -9.4106  -47.0629 C.3       2 UNK         0.1400 
     63 CB          1.3690   -8.4551  -47.5819 C.3       2 UNK        -0.1800 
     64 N           0.2820  -10.6588  -47.8293 N.am      2 UNK        -0.5000 
     65 C           1.2068  -11.6316  -47.7865 C.2       1 UNK         0.5000 
     66 O           2.2004  -11.6009  -47.0586 O.2       1 UNK        -0.5000 
     67 C          -1.3155  -23.3413  -47.6243 C.2       11 UNK         0.5000 
     68 O          -1.4145  -24.2548  -48.4480 O.2       11 UNK        -0.5000 
     69 N          -2.3675  -22.6635  -47.1444 N.am      12 UNK        -0.5000 
     70 CA         -3.7634  -22.9785  -47.4371 C.3       12 UNK         0.1400 
     71 CB         -4.6648  -21.8177  -46.9913 C.3       12 UNK        -0.1800 
     72 C          -4.2053  -24.3007  -46.7886 C.2       12 UNK         0.5000 
     73 O          -4.8114  -25.1293  -47.4668 O.2       12 UNK        -0.5000 
     74 N          -3.8558  -24.5023  -45.5088 N.am      13 UNK        -0.5000 
     75 CA         -4.1278  -25.7270  -44.7480 C.3       13 UNK         0.1400 
     76 CB         -3.7473  -25.5159  -43.2751 C.3       13 UNK        -0.1800 
     77 C          -3.4146  -26.9668  -45.3200 C.2       13 UNK         0.5000 
     78 O          -3.9861  -28.0574  -45.3105 O.2       13 UNK        -0.5000 
     79 N          -2.2008  -26.7671  -45.8506 N.am      14 UNK        -0.5000 
     80 CA         -1.4260  -27.7667  -46.5886 C.3       14 UNK         0.1400 
     81 CB          0.0292  -27.2810  -46.6901 C.3       14 UNK        -0.1800 
     82 C          -1.9846  -28.0690  -47.9960 C.2       14 UNK         0.5000 
     83 O          -1.5239  -29.0206  -48.6272 O.2       14 UNK        -0.5000 
     84 N          -2.9352  -27.2479  -48.4714 N.am      15 UNK        -0.5000 
     85 CA         -3.5605  -27.2627  -49.7985 C.3       15 UNK         0.1400 
     86 CB         -4.3482  -28.5683  -50.0311 C.3       15 UNK        -0.1800 
     87 C          -2.5768  -26.9404  -50.9431 C.2       15 UNK         0.5000 
     88 O          -2.8434  -27.2834  -52.0955 O.2       15 UNK        -0.5000 
     89 N          -1.4686  -26.2658  -50.6118 N.am      16 UNK        -0.5000 
     90 CA         -0.4402  -25.8359  -51.5543 C.3       16 UNK         0.1400 
     91 CB          0.9132  -25.7801  -50.8318 C.3       16 UNK        -0.1800 
     92 C          -0.8077  -24.4862  -52.1914 C.2       16 UNK         0.5000 
     93 O          -0.6687  -24.3334  -53.4052 O.2       16 UNK        -0.5000 
     94 N          -1.3198  -23.5545  -51.3742 N.am      17 UNK        -0.5000 
     95 CA         -1.8842  -22.2828  -51.8379 C.3       17 UNK         0.1400 
     96 CB         -1.6707  -21.2014  -50.7676 C.3       17 UNK        -0.1800 
     97 C          -3.3811  -22.3974  -52.1785 C.2       17 UNK         0.5000 
     98 O          -3.9238  -21.4872  -52.8058 O.2       17 UNK        -0.5000 
     99 N          -4.0275  -23.4893  -51.7387 N.am      18 UNK        -0.5000 
    100 CA        -5.4687  -23.7523  -51.8152 C.3       18 UNK         0.1400 
    101 CB        -5.8988  -23.9956  -53.2791 C.3       18 UNK        -0.1800 
    102 C         -6.2645  -22.6439  -51.0923 C.2       18 UNK         0.5000 
    103 O         -5.8854  -22.2628  -49.9849 O.2       18 UNK        -0.5000 
    104 N         -7.3079  -22.0957  -51.7260 N.am      19 UNK        -0.5000 
    105 CA        -8.0850  -20.9527  -51.2340 C.3       19 UNK         0.1400 
    106 CB        -9.5026  -21.0333  -51.8295 C.3       19 UNK        -0.1800 
    107 C         -7.3878  -19.6041  -51.5353 C.2       19 UNK         0.5000 
    108 O         -8.0383  -18.6674  -52.0023 O.2       19 UNK        -0.5000 
    109 N         -6.0677  -19.5467  -51.2969 N.am      20 UNK        -0.5000 
    110 CA        -5.1363  -18.4626  -51.6371 C.3       20 UNK         0.1400 
    111 CB        -5.3984  -17.2202  -50.7621 C.3       20 UNK        -0.1800 
    112 C         -5.1233  -18.1503  -53.1505 C.2       20 UNK         0.5000 
    113 O         -5.0571  -16.9868  -53.5528 O.2       20 UNK        -0.5000 
    114 N         -5.1944  -19.2114  -53.9656 N.am      21 UNK        -0.5000 
    115 CA        -5.3252  -19.1682  -55.4229 C.3       21 UNK         0.1400 
    116 CB        -5.6080  -20.5890  -55.9345 C.3       21 UNK        -0.1800 
    117 C         -4.0990  -18.5673  -56.1327 C.2       21 UNK         0.5000 
    118 O         -4.2430  -17.9816  -57.2066 O.2       21 UNK        -0.5000 
    119 N         -2.9252  -18.7060  -55.5078 N.am      22 UNK        -0.5000 
    120 CA        -1.6617  -18.0858  -55.9271 C.3       22 UNK         0.1400 
    121 C         -1.5015  -16.5916  -55.5099 C.2       22 UNK         0.5000 
    122 N         -2.4418  -15.9847  -54.7930 N.am      22 UNK        -0.7600 
    123 O         -0.5073  -15.9617  -55.8602 O.2       22 UNK        -0.5000 
    124 C124       -0.4491  -18.9569  -55.5121 C.3       23 UNK        -0.0398 
    125 S125       -0.3254  -19.2421  -53.7116 S.3       23 UNK        -0.2404 
    126 C126        1.2717  -18.4497  -53.3559 C.3       23 UNK        -0.0205 
    127 H127       -1.4335  -12.0935  -51.8257 H         1 UNK         0.0600 
    128 H128       -0.0992  -11.9563  -52.9737 H         1 UNK         0.0600 
    129 H129       -0.7129  -10.5152  -52.1558 H         1 UNK         0.0600 
    130 H130       -0.7771  -12.9509  -49.8749 H         1 UNK         0.3000 
    131 H131        1.9685  -13.1338  -49.0941 H         1 UNK         0.0600 
    132 H132        1.1157  -14.3089  -47.0914 H         1 UNK         0.0800 
    133 H133       -0.5093  -13.7706  -47.4223 H         1 UNK         0.0800 
    134 H134        1.7923  -16.7328  -47.6842 H         1 UNK         0.0800 
    135 H135        2.5299  -15.7436  -48.9281 H         1 UNK         0.0800 
    136 H136        1.1474  -16.5498  -51.4061 H         1 UNK         0.1150 
    137 H137        2.2190  -20.6429  -52.0600 H         1 UNK         0.1150 
    138 H138        2.5311  -18.9540  -48.1318 H         1 UNK         0.1150 
    139 H139        3.4858  -21.1448  -48.5800 H         1 UNK         0.0800 
    140 H140        3.7098  -21.6510  -50.2333 H         1 UNK         0.0800 
    141 H141        0.0243  -21.0753  -48.2376 H         1 UNK         0.0800 
    142 H142        1.4791  -21.3177  -47.3219 H         1 UNK         0.0800 
    143 H143        0.6998  -23.8426  -47.1302 H         1 UNK         0.0600 
    144 H144        0.2610  -21.6112  -45.4387 H         1 UNK         0.3000 
    145 H145       -0.8070  -23.5239  -42.5897 H         1 UNK         0.0600 
    146 H146        1.6897  -23.5502  -42.7127 H         1 UNK         0.0600 
    147 H147        1.1097  -22.2673  -41.6609 H         1 UNK         0.0600 
    148 H148        1.6887  -21.8843  -43.2799 H         1 UNK         0.0600 
    149 H149       -0.4925  -20.7230  -42.9195 H         1 UNK         0.3000 
    150 H150       -3.8762  -20.0274  -43.9445 H         1 UNK         0.0600 
    151 H151       -2.2363  -19.4389  -41.4226 H         1 UNK         0.0600 
    152 H152       -3.8026  -20.2418  -41.4489 H         1 UNK         0.0600 
    153 H153       -3.6684  -18.5668  -41.9630 H         1 UNK         0.0600 
    154 H154       -1.7355  -18.2448  -43.5578 H         1 UNK         0.3000 
    155 H155       -0.4350  -18.2608  -46.9149 H         1 UNK         0.0600 
    156 H156       -0.8107  -15.8150  -46.1435 H         1 UNK         0.0600 
    157 H157       -2.0926  -16.4166  -45.1116 H         1 UNK         0.0600 
    158 H158       -2.2015  -16.6261  -46.8503 H         1 UNK         0.0600 
    159 H159        0.5767  -16.9380  -44.6672 H         1 UNK         0.3000 
    160 H160        2.7377  -19.4875  -43.3694 H         1 UNK         0.0600 
    161 H161        3.1951  -16.8737  -44.9008 H         1 UNK         0.0600 
    162 H162        3.9923  -18.4105  -45.1839 H         1 UNK         0.0600 
    163 H163        4.2964  -17.5353  -43.6907 H         1 UNK         0.0600 
    164 H164        2.0725  -16.7881  -42.5988 H         1 UNK         0.3000 
    165 H165       -0.4876  -17.6630  -40.2705 H         1 UNK         0.0600 
    166 H166        1.0299  -16.4163  -38.7573 H         1 UNK         0.0600 
    167 H167        1.6687  -18.0239  -39.0610 H         1 UNK         0.0600 
    168 H168        2.3758  -16.6341  -39.8761 H         1 UNK         0.0600 
    169 H169        0.7280  -15.1752  -41.0247 H         1 UNK         0.3000 
    170 H170       -1.3876  -14.4320  -43.7732 H         1 UNK         0.0600 
    171 H171       -1.9968  -12.4581  -42.4099 H         1 UNK         0.0600 
    172 H172       -1.4497  -13.2643  -40.9397 H         1 UNK         0.0600 
    173 H173       -2.8453  -13.8787  -41.8192 H         1 UNK         0.0600 
    174 H174        0.5186  -12.8300  -42.4089 H         1 UNK         0.3000 
    175 H175        3.0987  -13.3322  -42.8100 H         1 UNK         0.0600 
    176 H176        4.0018  -14.6989  -44.6051 H         1 UNK         0.0600 
    177 H177        3.1921  -13.7430  -45.8383 H         1 UNK         0.0600 
    178 H178        4.4966  -13.0409  -44.8843 H         1 UNK         0.0600 
    179 H179        2.3919  -11.4862  -44.9664 H         1 UNK         0.3000 
    180 H180        0.7994   -9.1330  -42.9220 H         1 UNK         0.0600 
    181 H181        3.7858   -8.9013  -43.5776 H         1 UNK         0.0600 
    182 H182        3.0715   -8.6992  -41.9824 H         1 UNK         0.0600 
    183 H183        2.6877   -7.5574  -43.2598 H         1 UNK         0.0600 
    184 H184        2.1774   -8.8696  -45.4305 H         1 UNK         0.3000 
    185 H185       -0.6936   -8.9363  -47.2536 H         1 UNK         0.0600 
    186 H186        1.3415   -7.4995  -47.0566 H         1 UNK         0.0600 
    187 H187        2.3703   -8.8719  -47.4688 H         1 UNK         0.0600 
    188 H188        1.2243   -8.2404  -48.6409 H         1 UNK         0.0600 
    189 H189       -0.5052  -10.7970  -48.4467 H         1 UNK         0.3000 
    190 H190       -2.2041  -21.8689  -46.5325 H         1 UNK         0.3000 
    191 H191       -3.8615  -23.0901  -48.5183 H         1 UNK         0.0600 
    192 H192       -4.4213  -20.9039  -47.5335 H         1 UNK         0.0600 
    193 H193       -5.7141  -22.0404  -47.1885 H         1 UNK         0.0600 
    194 H194       -4.5660  -21.6123  -45.9255 H         1 UNK         0.0600 
    195 H195       -3.3937  -23.7519  -45.0009 H         1 UNK         0.3000 
    196 H196       -5.2023  -25.9147  -44.7973 H         1 UNK         0.0600 
    197 H197       -3.9499  -26.4110  -42.6857 H         1 UNK         0.0600 
    198 H198       -4.3200  -24.7003  -42.8336 H         1 UNK         0.0600 
    199 H199       -2.6886  -25.2804  -43.1632 H         1 UNK         0.0600 
    200 H200       -1.7660  -25.8569  -45.7311 H         1 UNK         0.3000 
    201 H201       -1.4387  -28.7004  -46.0228 H         1 UNK         0.0600 
    202 H202        0.6550  -28.0144  -47.2002 H         1 UNK         0.0600 
    203 H203        0.4609  -27.1187  -45.7024 H         1 UNK         0.0600 
    204 H204        0.1020  -26.3452  -47.2453 H         1 UNK         0.0600 
    205 H205       -3.2590  -26.5038  -47.8648 H         1 UNK         0.3000 
    206 H206       -4.2836  -26.4466  -49.7946 H         1 UNK         0.0600 
    207 H207       -5.0316  -28.7678  -49.2057 H         1 UNK         0.0600 
    208 H208       -4.9486  -28.5062  -50.9394 H         1 UNK         0.0600 
    209 H209       -3.6876  -29.4291  -50.1367 H         1 UNK         0.0600 
    210 H210       -1.3609  -25.9561  -49.6525 H         1 UNK         0.3000 
    211 H211       -0.3554  -26.5693  -52.3593 H         1 UNK         0.0600 
    212 H212        0.8540  -25.1993  -49.9123 H         1 UNK         0.0600 
    213 H213        1.6822  -25.3316  -51.4621 H         1 UNK         0.0600 
    214 H214        1.2522  -26.7810  -50.5644 H         1 UNK         0.0600 
    215 H215       -1.3700  -23.7513  -50.3798 H         1 UNK         0.3000 
    216 H216       -1.3684  -21.9609  -52.7446 H         1 UNK         0.0600 
    217 H217       -2.0861  -20.2458  -51.0893 H         1 UNK         0.0600 
    218 H218       -0.6100  -21.0348  -50.5874 H         1 UNK         0.0600 
    219 H219       -2.1459  -21.4625  -49.8224 H         1 UNK         0.0600 
    220 H220       -3.4845  -24.1610  -51.2196 H         1 UNK         0.3000 
    221 H221       -5.6484  -24.6715  -51.2562 H         1 UNK         0.0600 
    222 H222       -5.7918  -23.1023  -53.8953 H         1 UNK         0.0600 
    223 H223       -5.2946  -24.7809  -53.7337 H         1 UNK         0.0600 
    224 H224       -6.9379  -24.3213  -53.3380 H         1 UNK         0.0600 
    225 H225       -7.5388  -22.4282  -52.6508 H         1 UNK         0.3000 
    226 H226       -8.1798  -21.0256  -50.1485 H         1 UNK         0.0600 
    227 H227       -9.9811  -21.9808  -51.5809 H         1 UNK         0.0600 
    228 H228       -9.4884  -20.9390  -52.9160 H         1 UNK         0.0600 
    229 H229      -10.1396  -20.2393  -51.4375 H         1 UNK         0.0600 
    230 H230       -5.6438  -20.3806  -50.9067 H         1 UNK         0.3000 
    231 H231       -4.1381  -18.8301  -51.3961 H         1 UNK         0.0600 
    232 H232       -6.3640  -16.7648  -50.9836 H         1 UNK         0.0600 
    233 H233       -4.6332  -16.4602  -50.9243 H         1 UNK         0.0600 
    234 H234       -5.3819  -17.4747  -49.7024 H         1 UNK         0.0600 
    235 H235       -5.1121  -20.1330  -53.5461 H         1 UNK         0.3000 
    236 H236       -6.1847  -18.5386  -55.6616 H         1 UNK         0.0600 
    237 H237       -4.7936  -21.2725  -55.6902 H         1 UNK         0.0600 
    238 H238       -6.5235  -20.9897  -55.4989 H         1 UNK         0.0600 
    239 H239       -5.7325  -20.5980  -57.0181 H         1 UNK         0.0600 
    240 H240       -2.9041  -19.1978  -54.6257 H         1 UNK         0.3000 
    241 H241       -1.6589  -18.0667  -57.0185 H         1 UNK         0.0600 
    242 H242       -2.3181  -15.0167  -54.5441 H         1 UNK         0.3800 
    243 H243       -3.2818  -16.4692  -54.4998 H         1 UNK         0.3800 
    244 H244        0.4785  -18.5241  -55.8904 H         1 UNK         0.0800 
    245 H245       -0.5268  -19.9328  -55.9932 H         1 UNK         0.0800 
    246 H246        2.0515  -18.9095  -53.9650 H         1 UNK         0.0800 
    247 H247        1.2264  -17.3988  -53.6467 H         1 UNK         0.0800 
@<TRIPOS>BOND
     1    1    2 1    
     2    1  127 1    
     3    1  128 1    
     4    1  129 1    
     5    2    3 2    
     6    2    4 am   BACKBONE|DICT|INTERRES
     7    4    5 1    
     8    4  130 1    
     9    5    6 1    
    10    5   65 1    
    11    5  131 1    
    12    6    7 1    
    13    6  132 1    
    14    6  133 1    
    15    7    8 1    
    16    8    9 1    
    17    8  134 1    
    18    8  135 1    
    19    9   10 ar   
    20    9   14 ar   
    21   10   11 ar   
    22   10  136 1    
    23   11   12 ar   
    24   11  126 1    
    25   12   13 ar   
    26   12  137 1    
    27   13   14 ar   
    28   13   15 1    
    29   14  138 1    
    30   15   16 1    
    31   15  139 1    
    32   15  140 1    
    33   16   17 1    
    34   17   18 1    
    35   17  141 1    
    36   17  142 1    
    37   18   19 1    
    38   18   67 1    
    39   18  143 1    
    40   19   20 am   BACKBONE|DICT|INTERRES
    41   19  144 1    
    42   20   21 2    
    43   20   22 1    
    44   22   23 1    
    45   22   24 1    
    46   22  145 1    
    47   23  146 1    
    48   23  147 1    
    49   23  148 1    
    50   24   25 am   BACKBONE|DICT|INTERRES
    51   24  149 1    
    52   25   26 2    
    53   25   27 1    
    54   27   28 1    
    55   27   29 1    
    56   27  150 1    
    57   28  151 1    
    58   28  152 1    
    59   28  153 1    
    60   29   30 am   BACKBONE|DICT|INTERRES
    61   29  154 1    
    62   30   31 2    
    63   30   32 1    
    64   32   33 1    
    65   32   34 1    
    66   32  155 1    
    67   33  156 1    
    68   33  157 1    
    69   33  158 1    
    70   34   35 am   BACKBONE|DICT|INTERRES
    71   34  159 1    
    72   35   36 2    
    73   35   37 1    
    74   37   38 1    
    75   37   39 1    
    76   37  160 1    
    77   38  161 1    
    78   38  162 1    
    79   38  163 1    
    80   39   40 am   BACKBONE|DICT|INTERRES
    81   39  164 1    
    82   40   41 2    
    83   40   42 1    
    84   42   43 1    
    85   42   44 1    
    86   42  165 1    
    87   43  166 1    
    88   43  167 1    
    89   43  168 1    
    90   44   45 am   BACKBONE|DICT|INTERRES
    91   44  169 1    
    92   45   46 2    
    93   45   47 1    
    94   47   48 1    
    95   47   49 1    
    96   47  170 1    
    97   48  171 1    
    98   48  172 1    
    99   48  173 1    
   100   49   50 am   BACKBONE|DICT|INTERRES
   101   49  174 1    
   102   50   51 2    
   103   50   52 1    
   104   52   53 1    
   105   52   54 1    
   106   52  175 1    
   107   53  176 1    
   108   53  177 1    
   109   53  178 1    
   110   54   55 am   BACKBONE|DICT|INTERRES
   111   54  179 1    
   112   55   56 2    
   113   55   57 1    
   114   57   58 1    
   115   57   59 1    
   116   57  180 1    
   117   58  181 1    
   118   58  182 1    
   119   58  183 1    
   120   59   60 am   BACKBONE|DICT|INTERRES
   121   59  184 1    
   122   60   61 2    
   123   60   62 1    
   124   62   63 1    
   125   62   64 1    
   126   62  185 1    
   127   63  186 1    
   128   63  187 1    
   129   63  188 1    
   130   64   65 am   BACKBONE|DICT|INTERRES
   131   64  189 1    
   132   65   66 2    
   133   67   68 2    
   134   67   69 am   BACKBONE|DICT|INTERRES
   135   69   70 1    
   136   69  190 1    
   137   70   71 1    
   138   70   72 1    
   139   70  191 1    
   140   71  192 1    
   141   71  193 1    
   142   71  194 1    
   143   72   73 2    
   144   72   74 am   BACKBONE|DICT|INTERRES
   145   74   75 1    
   146   74  195 1    
   147   75   76 1    
   148   75   77 1    
   149   75  196 1    
   150   76  197 1    
   151   76  198 1    
   152   76  199 1    
   153   77   78 2    
   154   77   79 am   BACKBONE|DICT|INTERRES
   155   79   80 1    
   156   79  200 1    
   157   80   81 1    
   158   80   82 1    
   159   80  201 1    
   160   81  202 1    
   161   81  203 1    
   162   81  204 1    
   163   82   83 2    
   164   82   84 am   BACKBONE|DICT|INTERRES
   165   84   85 1    
   166   84  205 1    
   167   85   86 1    
   168   85   87 1    
   169   85  206 1    
   170   86  207 1    
   171   86  208 1    
   172   86  209 1    
   173   87   88 2    
   174   87   89 am   BACKBONE|DICT|INTERRES
   175   89   90 1    
   176   89  210 1    
   177   90   91 1    
   178   90   92 1    
   179   90  211 1    
   180   91  212 1    
   181   91  213 1    
   182   91  214 1    
   183   92   93 2    
   184   92   94 am   BACKBONE|DICT|INTERRES
   185   94   95 1    
   186   94  215 1    
   187   95   96 1    
   188   95   97 1    
   189   95  216 1    
   190   96  217 1    
   191   96  218 1    
   192   96  219 1    
   193   97   98 2    
   194   97   99 am   BACKBONE|DICT|INTERRES
   195   99  100 1    
   196   99  220 1    
   197  100  101 1    
   198  100  102 1    
   199  100  221 1    
   200  101  222 1    
   201  101  223 1    
   202  101  224 1    
   203  102  103 2    
   204  102  104 am   BACKBONE|DICT|INTERRES
   205  104  105 1    
   206  104  225 1    
   207  105  106 1    
   208  105  107 1    
   209  105  226 1    
   210  106  227 1    
   211  106  228 1    
   212  106  229 1    
   213  107  108 2    
   214  107  109 am   BACKBONE|DICT|INTERRES
   215  109  110 1    
   216  109  230 1    
   217  110  111 1    
   218  110  112 1    
   219  110  231 1    
   220  111  232 1    
   221  111  233 1    
   222  111  234 1    
   223  112  113 2    
   224  112  114 am   BACKBONE|DICT|INTERRES
   225  114  115 1    
   226  114  235 1    
   227  115  116 1    
   228  115  117 1    
   229  115  236 1    
   230  116  237 1    
   231  116  238 1    
   232  116  239 1    
   233  117  118 2    
   234  117  119 am   BACKBONE|DICT|INTERRES
   235  119  120 1    
   236  119  240 1    
   237  120  121 1    
   238  120  124 1    
   239  120  241 1    
   240  121  122 am   BACKBONE|DICT|INTERRES
   241  121  123 2    
   242  122  242 1    
   243  122  243 1    
   244  124  125 1    
   245  124  244 1    
   246  124  245 1    
   247  125  126 1    
   248  126  246 1    
   249  126  247 1    
@<TRIPOS>SUBSTRUCTURE
     1 UNK         1 GROUP             0       ****    0 ROOT    
