@<TRIPOS>MOLECULE
3R540
247   249    1
SMALL
USER_CHARGES


@<TRIPOS>ATOM
      1 CA          4.5023  -11.1162  -45.5485 C.3       0 UNK        -0.1800 
      2 C           4.3178  -10.9709  -47.0528 C.2       0 UNK         0.5000 
      3 O           5.0562  -10.2198  -47.6912 O.2       0 UNK        -0.5000 
      4 N           3.3346  -11.6814  -47.6177 N.am      1 UNK        -0.5000 
      5 CA          3.0699  -11.7572  -49.0573 C.3       1 UNK         0.1400 
      6 C6          1.5964  -12.1453  -49.3425 C.3       23 UNK        -0.0398 
      7 S7          1.0667  -13.7488  -48.6454 S.3       23 UNK        -0.2404 
      8 C8         -0.5746  -13.8711  -49.4210 C.3       23 UNK        -0.0205 
      9 C9         -1.3984  -15.0119  -48.8461 C.ar      23 UNK        -0.0193 
     10 C10        -2.3483  -14.7638  -47.8507 C.ar      23 UNK        -0.1150 
     11 C11        -3.1447  -15.8016  -47.3571 C.ar      23 UNK        -0.0193 
     12 C12        -2.9647  -17.0998  -47.8424 C.ar      23 UNK        -0.1150 
     13 C13        -2.0198  -17.3586  -48.8375 C.ar      23 UNK        -0.0193 
     14 C14        -1.2445  -16.3100  -49.3397 C.ar      23 UNK        -0.1150 
     15 C15        -1.8553  -18.7632  -49.3919 C.3       23 UNK        -0.0205 
     16 S16        -0.5016  -19.6565  -48.5709 S.3       23 UNK        -0.2404 
     17 C17        -1.2311  -20.0363  -46.9448 C.3       23 UNK        -0.0398 
     18 CA         -0.5607  -21.2654  -46.2778 C.3       11 UNK         0.1400 
     19 N          -0.4139  -21.0749  -44.8298 N.am      11 UNK        -0.5000 
     20 C           0.3331  -21.8491  -44.0297 C.2       10 UNK         0.5000 
     21 O           0.9585  -22.8328  -44.4222 O.2       10 UNK        -0.5000 
     22 CA          0.3493  -21.4861  -42.5368 C.3       10 UNK         0.1400 
     23 CB          1.2895  -20.3010  -42.2640 C.3       10 UNK        -0.1800 
     24 N          -0.9978  -21.1751  -42.0620 N.am      10 UNK        -0.5000 
     25 C          -1.9161  -22.1041  -41.7590 C.2       9 UNK         0.5000 
     26 O          -1.6900  -23.3143  -41.7639 O.2       9 UNK        -0.5000 
     27 CA         -3.3323  -21.6040  -41.4111 C.3       9 UNK         0.1400 
     28 CB         -3.4697  -21.3907  -39.8962 C.3       9 UNK        -0.1800 
     29 N          -3.7010  -20.3677  -42.1036 N.am      9 UNK        -0.5000 
     30 C          -3.8526  -20.2527  -43.4305 C.2       8 UNK         0.5000 
     31 O          -3.7088  -21.1846  -44.2174 O.2       8 UNK        -0.5000 
     32 CA         -4.1464  -18.8441  -43.9755 C.3       8 UNK         0.1400 
     33 CB         -5.6569  -18.5691  -43.9747 C.3       8 UNK        -0.1800 
     34 N          -3.4512  -17.7850  -43.2376 N.am      8 UNK        -0.5000 
     35 C          -2.1191  -17.6864  -43.1407 C.2       7 UNK         0.5000 
     36 O          -1.3360  -18.5075  -43.6258 O.2       7 UNK        -0.5000 
     37 CA         -1.5668  -16.5065  -42.3277 C.3       7 UNK         0.1400 
     38 CB         -0.9274  -17.0042  -41.0220 C.3       7 UNK        -0.1800 
     39 N          -0.5623  -15.8075  -43.1204 N.am      7 UNK        -0.5000 
     40 C          -0.8427  -14.8908  -44.0557 C.2       6 UNK         0.5000 
     41 O          -1.9631  -14.4066  -44.2175 O.2       6 UNK        -0.5000 
     42 CA          0.3173  -14.4343  -44.9642 C.3       6 UNK         0.1400 
     43 CB          0.8266  -13.0471  -44.5452 C.3       6 UNK        -0.1800 
     44 N           1.4462  -15.3713  -44.9992 N.am      6 UNK        -0.5000 
     45 C           1.4020  -16.5750  -45.5856 C.2       5 UNK         0.5000 
     46 O           0.4230  -17.0001  -46.1928 O.2       5 UNK        -0.5000 
     47 CA          2.6863  -17.4088  -45.5118 C.3       5 UNK         0.1400 
     48 CB          2.4588  -18.8956  -45.8466 C.3       5 UNK        -0.1800 
     49 N           3.6443  -16.8306  -46.4426 N.am      5 UNK        -0.5000 
     50 C           4.9742  -16.9557  -46.3776 C.2       4 UNK         0.5000 
     51 O           5.5596  -17.5341  -45.4602 O.2       4 UNK        -0.5000 
     52 CA          5.7767  -16.3184  -47.5329 C.3       4 UNK         0.1400 
     53 CB          7.1530  -16.9807  -47.7520 C.3       4 UNK        -0.1800 
     54 N           5.0190  -16.2455  -48.7885 N.am      4 UNK        -0.5000 
     55 C           4.5510  -17.2668  -49.5268 C.2       3 UNK         0.5000 
     56 O           4.7480  -18.4524  -49.2600 O.2       3 UNK        -0.5000 
     57 CA          3.6922  -16.9141  -50.7605 C.3       3 UNK         0.1400 
     58 CB          2.2113  -17.2036  -50.4699 C.3       3 UNK        -0.1800 
     59 N           3.8226  -15.5182  -51.1840 N.am      3 UNK        -0.5000 
     60 C           4.9037  -14.9973  -51.7812 C.2       2 UNK         0.5000 
     61 O           5.8723  -15.6686  -52.1385 O.2       2 UNK        -0.5000 
     62 CA          4.9263  -13.4676  -51.9932 C.3       2 UNK         0.1400 
     63 CB          4.5897  -13.1266  -53.4532 C.3       2 UNK        -0.1800 
     64 N           4.0380  -12.6973  -51.1114 N.am      2 UNK        -0.5000 
     65 C           4.0784  -12.6870  -49.7708 C.2       1 UNK         0.5000 
     66 O           4.8474  -13.3932  -49.1131 O.2       1 UNK        -0.5000 
     67 C          -1.2694  -22.5955  -46.6325 C.2       11 UNK         0.5000 
     68 O          -0.9596  -23.2124  -47.6540 O.2       11 UNK        -0.5000 
     69 N          -2.1745  -23.0485  -45.7527 N.am      12 UNK        -0.5000 
     70 CA         -2.8817  -24.3272  -45.8282 C.3       12 UNK         0.1400 
     71 CB         -3.9417  -24.3907  -44.7183 C.3       12 UNK        -0.1800 
     72 C          -1.9683  -25.5641  -45.7607 C.2       12 UNK         0.5000 
     73 O          -2.3511  -26.6071  -46.2897 O.2       12 UNK        -0.5000 
     74 N          -0.7698  -25.4374  -45.1704 N.am      13 UNK        -0.5000 
     75 CA          0.2307  -26.5097  -45.1109 C.3       13 UNK         0.1400 
     76 CB          1.3566  -26.1119  -44.1455 C.3       13 UNK        -0.1800 
     77 C           0.8059  -26.8762  -46.4947 C.2       13 UNK         0.5000 
     78 O           1.2272  -28.0158  -46.6938 O.2       13 UNK        -0.5000 
     79 N           0.7806  -25.9162  -47.4289 N.am      14 UNK        -0.5000 
     80 CA          1.1475  -26.0936  -48.8342 C.3       14 UNK         0.1400 
     81 CB          1.9070  -24.8352  -49.2893 C.3       14 UNK        -0.1800 
     82 C          -0.0856  -26.3339  -49.7315 C.2       14 UNK         0.5000 
     83 O           0.0731  -26.4389  -50.9475 O.2       14 UNK        -0.5000 
     84 N          -1.2893  -26.3574  -49.1331 N.am      15 UNK        -0.5000 
     85 CA         -2.6234  -26.3765  -49.7542 C.3       15 UNK         0.1400 
     86 CB         -2.8276  -27.6355  -50.6195 C.3       15 UNK        -0.1800 
     87 C          -2.9776  -25.0852  -50.5245 C.2       15 UNK         0.5000 
     88 O          -4.0462  -25.0075  -51.1342 O.2       15 UNK        -0.5000 
     89 N          -2.1069  -24.0703  -50.4582 N.am      16 UNK        -0.5000 
     90 CA         -2.2267  -22.8047  -51.1755 C.3       16 UNK         0.1400 
     91 CB         -0.8809  -22.0727  -51.1320 C.3       16 UNK        -0.1800 
     92 C          -3.3838  -21.9265  -50.6731 C.2       16 UNK         0.5000 
     93 O          -3.9153  -21.1372  -51.4520 O.2       16 UNK        -0.5000 
     94 N          -3.8123  -22.1221  -49.4173 N.am      17 UNK        -0.5000 
     95 CA         -5.0182  -21.5068  -48.8521 C.3       17 UNK         0.1400 
     96 CB         -5.1029  -21.8124  -47.3517 C.3       17 UNK        -0.1800 
     97 C          -6.3199  -21.9487  -49.5523 C.2       17 UNK         0.5000 
     98 O          -7.2901  -21.1921  -49.5425 O.2       17 UNK        -0.5000 
     99 N          -6.3158  -23.1485  -50.1487 N.am      18 UNK        -0.5000 
    100 CA        -7.4181  -23.6725  -50.9499 C.3       18 UNK         0.1400 
    101 CB        -7.5798  -25.1756  -50.6708 C.3       18 UNK        -0.1800 
    102 C         -7.1770  -23.4207  -52.4469 C.2       18 UNK         0.5000 
    103 O         -8.1017  -23.0055  -53.1461 O.2       18 UNK        -0.5000 
    104 N         -5.9498  -23.6911  -52.9164 N.am      19 UNK        -0.5000 
    105 CA        -5.5887  -23.6497  -54.3346 C.3       19 UNK         0.1400 
    106 CB        -4.2727  -24.4136  -54.5461 C.3       19 UNK        -0.1800 
    107 C         -5.4942  -22.2304  -54.9266 C.2       19 UNK         0.5000 
    108 O         -5.8094  -22.0583  -56.1052 O.2       19 UNK        -0.5000 
    109 N         -5.0587  -21.2521  -54.1224 N.am      20 UNK        -0.5000 
    110 CA        -4.8801  -19.8564  -54.5320 C.3       20 UNK         0.1400 
    111 CB        -3.3834  -19.5038  -54.4979 C.3       20 UNK        -0.1800 
    112 C         -5.6855  -18.8958  -53.6429 C.2       20 UNK         0.5000 
    113 O         -6.2863  -17.9565  -54.1669 O.2       20 UNK        -0.5000 
    114 N         -5.6919  -19.1595  -52.3281 N.am      21 UNK        -0.5000 
    115 CA        -6.2974  -18.3640  -51.2550 C.3       21 UNK         0.1400 
    116 CB        -7.8236  -18.2307  -51.4508 C.3       21 UNK        -0.1800 
    117 C         -5.5945  -17.0073  -51.0341 C.2       21 UNK         0.5000 
    118 O         -4.5645  -16.7255  -51.6509 O.2       21 UNK        -0.5000 
    119 N         -6.1445  -16.2067  -50.1132 N.am      22 UNK        -0.5000 
    120 CA        -5.5796  -14.9160  -49.6807 C.3       22 UNK         0.1400 
    121 C         -5.7793  -13.7395  -50.6823 C.2       22 UNK         0.5000 
    122 N         -6.5304  -13.9013  -51.7649 N.am      22 UNK        -0.7600 
    123 O         -5.2395  -12.6564  -50.4745 O.2       22 UNK        -0.5000 
    124 C124       -6.0548  -14.5122  -48.2566 C.3       23 UNK        -0.0398 
    125 S125       -5.8932  -15.8328  -47.0012 S.3       23 UNK        -0.2404 
    126 C126       -4.2282  -15.5183  -46.3294 C.3       23 UNK        -0.0205 
    127 H127        5.5415  -11.3525  -45.3195 H         1 UNK         0.0600 
    128 H128        3.8789  -11.9098  -45.1371 H         1 UNK         0.0600 
    129 H129        4.2448  -10.1835  -45.0467 H         1 UNK         0.0600 
    130 H130        2.7812  -12.3065  -47.0510 H         1 UNK         0.3000 
    131 H131        3.2233  -10.7601  -49.4757 H         1 UNK         0.0600 
    132 H132        0.9428  -11.3747  -48.9308 H         1 UNK         0.0800 
    133 H133        1.3994  -12.1449  -50.4157 H         1 UNK         0.0800 
    134 H134       -1.1086  -12.9285  -49.2904 H         1 UNK         0.0800 
    135 H135       -0.4556  -14.0088  -50.4968 H         1 UNK         0.0800 
    136 H136       -2.4833  -13.7588  -47.4769 H         1 UNK         0.1150 
    137 H137       -3.5809  -17.9019  -47.4626 H         1 UNK         0.1150 
    138 H138       -0.5237  -16.5050  -50.1193 H         1 UNK         0.1150 
    139 H139       -2.7848  -19.3228  -49.2946 H         1 UNK         0.0800 
    140 H140       -1.6461  -18.7108  -50.4614 H         1 UNK         0.0800 
    141 H141       -2.3104  -20.1606  -47.0324 H         1 UNK         0.0800 
    142 H142       -1.0908  -19.1444  -46.3328 H         1 UNK         0.0800 
    143 H143        0.4578  -21.3509  -46.6633 H         1 UNK         0.0600 
    144 H144       -0.8714  -20.2618  -44.4284 H         1 UNK         0.3000 
    145 H145        0.7311  -22.3479  -41.9847 H         1 UNK         0.0600 
    146 H146        2.3066  -20.5322  -42.5828 H         1 UNK         0.0600 
    147 H147        1.3277  -20.0664  -41.2002 H         1 UNK         0.0600 
    148 H148        0.9803  -19.4005  -42.7938 H         1 UNK         0.0600 
    149 H149       -1.2765  -20.2044  -42.0938 H         1 UNK         0.3000 
    150 H150       -4.0380  -22.3807  -41.7137 H         1 UNK         0.0600 
    151 H151       -2.8039  -20.6043  -39.5381 H         1 UNK         0.0600 
    152 H152       -3.2248  -22.3024  -39.3496 H         1 UNK         0.0600 
    153 H153       -4.4899  -21.1166  -39.6270 H         1 UNK         0.0600 
    154 H154       -3.8299  -19.5460  -41.5322 H         1 UNK         0.3000 
    155 H155       -3.7947  -18.8130  -45.0091 H         1 UNK         0.0600 
    156 H156       -6.0678  -18.5747  -42.9645 H         1 UNK         0.0600 
    157 H157       -6.1902  -19.3263  -44.5512 H         1 UNK         0.0600 
    158 H158       -5.8849  -17.6027  -44.4236 H         1 UNK         0.0600 
    159 H159       -4.0310  -17.0819  -42.8025 H         1 UNK         0.3000 
    160 H160       -2.3790  -15.8215  -42.0748 H         1 UNK         0.0600 
    161 H161       -0.0966  -17.6854  -41.2097 H         1 UNK         0.0600 
    162 H162       -1.6555  -17.5357  -40.4079 H         1 UNK         0.0600 
    163 H163       -0.5483  -16.1720  -40.4286 H         1 UNK         0.0600 
    164 H164        0.3744  -16.1791  -43.0863 H         1 UNK         0.3000 
    165 H165       -0.0889  -14.3541  -45.9739 H         1 UNK         0.0600 
    166 H166        1.5582  -12.6675  -45.2569 H         1 UNK         0.0600 
    167 H167        0.0097  -12.3250  -44.5094 H         1 UNK         0.0600 
    168 H168        1.2907  -13.0682  -43.5585 H         1 UNK         0.0600 
    169 H169        2.2968  -15.0770  -44.5416 H         1 UNK         0.3000 
    170 H170        3.0716  -17.3368  -44.4926 H         1 UNK         0.0600 
    171 H171        3.3688  -19.4793  -45.7091 H         1 UNK         0.0600 
    172 H172        2.1272  -19.0303  -46.8770 H         1 UNK         0.0600 
    173 H173        1.6969  -19.3230  -45.1970 H         1 UNK         0.0600 
    174 H174        3.2449  -16.3211  -47.2186 H         1 UNK         0.3000 
    175 H175        5.9572  -15.2848  -47.2346 H         1 UNK         0.0600 
    176 H176        7.7776  -16.8869  -46.8630 H         1 UNK         0.0600 
    177 H177        7.0618  -18.0440  -47.9748 H         1 UNK         0.0600 
    178 H178        7.6898  -16.5094  -48.5753 H         1 UNK         0.0600 
    179 H179        4.8191  -15.2974  -49.0971 H         1 UNK         0.3000 
    180 H180        4.0135  -17.5572  -51.5824 H         1 UNK         0.0600 
    181 H181        1.8421  -16.6043  -49.6369 H         1 UNK         0.0600 
    182 H182        2.0599  -18.2514  -50.2065 H         1 UNK         0.0600 
    183 H183        1.5887  -16.9958  -51.3401 H         1 UNK         0.0600 
    184 H184        3.0710  -14.8951  -50.9284 H         1 UNK         0.3000 
    185 H185        5.9471  -13.1356  -51.7932 H         1 UNK         0.0600 
    186 H186        5.2501  -13.6554  -54.1419 H         1 UNK         0.0600 
    187 H187        3.5649  -13.4033  -53.7040 H         1 UNK         0.0600 
    188 H188        4.7085  -12.0606  -53.6482 H         1 UNK         0.0600 
    189 H189        3.3786  -12.0938  -51.5812 H         1 UNK         0.3000 
    190 H190       -2.4405  -22.4409  -44.9830 H         1 UNK         0.3000 
    191 H191       -3.3922  -24.3653  -46.7918 H         1 UNK         0.0600 
    192 H192       -4.6810  -23.5980  -44.8289 H         1 UNK         0.0600 
    193 H193       -4.4817  -25.3381  -44.7431 H         1 UNK         0.0600 
    194 H194       -3.4923  -24.2937  -43.7296 H         1 UNK         0.0600 
    195 H195       -0.5000  -24.5415  -44.7832 H         1 UNK         0.3000 
    196 H196       -0.2586  -27.4002  -44.7105 H         1 UNK         0.0600 
    197 H197        2.0458  -26.9428  -43.9904 H         1 UNK         0.0600 
    198 H198        0.9624  -25.8286  -43.1693 H         1 UNK         0.0600 
    199 H199        1.9396  -25.2747  -44.5300 H         1 UNK         0.0600 
    200 H200        0.4063  -25.0089  -47.1800 H         1 UNK         0.3000 
    201 H201        1.8098  -26.9541  -48.9479 H         1 UNK         0.0600 
    202 H202        2.2462  -24.9303  -50.3215 H         1 UNK         0.0600 
    203 H203        2.7910  -24.6656  -48.6743 H         1 UNK         0.0600 
    204 H204        1.2823  -23.9429  -49.2296 H         1 UNK         0.0600 
    205 H205       -1.3032  -26.3120  -48.1216 H         1 UNK         0.3000 
    206 H206       -3.3339  -26.4313  -48.9285 H         1 UNK         0.0600 
    207 H207       -2.5826  -28.5403  -50.0634 H         1 UNK         0.0600 
    208 H208       -3.8667  -27.7235  -50.9392 H         1 UNK         0.0600 
    209 H209       -2.2140  -27.6163  -51.5203 H         1 UNK         0.0600 
    210 H210       -1.2888  -24.1805  -49.8757 H         1 UNK         0.3000 
    211 H211       -2.4400  -23.0292  -52.2206 H         1 UNK         0.0600 
    212 H212       -0.4949  -22.0098  -50.1161 H         1 UNK         0.0600 
    213 H213       -0.9628  -21.0591  -51.5269 H         1 UNK         0.0600 
    214 H214       -0.1354  -22.5956  -51.7312 H         1 UNK         0.0600 
    215 H215       -3.3108  -22.7825  -48.8418 H         1 UNK         0.3000 
    216 H216       -4.9282  -20.4260  -48.9700 H         1 UNK         0.0600 
    217 H217       -5.9565  -21.3071  -46.8978 H         1 UNK         0.0600 
    218 H218       -4.2153  -21.4695  -46.8256 H         1 UNK         0.0600 
    219 H219       -5.2213  -22.8795  -47.1657 H         1 UNK         0.0600 
    220 H220       -5.4681  -23.7003  -50.1373 H         1 UNK         0.3000 
    221 H221       -8.3538  -23.1819  -50.6731 H         1 UNK         0.0600 
    222 H222       -6.6813  -25.7381  -50.9271 H         1 UNK         0.0600 
    223 H223       -7.7982  -25.3576  -49.6184 H         1 UNK         0.0600 
    224 H224       -8.4041  -25.5928  -51.2505 H         1 UNK         0.0600 
    225 H225       -5.2563  -24.0798  -52.2839 H         1 UNK         0.3000 
    226 H226       -6.3671  -24.1791  -54.8884 H         1 UNK         0.0600 
    227 H227       -4.0259  -24.4767  -55.6067 H         1 UNK         0.0600 
    228 H228       -3.4371  -23.9261  -54.0466 H         1 UNK         0.0600 
    229 H229       -4.3413  -25.4335  -54.1670 H         1 UNK         0.0600 
    230 H230       -4.8222  -21.4702  -53.1609 H         1 UNK         0.3000 
    231 H231       -5.2326  -19.7088  -55.5549 H         1 UNK         0.0600 
    232 H232       -2.9611  -19.6205  -53.4992 H         1 UNK         0.0600 
    233 H233       -3.2199  -18.4695  -54.8030 H         1 UNK         0.0600 
    234 H234       -2.8147  -20.1383  -55.1776 H         1 UNK         0.0600 
    235 H235       -5.0872  -19.9111  -52.0047 H         1 UNK         0.3000 
    236 H236       -6.1315  -18.9308  -50.3406 H         1 UNK         0.0600 
    237 H237       -8.2749  -19.1987  -51.6701 H         1 UNK         0.0600 
    238 H238       -8.3082  -17.8537  -50.5500 H         1 UNK         0.0600 
    239 H239       -8.0745  -17.5513  -52.2656 H         1 UNK         0.0600 
    240 H240       -6.9797  -16.5041  -49.6313 H         1 UNK         0.3000 
    241 H241       -4.4992  -15.0510  -49.6319 H         1 UNK         0.0600 
    242 H242       -6.6492  -13.1333  -52.4068 H         1 UNK         0.3800 
    243 H243       -6.9651  -14.7892  -51.9579 H         1 UNK         0.3800 
    244 H244       -7.1057  -14.2199  -48.2857 H         1 UNK         0.0800 
    245 H245       -5.5100  -13.6328  -47.9087 H         1 UNK         0.0800 
    246 H246       -4.0646  -16.1562  -45.4617 H         1 UNK         0.0800 
    247 H247       -4.1692  -14.4908  -45.9675 H         1 UNK         0.0800 
@<TRIPOS>BOND
     1    1    2 1    
     2    1  127 1    
     3    1  128 1    
     4    1  129 1    
     5    2    3 2    
     6    2    4 am   BACKBONE|DICT|INTERRES
     7    4    5 1    
     8    4  130 1    
     9    5    6 1    
    10    5   65 1    
    11    5  131 1    
    12    6    7 1    
    13    6  132 1    
    14    6  133 1    
    15    7    8 1    
    16    8    9 1    
    17    8  134 1    
    18    8  135 1    
    19    9   10 ar   
    20    9   14 ar   
    21   10   11 ar   
    22   10  136 1    
    23   11   12 ar   
    24   11  126 1    
    25   12   13 ar   
    26   12  137 1    
    27   13   14 ar   
    28   13   15 1    
    29   14  138 1    
    30   15   16 1    
    31   15  139 1    
    32   15  140 1    
    33   16   17 1    
    34   17   18 1    
    35   17  141 1    
    36   17  142 1    
    37   18   19 1    
    38   18   67 1    
    39   18  143 1    
    40   19   20 am   BACKBONE|DICT|INTERRES
    41   19  144 1    
    42   20   21 2    
    43   20   22 1    
    44   22   23 1    
    45   22   24 1    
    46   22  145 1    
    47   23  146 1    
    48   23  147 1    
    49   23  148 1    
    50   24   25 am   BACKBONE|DICT|INTERRES
    51   24  149 1    
    52   25   26 2    
    53   25   27 1    
    54   27   28 1    
    55   27   29 1    
    56   27  150 1    
    57   28  151 1    
    58   28  152 1    
    59   28  153 1    
    60   29   30 am   BACKBONE|DICT|INTERRES
    61   29  154 1    
    62   30   31 2    
    63   30   32 1    
    64   32   33 1    
    65   32   34 1    
    66   32  155 1    
    67   33  156 1    
    68   33  157 1    
    69   33  158 1    
    70   34   35 am   BACKBONE|DICT|INTERRES
    71   34  159 1    
    72   35   36 2    
    73   35   37 1    
    74   37   38 1    
    75   37   39 1    
    76   37  160 1    
    77   38  161 1    
    78   38  162 1    
    79   38  163 1    
    80   39   40 am   BACKBONE|DICT|INTERRES
    81   39  164 1    
    82   40   41 2    
    83   40   42 1    
    84   42   43 1    
    85   42   44 1    
    86   42  165 1    
    87   43  166 1    
    88   43  167 1    
    89   43  168 1    
    90   44   45 am   BACKBONE|DICT|INTERRES
    91   44  169 1    
    92   45   46 2    
    93   45   47 1    
    94   47   48 1    
    95   47   49 1    
    96   47  170 1    
    97   48  171 1    
    98   48  172 1    
    99   48  173 1    
   100   49   50 am   BACKBONE|DICT|INTERRES
   101   49  174 1    
   102   50   51 2    
   103   50   52 1    
   104   52   53 1    
   105   52   54 1    
   106   52  175 1    
   107   53  176 1    
   108   53  177 1    
   109   53  178 1    
   110   54   55 am   BACKBONE|DICT|INTERRES
   111   54  179 1    
   112   55   56 2    
   113   55   57 1    
   114   57   58 1    
   115   57   59 1    
   116   57  180 1    
   117   58  181 1    
   118   58  182 1    
   119   58  183 1    
   120   59   60 am   BACKBONE|DICT|INTERRES
   121   59  184 1    
   122   60   61 2    
   123   60   62 1    
   124   62   63 1    
   125   62   64 1    
   126   62  185 1    
   127   63  186 1    
   128   63  187 1    
   129   63  188 1    
   130   64   65 am   BACKBONE|DICT|INTERRES
   131   64  189 1    
   132   65   66 2    
   133   67   68 2    
   134   67   69 am   BACKBONE|DICT|INTERRES
   135   69   70 1    
   136   69  190 1    
   137   70   71 1    
   138   70   72 1    
   139   70  191 1    
   140   71  192 1    
   141   71  193 1    
   142   71  194 1    
   143   72   73 2    
   144   72   74 am   BACKBONE|DICT|INTERRES
   145   74   75 1    
   146   74  195 1    
   147   75   76 1    
   148   75   77 1    
   149   75  196 1    
   150   76  197 1    
   151   76  198 1    
   152   76  199 1    
   153   77   78 2    
   154   77   79 am   BACKBONE|DICT|INTERRES
   155   79   80 1    
   156   79  200 1    
   157   80   81 1    
   158   80   82 1    
   159   80  201 1    
   160   81  202 1    
   161   81  203 1    
   162   81  204 1    
   163   82   83 2    
   164   82   84 am   BACKBONE|DICT|INTERRES
   165   84   85 1    
   166   84  205 1    
   167   85   86 1    
   168   85   87 1    
   169   85  206 1    
   170   86  207 1    
   171   86  208 1    
   172   86  209 1    
   173   87   88 2    
   174   87   89 am   BACKBONE|DICT|INTERRES
   175   89   90 1    
   176   89  210 1    
   177   90   91 1    
   178   90   92 1    
   179   90  211 1    
   180   91  212 1    
   181   91  213 1    
   182   91  214 1    
   183   92   93 2    
   184   92   94 am   BACKBONE|DICT|INTERRES
   185   94   95 1    
   186   94  215 1    
   187   95   96 1    
   188   95   97 1    
   189   95  216 1    
   190   96  217 1    
   191   96  218 1    
   192   96  219 1    
   193   97   98 2    
   194   97   99 am   BACKBONE|DICT|INTERRES
   195   99  100 1    
   196   99  220 1    
   197  100  101 1    
   198  100  102 1    
   199  100  221 1    
   200  101  222 1    
   201  101  223 1    
   202  101  224 1    
   203  102  103 2    
   204  102  104 am   BACKBONE|DICT|INTERRES
   205  104  105 1    
   206  104  225 1    
   207  105  106 1    
   208  105  107 1    
   209  105  226 1    
   210  106  227 1    
   211  106  228 1    
   212  106  229 1    
   213  107  108 2    
   214  107  109 am   BACKBONE|DICT|INTERRES
   215  109  110 1    
   216  109  230 1    
   217  110  111 1    
   218  110  112 1    
   219  110  231 1    
   220  111  232 1    
   221  111  233 1    
   222  111  234 1    
   223  112  113 2    
   224  112  114 am   BACKBONE|DICT|INTERRES
   225  114  115 1    
   226  114  235 1    
   227  115  116 1    
   228  115  117 1    
   229  115  236 1    
   230  116  237 1    
   231  116  238 1    
   232  116  239 1    
   233  117  118 2    
   234  117  119 am   BACKBONE|DICT|INTERRES
   235  119  120 1    
   236  119  240 1    
   237  120  121 1    
   238  120  124 1    
   239  120  241 1    
   240  121  122 am   BACKBONE|DICT|INTERRES
   241  121  123 2    
   242  122  242 1    
   243  122  243 1    
   244  124  125 1    
   245  124  244 1    
   246  124  245 1    
   247  125  126 1    
   248  126  246 1    
   249  126  247 1    
@<TRIPOS>SUBSTRUCTURE
     1 UNK         1 GROUP             0       ****    0 ROOT    
