@<TRIPOS>MOLECULE
3R540
247   249    1
SMALL
USER_CHARGES


@<TRIPOS>ATOM
      1 CA          7.5518  -10.8833  -46.3341 C.3       0 UNK        -0.1800 
      2 C           6.0766  -10.6521  -46.0390 C.2       0 UNK         0.5000 
      3 O           5.6760   -9.5195  -45.7706 O.2       0 UNK        -0.5000 
      4 N           5.2718  -11.7213  -46.0832 N.am      1 UNK        -0.5000 
      5 CA          3.8182  -11.7006  -45.8779 C.3       1 UNK         0.1400 
      6 C6          3.2375  -13.1219  -45.6604 C.3       23 UNK        -0.0398 
      7 S7          3.7533  -14.3367  -46.9258 S.3       23 UNK        -0.2404 
      8 C8          2.1748  -14.6911  -47.7665 C.3       23 UNK        -0.0205 
      9 C9          2.3119  -15.7216  -48.8860 C.ar      23 UNK        -0.0193 
     10 C10         1.6192  -15.5409  -50.0875 C.ar      23 UNK        -0.1150 
     11 C11         1.7253  -16.4739  -51.1256 C.ar      23 UNK        -0.0193 
     12 C12         2.5489  -17.5942  -50.9536 C.ar      23 UNK        -0.1150 
     13 C13         3.2272  -17.8047  -49.7509 C.ar      23 UNK        -0.0193 
     14 C14         3.1038  -16.8649  -48.7249 C.ar      23 UNK        -0.1150 
     15 C15         4.1189  -19.0270  -49.5683 C.3       23 UNK        -0.0205 
     16 S16         3.5281  -20.1406  -48.2509 S.3       23 UNK        -0.2404 
     17 C17         2.0507  -20.8960  -49.0100 C.3       23 UNK        -0.0398 
     18 CA          1.8814  -22.3745  -48.5804 C.3       11 UNK         0.1400 
     19 N           1.6400  -22.5249  -47.1401 N.am      11 UNK        -0.5000 
     20 C           1.9084  -23.6462  -46.4532 C.2       10 UNK         0.5000 
     21 O           2.4648  -24.6249  -46.9503 O.2       10 UNK        -0.5000 
     22 CA          1.4868  -23.7077  -44.9702 C.3       10 UNK         0.1400 
     23 CB          2.6972  -23.4532  -44.0592 C.3       10 UNK        -0.1800 
     24 N           0.4245  -22.7675  -44.6139 N.am      10 UNK        -0.5000 
     25 C          -0.8401  -22.8178  -45.0544 C.2       9 UNK         0.5000 
     26 O          -1.2739  -23.7130  -45.7800 O.2       9 UNK        -0.5000 
     27 CA         -1.7517  -21.6347  -44.6690 C.3       9 UNK         0.1400 
     28 CB         -2.5897  -21.9753  -43.4294 C.3       9 UNK        -0.1800 
     29 N          -1.0282  -20.3777  -44.4393 N.am      9 UNK        -0.5000 
     30 C          -0.2737  -19.7554  -45.3559 C.2       8 UNK         0.5000 
     31 O          -0.1251  -20.1784  -46.5036 O.2       8 UNK        -0.5000 
     32 CA          0.4658  -18.4925  -44.8859 C.3       8 UNK         0.1400 
     33 CB          1.2155  -17.7835  -46.0221 C.3       8 UNK        -0.1800 
     34 N          -0.4588  -17.5423  -44.2759 N.am      8 UNK        -0.5000 
     35 C          -0.5161  -17.2439  -42.9714 C.2       7 UNK         0.5000 
     36 O           0.1451  -17.8299  -42.1136 O.2       7 UNK        -0.5000 
     37 CA         -1.4512  -16.0960  -42.5398 C.3       7 UNK         0.1400 
     38 CB         -0.6309  -14.8678  -42.1131 C.3       7 UNK        -0.1800 
     39 N          -2.3810  -15.6948  -43.5956 N.am      7 UNK        -0.5000 
     40 C          -3.5464  -16.3070  -43.8476 C.2       6 UNK         0.5000 
     41 O          -3.9850  -17.2392  -43.1738 O.2       6 UNK        -0.5000 
     42 CA         -4.3548  -15.8133  -45.0647 C.3       6 UNK         0.1400 
     43 CB         -5.4555  -14.8384  -44.6217 C.3       6 UNK        -0.1800 
     44 N          -3.5454  -15.1721  -46.1045 N.am      6 UNK        -0.5000 
     45 C          -2.5648  -15.7630  -46.8024 C.2       5 UNK         0.5000 
     46 O          -2.2401  -16.9391  -46.6521 O.2       5 UNK        -0.5000 
     47 CA         -1.7830  -14.8751  -47.7885 C.3       5 UNK         0.1400 
     48 CB         -2.4169  -14.9176  -49.1850 C.3       5 UNK        -0.1800 
     49 N          -1.6932  -13.4779  -47.3630 N.am      5 UNK        -0.5000 
     50 C          -1.1105  -13.0285  -46.2455 C.2       4 UNK         0.5000 
     51 O          -0.5643  -13.7686  -45.4265 O.2       4 UNK        -0.5000 
     52 CA         -1.1712  -11.5037  -46.0096 C.3       4 UNK         0.1400 
     53 CB         -0.3932  -11.0668  -44.7554 C.3       4 UNK        -0.1800 
     54 N          -0.7025  -10.7374  -47.1699 N.am      4 UNK        -0.5000 
     55 C          -1.4152  -10.5054  -48.2836 C.2       3 UNK         0.5000 
     56 O          -2.5592  -10.9323  -48.4476 O.2       3 UNK        -0.5000 
     57 CA         -0.7591   -9.6853  -49.4123 C.3       3 UNK         0.1400 
     58 CB         -1.2584   -8.2329  -49.3773 C.3       3 UNK        -0.1800 
     59 N           0.7022   -9.6822  -49.3712 N.am      3 UNK        -0.5000 
     60 C           1.4875  -10.7319  -49.6455 C.2       2 UNK         0.5000 
     61 O           1.0608  -11.8334  -49.9934 O.2       2 UNK        -0.5000 
     62 CA          3.0087  -10.5260  -49.4811 C.3       2 UNK         0.1400 
     63 CB          3.4507   -9.0476  -49.5579 C.3       2 UNK        -0.1800 
     64 N           3.5195  -11.1375  -48.2512 N.am      2 UNK        -0.5000 
     65 C           3.0756  -10.9438  -46.9989 C.2       1 UNK         0.5000 
     66 O           2.1426  -10.1953  -46.7050 O.2       1 UNK        -0.5000 
     67 C           0.7816  -23.0830  -49.3999 C.2       11 UNK         0.5000 
     68 O           1.0736  -23.5724  -50.4916 O.2       11 UNK        -0.5000 
     69 N          -0.4415  -23.1649  -48.8513 N.am      12 UNK        -0.5000 
     70 CA         -1.5408  -23.9413  -49.4234 C.3       12 UNK         0.1400 
     71 CB         -2.8868  -23.4080  -48.9127 C.3       12 UNK        -0.1800 
     72 C          -1.3895  -25.4316  -49.0853 C.2       12 UNK         0.5000 
     73 O          -1.4456  -26.2661  -49.9892 O.2       12 UNK        -0.5000 
     74 N          -1.1931  -25.7271  -47.7898 N.am      13 UNK        -0.5000 
     75 CA         -1.0098  -27.0524  -47.1927 C.3       13 UNK         0.1400 
     76 CB          0.4075  -27.5829  -47.4996 C.3       13 UNK        -0.1800 
     77 C          -2.1368  -28.0263  -47.5922 C.2       13 UNK         0.5000 
     78 O          -3.2516  -27.9016  -47.0826 O.2       13 UNK        -0.5000 
     79 N          -1.8374  -28.9410  -48.5255 N.am      14 UNK        -0.5000 
     80 CA         -2.7588  -29.9179  -49.1072 C.3       14 UNK         0.1400 
     81 CB         -1.9757  -30.8362  -50.0575 C.3       14 UNK        -0.1800 
     82 C          -3.9671  -29.2950  -49.8343 C.2       14 UNK         0.5000 
     83 O          -5.0089  -29.9466  -49.9252 O.2       14 UNK        -0.5000 
     84 N          -3.8444  -28.0406  -50.2952 N.am      15 UNK        -0.5000 
     85 CA         -4.9355  -27.2371  -50.8530 C.3       15 UNK         0.1400 
     86 CB         -4.3486  -26.1308  -51.7484 C.3       15 UNK        -0.1800 
     87 C          -5.8588  -26.6856  -49.7430 C.2       15 UNK         0.5000 
     88 O          -6.0149  -25.4712  -49.6074 O.2       15 UNK        -0.5000 
     89 N          -6.4277  -27.6037  -48.9477 N.am      16 UNK        -0.5000 
     90 CA         -7.4218  -27.4102  -47.8839 C.3       16 UNK         0.1400 
     91 CB         -8.7738  -27.0105  -48.5106 C.3       16 UNK        -0.1800 
     92 C          -7.0047  -26.4421  -46.7532 C.2       16 UNK         0.5000 
     93 O          -7.8772  -25.9369  -46.0444 O.2       16 UNK        -0.5000 
     94 N          -5.6943  -26.1849  -46.6103 N.am      17 UNK        -0.5000 
     95 CA         -5.0829  -25.1730  -45.7394 C.3       17 UNK         0.1400 
     96 CB         -5.1539  -25.6168  -44.2643 C.3       17 UNK        -0.1800 
     97 C          -5.6466  -23.7510  -45.9774 C.2       17 UNK         0.5000 
     98 O          -5.8469  -22.9954  -45.0241 O.2       17 UNK        -0.5000 
     99 N          -5.9198  -23.4313  -47.2517 N.am      18 UNK        -0.5000 
    100 CA        -6.4392  -22.1478  -47.7278 C.3       18 UNK         0.1400 
    101 CB        -6.8265  -22.3127  -49.2087 C.3       18 UNK        -0.1800 
    102 C         -5.4467  -20.9794  -47.5469 C.2       18 UNK         0.5000 
    103 O         -4.3216  -21.1750  -47.0853 O.2       18 UNK        -0.5000 
    104 N         -5.8661  -19.7720  -47.9478 N.am      19 UNK        -0.5000 
    105 CA        -5.0476  -18.5575  -47.9644 C.3       19 UNK         0.1400 
    106 CB        -5.9716  -17.3367  -48.1230 C.3       19 UNK        -0.1800 
    107 C         -3.9609  -18.6175  -49.0583 C.2       19 UNK         0.5000 
    108 O         -4.0988  -17.9886  -50.1082 O.2       19 UNK        -0.5000 
    109 N         -2.9331  -19.4373  -48.8109 N.am      20 UNK        -0.5000 
    110 CA        -1.7251  -19.7049  -49.5994 C.3       20 UNK         0.1400 
    111 CB        -0.8770  -18.4324  -49.7372 C.3       20 UNK        -0.1800 
    112 C         -1.9440  -20.3820  -50.9698 C.2       20 UNK         0.5000 
    113 O         -0.9925  -20.9452  -51.5088 O.2       20 UNK        -0.5000 
    114 N         -3.1787  -20.3446  -51.4919 N.am      21 UNK        -0.5000 
    115 CA        -3.6405  -20.9199  -52.7603 C.3       21 UNK         0.1400 
    116 CB        -3.5463  -22.4606  -52.7299 C.3       21 UNK        -0.1800 
    117 C         -2.9646  -20.2879  -53.9984 C.2       21 UNK         0.5000 
    118 O         -2.8104  -20.9507  -55.0259 O.2       21 UNK        -0.5000 
    119 N         -2.5823  -19.0098  -53.8782 N.am      22 UNK        -0.5000 
    120 CA        -1.8731  -18.2325  -54.9107 C.3       22 UNK         0.1400 
    121 C         -2.7885  -17.6587  -56.0322 C.2       22 UNK         0.5000 
    122 N         -4.1088  -17.7595  -55.9362 N.am      22 UNK        -0.7600 
    123 O         -2.2903  -17.1182  -57.0160 O.2       22 UNK        -0.5000 
    124 C124       -0.9960  -17.1153  -54.2853 C.3       23 UNK        -0.0398 
    125 S125        0.2044  -17.7775  -53.0840 S.3       23 UNK        -0.2404 
    126 C126        0.9532  -16.2501  -52.4250 C.3       23 UNK        -0.0205 
    127 H127        7.7633  -11.9311  -46.5487 H         1 UNK         0.0600 
    128 H128        8.1574  -10.5824  -45.4792 H         1 UNK         0.0600 
    129 H129        7.8589  -10.2912  -47.1963 H         1 UNK         0.0600 
    130 H130        5.6600  -12.6274  -46.3066 H         1 UNK         0.3000 
    131 H131        3.6351  -11.1391  -44.9590 H         1 UNK         0.0600 
    132 H132        2.1491  -13.0952  -45.5875 H         1 UNK         0.0800 
    133 H133        3.5787  -13.4997  -44.6958 H         1 UNK         0.0800 
    134 H134        1.7726  -13.7563  -48.1594 H         1 UNK         0.0800 
    135 H135        1.4541  -15.0543  -47.0349 H         1 UNK         0.0800 
    136 H136        0.9948  -14.6671  -50.2149 H         1 UNK         0.1150 
    137 H137        2.6506  -18.3133  -51.7538 H         1 UNK         0.1150 
    138 H138        3.6317  -17.0288  -47.7964 H         1 UNK         0.1150 
    139 H139        4.2174  -19.5859  -50.5002 H         1 UNK         0.0800 
    140 H140        5.1232  -18.6881  -49.3110 H         1 UNK         0.0800 
    141 H141        2.1353  -20.8222  -50.0958 H         1 UNK         0.0800 
    142 H142        1.1817  -20.3029  -48.7307 H         1 UNK         0.0800 
    143 H143        2.8173  -22.8838  -48.8221 H         1 UNK         0.0600 
    144 H144        1.1757  -21.7483  -46.6826 H         1 UNK         0.3000 
    145 H145        1.1188  -24.7180  -44.7788 H         1 UNK         0.0600 
    146 H146        2.4327  -23.5710  -43.0082 H         1 UNK         0.0600 
    147 H147        3.5015  -24.1591  -44.2710 H         1 UNK         0.0600 
    148 H148        3.0985  -22.4481  -44.1956 H         1 UNK         0.0600 
    149 H149        0.6889  -21.9937  -44.0227 H         1 UNK         0.3000 
    150 H150       -2.4289  -21.4719  -45.5053 H         1 UNK         0.0600 
    151 H151       -3.1600  -22.8917  -43.5859 H         1 UNK         0.0600 
    152 H152       -3.3073  -21.1842  -43.2108 H         1 UNK         0.0600 
    153 H153       -1.9656  -22.1206  -42.5469 H         1 UNK         0.0600 
    154 H154       -1.1044  -19.9681  -43.5193 H         1 UNK         0.3000 
    155 H155        1.2134  -18.8218  -44.1618 H         1 UNK         0.0600 
    156 H156        0.5351  -17.4207  -46.7924 H         1 UNK         0.0600 
    157 H157        1.7837  -16.9346  -45.6427 H         1 UNK         0.0600 
    158 H158        1.9256  -18.4566  -46.4997 H         1 UNK         0.0600 
    159 H159       -1.0956  -17.0834  -44.9176 H         1 UNK         0.3000 
    160 H160       -2.0179  -16.4404  -41.6721 H         1 UNK         0.0600 
    161 H161        0.0217  -15.1074  -41.2727 H         1 UNK         0.0600 
    162 H162       -1.2780  -14.0492  -41.7979 H         1 UNK         0.0600 
    163 H163        0.0018  -14.5033  -42.9230 H         1 UNK         0.0600 
    164 H164       -2.0645  -14.9580  -44.2137 H         1 UNK         0.3000 
    165 H165       -4.8350  -16.6878  -45.5039 H         1 UNK         0.0600 
    166 H166       -6.0944  -14.5577  -45.4594 H         1 UNK         0.0600 
    167 H167       -6.0968  -15.2903  -43.8638 H         1 UNK         0.0600 
    168 H168       -5.0367  -13.9256  -44.1960 H         1 UNK         0.0600 
    169 H169       -3.7366  -14.1980  -46.2873 H         1 UNK         0.3000 
    170 H170       -0.7711  -15.2764  -47.8593 H         1 UNK         0.0600 
    171 H171       -2.5070  -15.9409  -49.5427 H         1 UNK         0.0600 
    172 H172       -3.4169  -14.4823  -49.1882 H         1 UNK         0.0600 
    173 H173       -1.8098  -14.3746  -49.9098 H         1 UNK         0.0600 
    174 H174       -2.1227  -12.7856  -47.9691 H         1 UNK         0.3000 
    175 H175       -2.2205  -11.2559  -45.8366 H         1 UNK         0.0600 
    176 H176        0.6614  -11.3320  -44.8177 H         1 UNK         0.0600 
    177 H177       -0.4592   -9.9893  -44.6047 H         1 UNK         0.0600 
    178 H178       -0.7956  -11.5443  -43.8610 H         1 UNK         0.0600 
    179 H179        0.2537  -10.3956  -47.1211 H         1 UNK         0.3000 
    180 H180       -1.0699  -10.1300  -50.3600 H         1 UNK         0.0600 
    181 H181       -2.3468   -8.1916  -49.4385 H         1 UNK         0.0600 
    182 H182       -0.8657   -7.6598  -50.2174 H         1 UNK         0.0600 
    183 H183       -0.9620   -7.7279  -48.4570 H         1 UNK         0.0600 
    184 H184        1.1419   -8.8304  -49.0540 H         1 UNK         0.3000 
    185 H185        3.4794  -11.0540  -50.3118 H         1 UNK         0.0600 
    186 H186        3.0925   -8.4619  -48.7106 H         1 UNK         0.0600 
    187 H187        4.5380   -8.9704  -49.5691 H         1 UNK         0.0600 
    188 H188        3.0868   -8.5741  -50.4707 H         1 UNK         0.0600 
    189 H189        4.2746  -11.7967  -48.3761 H         1 UNK         0.3000 
    190 H190       -0.5846  -22.7851  -47.9264 H         1 UNK         0.3000 
    191 H191       -1.5291  -23.8348  -50.5104 H         1 UNK         0.0600 
    192 H192       -2.9482  -23.4272  -47.8251 H         1 UNK         0.0600 
    193 H193       -3.7161  -24.0025  -49.2947 H         1 UNK         0.0600 
    194 H194       -3.0571  -22.3836  -49.2353 H         1 UNK         0.0600 
    195 H195       -1.2083  -24.9604  -47.1200 H         1 UNK         0.3000 
    196 H196       -1.0875  -26.9206  -46.1125 H         1 UNK         0.0600 
    197 H197        0.5555  -28.5805  -47.0838 H         1 UNK         0.0600 
    198 H198        1.1643  -26.9396  -47.0530 H         1 UNK         0.0600 
    199 H199        0.6107  -27.6308  -48.5699 H         1 UNK         0.0600 
    200 H200       -0.9051  -28.9256  -48.9124 H         1 UNK         0.3000 
    201 H201       -3.1517  -30.5250  -48.2892 H         1 UNK         0.0600 
    202 H202       -1.1729  -31.3552  -49.5335 H         1 UNK         0.0600 
    203 H203       -1.5331  -30.2763  -50.8824 H         1 UNK         0.0600 
    204 H204       -2.6257  -31.5985  -50.4892 H         1 UNK         0.0600 
    205 H205       -2.9584  -27.5614  -50.1634 H         1 UNK         0.3000 
    206 H206       -5.5502  -27.8762  -51.4902 H         1 UNK         0.0600 
    207 H207       -3.7367  -26.5524  -52.5458 H         1 UNK         0.0600 
    208 H208       -5.1408  -25.5485  -52.2204 H         1 UNK         0.0600 
    209 H209       -3.7273  -25.4373  -51.1841 H         1 UNK         0.0600 
    210 H210       -6.1736  -28.5698  -49.1318 H         1 UNK         0.3000 
    211 H211       -7.5502  -28.3843  -47.4103 H         1 UNK         0.0600 
    212 H212       -8.7313  -26.0150  -48.9542 H         1 UNK         0.0600 
    213 H213       -9.5700  -27.0039  -47.7653 H         1 UNK         0.0600 
    214 H214       -9.0706  -27.7124  -49.2899 H         1 UNK         0.0600 
    215 H215       -5.0447  -26.7023  -47.1912 H         1 UNK         0.3000 
    216 H216       -4.0287  -25.1286  -46.0180 H         1 UNK         0.0600 
    217 H217       -4.5963  -24.9347  -43.6221 H         1 UNK         0.0600 
    218 H218       -4.7227  -26.6092  -44.1326 H         1 UNK         0.0600 
    219 H219       -6.1810  -25.6452  -43.8994 H         1 UNK         0.0600 
    220 H220       -5.7662  -24.1342  -47.9659 H         1 UNK         0.3000 
    221 H221       -7.3367  -21.9142  -47.1523 H         1 UNK         0.0600 
    222 H222       -5.9546  -22.5268  -49.8288 H         1 UNK         0.0600 
    223 H223       -7.5354  -23.1308  -49.3398 H         1 UNK         0.0600 
    224 H224       -7.3014  -21.4156  -49.6063 H         1 UNK         0.0600 
    225 H225       -6.7942  -19.6844  -48.3352 H         1 UNK         0.3000 
    226 H226       -4.5382  -18.4725  -47.0027 H         1 UNK         0.0600 
    227 H227       -6.6698  -17.2591  -47.2895 H         1 UNK         0.0600 
    228 H228       -5.3954  -16.4111  -48.1504 H         1 UNK         0.0600 
    229 H229       -6.5533  -17.3867  -49.0443 H         1 UNK         0.0600 
    230 H230       -3.0109  -19.9889  -47.9613 H         1 UNK         0.3000 
    231 H231       -1.1561  -20.4159  -49.0020 H         1 UNK         0.0600 
    232 H232        0.1002  -18.6726  -50.1524 H         1 UNK         0.0600 
    233 H233       -0.7095  -17.9560  -48.7721 H         1 UNK         0.0600 
    234 H234       -1.3414  -17.7065  -50.4033 H         1 UNK         0.0600 
    235 H235       -3.8518  -19.7691  -50.9987 H         1 UNK         0.3000 
    236 H236       -4.6976  -20.6623  -52.8366 H         1 UNK         0.0600 
    237 H237       -4.0277  -22.9003  -53.6039 H         1 UNK         0.0600 
    238 H238       -2.5116  -22.8042  -52.7209 H         1 UNK         0.0600 
    239 H239       -4.0429  -22.8684  -51.8494 H         1 UNK         0.0600 
    240 H240       -2.7371  -18.5433  -52.9966 H         1 UNK         0.3000 
    241 H241       -1.1931  -18.9174  -55.4212 H         1 UNK         0.0600 
    242 H242       -4.6905  -17.3889  -56.6714 H         1 UNK         0.3800 
    243 H243       -4.5319  -18.2030  -55.1370 H         1 UNK         0.3800 
    244 H244       -0.4384  -16.5828  -55.0578 H         1 UNK         0.0800 
    245 H245       -1.6238  -16.3749  -53.7868 H         1 UNK         0.0800 
    246 H246        1.6264  -15.8282  -53.1719 H         1 UNK         0.0800 
    247 H247        0.1621  -15.5161  -52.2634 H         1 UNK         0.0800 
@<TRIPOS>BOND
     1    1    2 1    
     2    1  127 1    
     3    1  128 1    
     4    1  129 1    
     5    2    3 2    
     6    2    4 am   BACKBONE|DICT|INTERRES
     7    4    5 1    
     8    4  130 1    
     9    5    6 1    
    10    5   65 1    
    11    5  131 1    
    12    6    7 1    
    13    6  132 1    
    14    6  133 1    
    15    7    8 1    
    16    8    9 1    
    17    8  134 1    
    18    8  135 1    
    19    9   10 ar   
    20    9   14 ar   
    21   10   11 ar   
    22   10  136 1    
    23   11   12 ar   
    24   11  126 1    
    25   12   13 ar   
    26   12  137 1    
    27   13   14 ar   
    28   13   15 1    
    29   14  138 1    
    30   15   16 1    
    31   15  139 1    
    32   15  140 1    
    33   16   17 1    
    34   17   18 1    
    35   17  141 1    
    36   17  142 1    
    37   18   19 1    
    38   18   67 1    
    39   18  143 1    
    40   19   20 am   BACKBONE|DICT|INTERRES
    41   19  144 1    
    42   20   21 2    
    43   20   22 1    
    44   22   23 1    
    45   22   24 1    
    46   22  145 1    
    47   23  146 1    
    48   23  147 1    
    49   23  148 1    
    50   24   25 am   BACKBONE|DICT|INTERRES
    51   24  149 1    
    52   25   26 2    
    53   25   27 1    
    54   27   28 1    
    55   27   29 1    
    56   27  150 1    
    57   28  151 1    
    58   28  152 1    
    59   28  153 1    
    60   29   30 am   BACKBONE|DICT|INTERRES
    61   29  154 1    
    62   30   31 2    
    63   30   32 1    
    64   32   33 1    
    65   32   34 1    
    66   32  155 1    
    67   33  156 1    
    68   33  157 1    
    69   33  158 1    
    70   34   35 am   BACKBONE|DICT|INTERRES
    71   34  159 1    
    72   35   36 2    
    73   35   37 1    
    74   37   38 1    
    75   37   39 1    
    76   37  160 1    
    77   38  161 1    
    78   38  162 1    
    79   38  163 1    
    80   39   40 am   BACKBONE|DICT|INTERRES
    81   39  164 1    
    82   40   41 2    
    83   40   42 1    
    84   42   43 1    
    85   42   44 1    
    86   42  165 1    
    87   43  166 1    
    88   43  167 1    
    89   43  168 1    
    90   44   45 am   BACKBONE|DICT|INTERRES
    91   44  169 1    
    92   45   46 2    
    93   45   47 1    
    94   47   48 1    
    95   47   49 1    
    96   47  170 1    
    97   48  171 1    
    98   48  172 1    
    99   48  173 1    
   100   49   50 am   BACKBONE|DICT|INTERRES
   101   49  174 1    
   102   50   51 2    
   103   50   52 1    
   104   52   53 1    
   105   52   54 1    
   106   52  175 1    
   107   53  176 1    
   108   53  177 1    
   109   53  178 1    
   110   54   55 am   BACKBONE|DICT|INTERRES
   111   54  179 1    
   112   55   56 2    
   113   55   57 1    
   114   57   58 1    
   115   57   59 1    
   116   57  180 1    
   117   58  181 1    
   118   58  182 1    
   119   58  183 1    
   120   59   60 am   BACKBONE|DICT|INTERRES
   121   59  184 1    
   122   60   61 2    
   123   60   62 1    
   124   62   63 1    
   125   62   64 1    
   126   62  185 1    
   127   63  186 1    
   128   63  187 1    
   129   63  188 1    
   130   64   65 am   BACKBONE|DICT|INTERRES
   131   64  189 1    
   132   65   66 2    
   133   67   68 2    
   134   67   69 am   BACKBONE|DICT|INTERRES
   135   69   70 1    
   136   69  190 1    
   137   70   71 1    
   138   70   72 1    
   139   70  191 1    
   140   71  192 1    
   141   71  193 1    
   142   71  194 1    
   143   72   73 2    
   144   72   74 am   BACKBONE|DICT|INTERRES
   145   74   75 1    
   146   74  195 1    
   147   75   76 1    
   148   75   77 1    
   149   75  196 1    
   150   76  197 1    
   151   76  198 1    
   152   76  199 1    
   153   77   78 2    
   154   77   79 am   BACKBONE|DICT|INTERRES
   155   79   80 1    
   156   79  200 1    
   157   80   81 1    
   158   80   82 1    
   159   80  201 1    
   160   81  202 1    
   161   81  203 1    
   162   81  204 1    
   163   82   83 2    
   164   82   84 am   BACKBONE|DICT|INTERRES
   165   84   85 1    
   166   84  205 1    
   167   85   86 1    
   168   85   87 1    
   169   85  206 1    
   170   86  207 1    
   171   86  208 1    
   172   86  209 1    
   173   87   88 2    
   174   87   89 am   BACKBONE|DICT|INTERRES
   175   89   90 1    
   176   89  210 1    
   177   90   91 1    
   178   90   92 1    
   179   90  211 1    
   180   91  212 1    
   181   91  213 1    
   182   91  214 1    
   183   92   93 2    
   184   92   94 am   BACKBONE|DICT|INTERRES
   185   94   95 1    
   186   94  215 1    
   187   95   96 1    
   188   95   97 1    
   189   95  216 1    
   190   96  217 1    
   191   96  218 1    
   192   96  219 1    
   193   97   98 2    
   194   97   99 am   BACKBONE|DICT|INTERRES
   195   99  100 1    
   196   99  220 1    
   197  100  101 1    
   198  100  102 1    
   199  100  221 1    
   200  101  222 1    
   201  101  223 1    
   202  101  224 1    
   203  102  103 2    
   204  102  104 am   BACKBONE|DICT|INTERRES
   205  104  105 1    
   206  104  225 1    
   207  105  106 1    
   208  105  107 1    
   209  105  226 1    
   210  106  227 1    
   211  106  228 1    
   212  106  229 1    
   213  107  108 2    
   214  107  109 am   BACKBONE|DICT|INTERRES
   215  109  110 1    
   216  109  230 1    
   217  110  111 1    
   218  110  112 1    
   219  110  231 1    
   220  111  232 1    
   221  111  233 1    
   222  111  234 1    
   223  112  113 2    
   224  112  114 am   BACKBONE|DICT|INTERRES
   225  114  115 1    
   226  114  235 1    
   227  115  116 1    
   228  115  117 1    
   229  115  236 1    
   230  116  237 1    
   231  116  238 1    
   232  116  239 1    
   233  117  118 2    
   234  117  119 am   BACKBONE|DICT|INTERRES
   235  119  120 1    
   236  119  240 1    
   237  120  121 1    
   238  120  124 1    
   239  120  241 1    
   240  121  122 am   BACKBONE|DICT|INTERRES
   241  121  123 2    
   242  122  242 1    
   243  122  243 1    
   244  124  125 1    
   245  124  244 1    
   246  124  245 1    
   247  125  126 1    
   248  126  246 1    
   249  126  247 1    
@<TRIPOS>SUBSTRUCTURE
     1 UNK         1 GROUP             0       ****    0 ROOT    
