@<TRIPOS>MOLECULE
3R540
247   249    1
SMALL
USER_CHARGES


@<TRIPOS>ATOM
      1 CA          0.8544  -10.4873  -50.6431 C.3       0 UNK        -0.1800 
      2 C           1.7960  -10.7671  -49.4805 C.2       0 UNK         0.5000 
      3 O           2.8448  -10.1312  -49.3747 O.2       0 UNK        -0.5000 
      4 N           1.4251  -11.7163  -48.6116 N.am      1 UNK        -0.5000 
      5 CA          2.1991  -12.1234  -47.4305 C.3       1 UNK         0.1400 
      6 C6          1.7262  -13.4869  -46.8737 C.3       23 UNK        -0.0398 
      7 S7          2.0793  -14.8474  -48.0337 S.3       23 UNK        -0.2404 
      8 C8          0.4083  -15.2768  -48.6201 C.3       23 UNK        -0.0205 
      9 C9          0.4252  -16.3751  -49.6769 C.ar      23 UNK        -0.0193 
     10 C10        -0.2983  -16.2174  -50.8633 C.ar      23 UNK        -0.1150 
     11 C11        -0.2954  -17.2192  -51.8388 C.ar      23 UNK        -0.0193 
     12 C12         0.4470  -18.3836  -51.6218 C.ar      23 UNK        -0.1150 
     13 C13         1.1561  -18.5692  -50.4330 C.ar      23 UNK        -0.0193 
     14 C14         1.1420  -17.5578  -49.4665 C.ar      23 UNK        -0.1150 
     15 C15         1.9404  -19.8606  -50.2197 C.3       23 UNK        -0.0205 
     16 S16         1.7715  -20.5547  -48.5424 S.3       23 UNK        -0.2404 
     17 C17        -0.0406  -20.6926  -48.3759 C.3       23 UNK        -0.0398 
     18 CA         -0.4421  -21.9277  -47.5429 C.3       11 UNK         0.1400 
     19 N          -0.0037  -21.8332  -46.1475 N.am      11 UNK        -0.5000 
     20 C          -0.0163  -22.8567  -45.2834 C.2       10 UNK         0.5000 
     21 O          -0.3692  -23.9969  -45.5829 O.2       10 UNK        -0.5000 
     22 CA          0.3818  -22.5470  -43.8296 C.3       10 UNK         0.1400 
     23 CB          1.9080  -22.4588  -43.6814 C.3       10 UNK        -0.1800 
     24 N          -0.2422  -21.3219  -43.3276 N.am      10 UNK        -0.5000 
     25 C          -1.5649  -21.1584  -43.1789 C.2       9 UNK         0.5000 
     26 O          -2.3913  -22.0413  -43.4085 O.2       9 UNK        -0.5000 
     27 CA         -2.0550  -19.7682  -42.7371 C.3       9 UNK         0.1400 
     28 CB         -1.9318  -19.6087  -41.2147 C.3       9 UNK        -0.1800 
     29 N          -1.3526  -18.6736  -43.4070 N.am      9 UNK        -0.5000 
     30 C          -1.3740  -18.4432  -44.7277 C.2       8 UNK         0.5000 
     31 O          -2.0165  -19.1180  -45.5307 O.2       8 UNK        -0.5000 
     32 CA         -0.4796  -17.3034  -45.2488 C.3       8 UNK         0.1400 
     33 CB         -1.1233  -15.9330  -44.9908 C.3       8 UNK        -0.1800 
     34 N           0.8638  -17.3350  -44.6713 N.am      8 UNK        -0.5000 
     35 C           1.7150  -18.3632  -44.8010 C.2       7 UNK         0.5000 
     36 O           1.4698  -19.3803  -45.4474 O.2       7 UNK        -0.5000 
     37 CA          3.0318  -18.2661  -44.0166 C.3       7 UNK         0.1400 
     38 CB          4.0437  -17.3696  -44.7471 C.3       7 UNK        -0.1800 
     39 N           2.8046  -17.7709  -42.6585 N.am      7 UNK        -0.5000 
     40 C           2.1766  -18.4702  -41.7009 C.2       6 UNK         0.5000 
     41 O           1.7718  -19.6230  -41.8504 O.2       6 UNK        -0.5000 
     42 CA          1.9193  -17.7455  -40.3667 C.3       6 UNK         0.1400 
     43 CB          3.1537  -17.8297  -39.4568 C.3       6 UNK        -0.1800 
     44 N           1.5459  -16.3424  -40.5503 N.am      6 UNK        -0.5000 
     45 C           0.4155  -15.9291  -41.1410 C.2       5 UNK         0.5000 
     46 O          -0.4581  -16.6922  -41.5486 O.2       5 UNK        -0.5000 
     47 CA          0.2527  -14.4133  -41.3548 C.3       5 UNK         0.1400 
     48 CB         -0.4758  -13.7731  -40.1647 C.3       5 UNK        -0.1800 
     49 N           1.5224  -13.7189  -41.5717 N.am      5 UNK        -0.5000 
     50 C           2.3595  -13.9308  -42.5944 C.2       4 UNK         0.5000 
     51 O           2.1492  -14.7642  -43.4782 O.2       4 UNK        -0.5000 
     52 CA          3.6362  -13.0645  -42.6102 C.3       4 UNK         0.1400 
     53 CB          4.5986  -13.4297  -43.7540 C.3       4 UNK        -0.1800 
     54 N           3.3161  -11.6357  -42.6739 N.am      4 UNK        -0.5000 
     55 C           2.9309  -10.8893  -41.6272 C.2       3 UNK         0.5000 
     56 O           2.8276  -11.3383  -40.4841 O.2       3 UNK        -0.5000 
     57 CA          2.5843   -9.4086  -41.8792 C.3       3 UNK         0.1400 
     58 CB          3.7659   -8.5085  -41.4871 C.3       3 UNK        -0.1800 
     59 N           2.2035   -9.1126  -43.2598 N.am      3 UNK        -0.5000 
     60 C           1.0787   -9.5229  -43.8608 C.2       2 UNK         0.5000 
     61 O           0.2122  -10.1992  -43.3050 O.2       2 UNK        -0.5000 
     62 CA          0.8929   -9.1271  -45.3414 C.3       2 UNK         0.1400 
     63 CB          1.7581   -7.9243  -45.7807 C.3       2 UNK        -0.1800 
     64 N           1.1087  -10.2568  -46.2506 N.am      2 UNK        -0.5000 
     65 C           2.1916  -11.0479  -46.3235 C.2       1 UNK         0.5000 
     66 O           3.1676  -10.9479  -45.5782 O.2       1 UNK        -0.5000 
     67 C          -1.9546  -22.2048  -47.6533 C.2       11 UNK         0.5000 
     68 O          -2.3525  -23.0183  -48.4869 O.2       11 UNK        -0.5000 
     69 N          -2.7679  -21.5683  -46.7968 N.am      12 UNK        -0.5000 
     70 CA         -4.2073  -21.8121  -46.6851 C.3       12 UNK         0.1400 
     71 CB         -4.8432  -20.8177  -45.7027 C.3       12 UNK        -0.1800 
     72 C          -4.5245  -23.2653  -46.2914 C.2       12 UNK         0.5000 
     73 O          -5.3432  -23.9043  -46.9548 O.2       12 UNK        -0.5000 
     74 N          -3.8260  -23.7700  -45.2628 N.am      13 UNK        -0.5000 
     75 CA         -3.8980  -25.1556  -44.7942 C.3       13 UNK         0.1400 
     76 CB         -3.0668  -25.3104  -43.5121 C.3       13 UNK        -0.1800 
     77 C          -3.4569  -26.1770  -45.8592 C.2       13 UNK         0.5000 
     78 O          -4.0746  -27.2361  -45.9748 O.2       13 UNK        -0.5000 
     79 N          -2.4487  -25.8203  -46.6665 N.am      14 UNK        -0.5000 
     80 CA         -1.9740  -26.5654  -47.8359 C.3       14 UNK         0.1400 
     81 CB         -0.5245  -26.1467  -48.1393 C.3       14 UNK        -0.1800 
     82 C          -2.9021  -26.4081  -49.0636 C.2       14 UNK         0.5000 
     83 O          -2.4236  -26.1719  -50.1749 O.2       14 UNK        -0.5000 
     84 N          -4.2166  -26.5451  -48.8386 N.am      15 UNK        -0.5000 
     85 CA         -5.3095  -26.5072  -49.8137 C.3       15 UNK         0.1400 
     86 CB         -5.2989  -27.7951  -50.6635 C.3       15 UNK        -0.1800 
     87 C          -5.3235  -25.2266  -50.6730 C.2       15 UNK         0.5000 
     88 O          -5.4676  -25.3121  -51.8929 O.2       15 UNK        -0.5000 
     89 N          -5.1502  -24.0647  -50.0250 N.am      16 UNK        -0.5000 
     90 CA         -5.0830  -22.7326  -50.6412 C.3       16 UNK         0.1400 
     91 CB         -6.4597  -22.3319  -51.2098 C.3       16 UNK        -0.1800 
     92 C          -3.9466  -22.6160  -51.6790 C.2       16 UNK         0.5000 
     93 O          -4.1737  -22.1543  -52.7992 O.2       16 UNK        -0.5000 
     94 N          -2.7501  -23.0595  -51.2731 N.am      17 UNK        -0.5000 
     95 CA         -1.5249  -23.1861  -52.0645 C.3       17 UNK         0.1400 
     96 CB         -1.0118  -21.8026  -52.5101 C.3       17 UNK        -0.1800 
     97 C          -1.6946  -24.1792  -53.2321 C.2       17 UNK         0.5000 
     98 O          -1.3716  -23.8558  -54.3758 O.2       17 UNK        -0.5000 
     99 N          -2.2098  -25.3739  -52.9072 N.am      18 UNK        -0.5000 
    100 CA        -2.4903  -26.4960  -53.8082 C.3       18 UNK         0.1400 
    101 CB        -1.1757  -27.1127  -54.3298 C.3       18 UNK        -0.1800 
    102 C         -3.4808  -26.1294  -54.9342 C.2       18 UNK         0.5000 
    103 O         -3.2151  -26.3944  -56.1085 O.2       18 UNK        -0.5000 
    104 N         -4.6099  -25.5246  -54.5387 N.am      19 UNK        -0.5000 
    105 CA        -5.7295  -25.0844  -55.3752 C.3       19 UNK         0.1400 
    106 CB        -6.4670  -26.2966  -55.9811 C.3       19 UNK        -0.1800 
    107 C         -5.3327  -24.0246  -56.4242 C.2       19 UNK         0.5000 
    108 O         -5.8060  -24.0700  -57.5613 O.2       19 UNK        -0.5000 
    109 N         -4.4764  -23.0803  -56.0124 N.am      20 UNK        -0.5000 
    110 CA        -4.0533  -21.9157  -56.7923 C.3       20 UNK         0.1400 
    111 CB        -3.0016  -21.1129  -56.0120 C.3       20 UNK        -0.1800 
    112 C         -5.1950  -21.0012  -57.3069 C.2       20 UNK         0.5000 
    113 O         -5.1574  -20.6472  -58.4846 O.2       20 UNK        -0.5000 
    114 N         -6.2134  -20.6163  -56.5195 N.am      21 UNK        -0.5000 
    115 CA        -6.3741  -20.7475  -55.0731 C.3       21 UNK         0.1400 
    116 CB        -7.8072  -21.2106  -54.7697 C.3       21 UNK        -0.1800 
    117 C         -6.0839  -19.3949  -54.4096 C.2       21 UNK         0.5000 
    118 O         -6.6305  -18.3759  -54.8375 O.2       21 UNK        -0.5000 
    119 N         -5.2405  -19.4185  -53.3737 N.am      22 UNK        -0.5000 
    120 CA        -4.8269  -18.2389  -52.5919 C.3       22 UNK         0.1400 
    121 C         -5.7923  -17.8701  -51.4250 C.2       22 UNK         0.5000 
    122 N         -6.9184  -18.5488  -51.2434 N.am      22 UNK        -0.7600 
    123 O         -5.5248  -16.9357  -50.6751 O.2       22 UNK        -0.5000 
    124 C124       -3.3629  -18.3771  -52.1016 C.3       23 UNK        -0.0398 
    125 S125       -2.1851  -18.4411  -53.4953 S.3       23 UNK        -0.2404 
    126 C126       -1.0829  -17.0348  -53.1311 C.3       23 UNK        -0.0205 
    127 H127        0.5236   -9.4491  -50.6162 H         1 UNK         0.0600 
    128 H128       -0.0283  -11.1266  -50.6142 H         1 UNK         0.0600 
    129 H129        1.3666  -10.6587  -51.5899 H         1 UNK         0.0600 
    130 H130        0.5593  -12.2114  -48.7644 H         1 UNK         0.3000 
    131 H131        3.2410  -12.2344  -47.7399 H         1 UNK         0.0600 
    132 H132        0.6630  -13.4599  -46.6315 H         1 UNK         0.0800 
    133 H133        2.2397  -13.7264  -45.9427 H         1 UNK         0.0800 
    134 H134       -0.2015  -15.6051  -47.7802 H         1 UNK         0.0800 
    135 H135       -0.0657  -14.3782  -49.0162 H         1 UNK         0.0800 
    136 H136       -0.8646  -15.3117  -51.0292 H         1 UNK         0.1150 
    137 H137        0.4605  -19.1528  -52.3811 H         1 UNK         0.1150 
    138 H138        1.6929  -17.6898  -48.5457 H         1 UNK         0.1150 
    139 H139        1.6306  -20.6212  -50.9382 H         1 UNK         0.0800 
    140 H140        2.9954  -19.6637  -50.4132 H         1 UNK         0.0800 
    141 H141       -0.4774  -20.7493  -49.3740 H         1 UNK         0.0800 
    142 H142       -0.4229  -19.7764  -47.9220 H         1 UNK         0.0800 
    143 H143        0.0617  -22.7924  -47.9797 H         1 UNK         0.0600 
    144 H144        0.3520  -20.9310  -45.8417 H         1 UNK         0.3000 
    145 H145        0.0319  -23.3745  -43.2089 H         1 UNK         0.0600 
    146 H146        2.3869  -23.3742  -44.0307 H         1 UNK         0.0600 
    147 H147        2.3241  -21.6314  -44.2559 H         1 UNK         0.0600 
    148 H148        2.1946  -22.3190  -42.6390 H         1 UNK         0.0600 
    149 H149        0.3804  -20.5600  -43.0818 H         1 UNK         0.3000 
    150 H150       -3.1117  -19.6908  -42.9997 H         1 UNK         0.0600 
    151 H151       -2.4574  -20.4098  -40.6934 H         1 UNK         0.0600 
    152 H152       -2.3648  -18.6654  -40.8814 H         1 UNK         0.0600 
    153 H153       -0.8910  -19.6318  -40.8904 H         1 UNK         0.0600 
    154 H154       -0.8369  -18.0346  -42.8069 H         1 UNK         0.3000 
    155 H155       -0.3717  -17.4376  -46.3266 H         1 UNK         0.0600 
    156 H156       -0.4785  -15.1216  -45.3258 H         1 UNK         0.0600 
    157 H157       -1.3312  -15.7756  -43.9330 H         1 UNK         0.0600 
    158 H158       -2.0694  -15.8430  -45.5258 H         1 UNK         0.0600 
    159 H159        1.1582  -16.5268  -44.1348 H         1 UNK         0.3000 
    160 H160        3.4580  -19.2692  -43.9469 H         1 UNK         0.0600 
    161 H161        3.6606  -16.3610  -44.9018 H         1 UNK         0.0600 
    162 H162        4.2799  -17.7783  -45.7304 H         1 UNK         0.0600 
    163 H163        4.9790  -17.2939  -44.1927 H         1 UNK         0.0600 
    164 H164        3.0485  -16.8078  -42.4802 H         1 UNK         0.3000 
    165 H165        1.0915  -18.2531  -39.8670 H         1 UNK         0.0600 
    166 H166        2.9547  -17.3873  -38.4805 H         1 UNK         0.0600 
    167 H167        3.4437  -18.8678  -39.2888 H         1 UNK         0.0600 
    168 H168        4.0119  -17.3150  -39.8907 H         1 UNK         0.0600 
    169 H169        2.2072  -15.6465  -40.2393 H         1 UNK         0.3000 
    170 H170       -0.3589  -14.2696  -42.2474 H         1 UNK         0.0600 
    171 H171       -1.4395  -14.2541  -39.9918 H         1 UNK         0.0600 
    172 H172        0.1042  -13.8572  -39.2448 H         1 UNK         0.0600 
    173 H173       -0.6687  -12.7152  -40.3444 H         1 UNK         0.0600 
    174 H174        1.7709  -12.9929  -40.9074 H         1 UNK         0.3000 
    175 H175        4.1648  -13.2632  -41.6755 H         1 UNK         0.0600 
    176 H176        5.5073  -12.8294  -43.7089 H         1 UNK         0.0600 
    177 H177        4.8994  -14.4760  -43.6915 H         1 UNK         0.0600 
    178 H178        4.1489  -13.2768  -44.7334 H         1 UNK         0.0600 
    179 H179        3.3274  -11.2153  -43.5986 H         1 UNK         0.3000 
    180 H180        1.7379   -9.1592  -41.2359 H         1 UNK         0.0600 
    181 H181        4.6402   -8.6981  -42.1112 H         1 UNK         0.0600 
    182 H182        4.0598   -8.6779  -40.4503 H         1 UNK         0.0600 
    183 H183        3.5074   -7.4536  -41.5812 H         1 UNK         0.0600 
    184 H184        2.8722   -8.5925  -43.8091 H         1 UNK         0.3000 
    185 H185       -0.1526   -8.8346  -45.4488 H         1 UNK         0.0600 
    186 H186        1.5996   -7.0648  -45.1280 H         1 UNK         0.0600 
    187 H187        2.8238   -8.1556  -45.7779 H         1 UNK         0.0600 
    188 H188        1.4970   -7.6102  -46.7914 H         1 UNK         0.0600 
    189 H189        0.3579  -10.4368  -46.9015 H         1 UNK         0.3000 
    190 H190       -2.3792  -20.8609  -46.1780 H         1 UNK         0.3000 
    191 H191       -4.6497  -21.6284  -47.6633 H         1 UNK         0.0600 
    192 H192       -4.6831  -19.7888  -46.0251 H         1 UNK         0.0600 
    193 H193       -5.9207  -20.9725  -45.6352 H         1 UNK         0.0600 
    194 H194       -4.4350  -20.9207  -44.6982 H         1 UNK         0.0600 
    195 H195       -3.1934  -23.1563  -44.7553 H         1 UNK         0.3000 
    196 H196       -4.9411  -25.3656  -44.5498 H         1 UNK         0.0600 
    197 H197       -3.1225  -26.3306  -43.1303 H         1 UNK         0.0600 
    198 H198       -3.4293  -24.6483  -42.7256 H         1 UNK         0.0600 
    199 H199       -2.0150  -25.0800  -43.6833 H         1 UNK         0.0600 
    200 H200       -1.9731  -24.9447  -46.4767 H         1 UNK         0.3000 
    201 H201       -1.9625  -27.6277  -47.5845 H         1 UNK         0.0600 
    202 H202        0.1170  -26.2828  -47.2685 H         1 UNK         0.0600 
    203 H203       -0.4653  -25.1006  -48.4388 H         1 UNK         0.0600 
    204 H204       -0.1034  -26.7447  -48.9483 H         1 UNK         0.0600 
    205 H205       -4.4918  -26.7323  -47.8804 H         1 UNK         0.3000 
    206 H206       -6.2363  -26.4964  -49.2387 H         1 UNK         0.0600 
    207 H207       -5.3443  -28.6828  -50.0327 H         1 UNK         0.0600 
    208 H208       -6.1583  -27.8315  -51.3341 H         1 UNK         0.0600 
    209 H209       -4.4005  -27.8667  -51.2767 H         1 UNK         0.0600 
    210 H210       -5.0272  -24.0964  -49.0181 H         1 UNK         0.3000 
    211 H211       -4.8378  -22.0273  -49.8493 H         1 UNK         0.0600 
    212 H212       -6.7526  -22.9597  -52.0519 H         1 UNK         0.0600 
    213 H213       -6.4488  -21.3018  -51.5604 H         1 UNK         0.0600 
    214 H214       -7.2368  -22.4061  -50.4492 H         1 UNK         0.0600 
    215 H215       -2.6747  -23.3761  -50.3089 H         1 UNK         0.3000 
    216 H216       -0.7767  -23.6160  -51.3968 H         1 UNK         0.0600 
    217 H217       -0.0156  -21.8778  -52.9466 H         1 UNK         0.0600 
    218 H218       -0.9512  -21.1121  -51.6703 H         1 UNK         0.0600 
    219 H219       -1.6620  -21.3558  -53.2611 H         1 UNK         0.0600 
    220 H220       -2.4200  -25.5471  -51.9256 H         1 UNK         0.3000 
    221 H221       -2.9873  -27.2541  -53.2019 H         1 UNK         0.0600 
    222 H222       -0.6302  -26.4221  -54.9736 H         1 UNK         0.0600 
    223 H223       -0.5192  -27.3931  -53.5061 H         1 UNK         0.0600 
    224 H224       -1.3713  -28.0153  -54.9098 H         1 UNK         0.0600 
    225 H225       -4.7471  -25.3727  -53.5395 H         1 UNK         0.3000 
    226 H226       -6.4255  -24.5860  -54.6988 H         1 UNK         0.0600 
    227 H227       -6.7565  -27.0076  -55.2072 H         1 UNK         0.0600 
    228 H228       -7.3795  -25.9846  -56.4904 H         1 UNK         0.0600 
    229 H229       -5.8503  -26.8245  -56.7089 H         1 UNK         0.0600 
    230 H230       -4.1226  -23.1352  -55.0658 H         1 UNK         0.3000 
    231 H231       -3.5545  -22.3119  -57.6792 H         1 UNK         0.0600 
    232 H232       -3.3688  -20.8021  -55.0359 H         1 UNK         0.0600 
    233 H233       -2.7085  -20.2128  -56.5536 H         1 UNK         0.0600 
    234 H234       -2.0981  -21.7008  -55.8529 H         1 UNK         0.0600 
    235 H235       -6.8995  -20.0063  -56.9390 H         1 UNK         0.3000 
    236 H236       -5.7032  -21.4825  -54.6477 H         1 UNK         0.0600 
    237 H237       -8.0052  -22.1864  -55.2137 H         1 UNK         0.0600 
    238 H238       -7.9708  -21.3040  -53.6958 H         1 UNK         0.0600 
    239 H239       -8.5497  -20.5107  -55.1554 H         1 UNK         0.0600 
    240 H240       -4.8183  -20.3027  -53.1063 H         1 UNK         0.3000 
    241 H241       -4.8554  -17.3704  -53.2528 H         1 UNK         0.0600 
    242 H242       -7.5346  -18.2876  -50.4898 H         1 UNK         0.3800 
    243 H243       -7.1812  -19.2873  -51.8732 H         1 UNK         0.3800 
    244 H244       -3.0914  -17.5433  -51.4523 H         1 UNK         0.0800 
    245 H245       -3.2412  -19.2802  -51.5014 H         1 UNK         0.0800 
    246 H246       -1.6765  -16.1197  -53.1016 H         1 UNK         0.0800 
    247 H247       -0.3781  -16.9192  -53.9553 H         1 UNK         0.0800 
@<TRIPOS>BOND
     1    1    2 1    
     2    1  127 1    
     3    1  128 1    
     4    1  129 1    
     5    2    3 2    
     6    2    4 am   BACKBONE|DICT|INTERRES
     7    4    5 1    
     8    4  130 1    
     9    5    6 1    
    10    5   65 1    
    11    5  131 1    
    12    6    7 1    
    13    6  132 1    
    14    6  133 1    
    15    7    8 1    
    16    8    9 1    
    17    8  134 1    
    18    8  135 1    
    19    9   10 ar   
    20    9   14 ar   
    21   10   11 ar   
    22   10  136 1    
    23   11   12 ar   
    24   11  126 1    
    25   12   13 ar   
    26   12  137 1    
    27   13   14 ar   
    28   13   15 1    
    29   14  138 1    
    30   15   16 1    
    31   15  139 1    
    32   15  140 1    
    33   16   17 1    
    34   17   18 1    
    35   17  141 1    
    36   17  142 1    
    37   18   19 1    
    38   18   67 1    
    39   18  143 1    
    40   19   20 am   BACKBONE|DICT|INTERRES
    41   19  144 1    
    42   20   21 2    
    43   20   22 1    
    44   22   23 1    
    45   22   24 1    
    46   22  145 1    
    47   23  146 1    
    48   23  147 1    
    49   23  148 1    
    50   24   25 am   BACKBONE|DICT|INTERRES
    51   24  149 1    
    52   25   26 2    
    53   25   27 1    
    54   27   28 1    
    55   27   29 1    
    56   27  150 1    
    57   28  151 1    
    58   28  152 1    
    59   28  153 1    
    60   29   30 am   BACKBONE|DICT|INTERRES
    61   29  154 1    
    62   30   31 2    
    63   30   32 1    
    64   32   33 1    
    65   32   34 1    
    66   32  155 1    
    67   33  156 1    
    68   33  157 1    
    69   33  158 1    
    70   34   35 am   BACKBONE|DICT|INTERRES
    71   34  159 1    
    72   35   36 2    
    73   35   37 1    
    74   37   38 1    
    75   37   39 1    
    76   37  160 1    
    77   38  161 1    
    78   38  162 1    
    79   38  163 1    
    80   39   40 am   BACKBONE|DICT|INTERRES
    81   39  164 1    
    82   40   41 2    
    83   40   42 1    
    84   42   43 1    
    85   42   44 1    
    86   42  165 1    
    87   43  166 1    
    88   43  167 1    
    89   43  168 1    
    90   44   45 am   BACKBONE|DICT|INTERRES
    91   44  169 1    
    92   45   46 2    
    93   45   47 1    
    94   47   48 1    
    95   47   49 1    
    96   47  170 1    
    97   48  171 1    
    98   48  172 1    
    99   48  173 1    
   100   49   50 am   BACKBONE|DICT|INTERRES
   101   49  174 1    
   102   50   51 2    
   103   50   52 1    
   104   52   53 1    
   105   52   54 1    
   106   52  175 1    
   107   53  176 1    
   108   53  177 1    
   109   53  178 1    
   110   54   55 am   BACKBONE|DICT|INTERRES
   111   54  179 1    
   112   55   56 2    
   113   55   57 1    
   114   57   58 1    
   115   57   59 1    
   116   57  180 1    
   117   58  181 1    
   118   58  182 1    
   119   58  183 1    
   120   59   60 am   BACKBONE|DICT|INTERRES
   121   59  184 1    
   122   60   61 2    
   123   60   62 1    
   124   62   63 1    
   125   62   64 1    
   126   62  185 1    
   127   63  186 1    
   128   63  187 1    
   129   63  188 1    
   130   64   65 am   BACKBONE|DICT|INTERRES
   131   64  189 1    
   132   65   66 2    
   133   67   68 2    
   134   67   69 am   BACKBONE|DICT|INTERRES
   135   69   70 1    
   136   69  190 1    
   137   70   71 1    
   138   70   72 1    
   139   70  191 1    
   140   71  192 1    
   141   71  193 1    
   142   71  194 1    
   143   72   73 2    
   144   72   74 am   BACKBONE|DICT|INTERRES
   145   74   75 1    
   146   74  195 1    
   147   75   76 1    
   148   75   77 1    
   149   75  196 1    
   150   76  197 1    
   151   76  198 1    
   152   76  199 1    
   153   77   78 2    
   154   77   79 am   BACKBONE|DICT|INTERRES
   155   79   80 1    
   156   79  200 1    
   157   80   81 1    
   158   80   82 1    
   159   80  201 1    
   160   81  202 1    
   161   81  203 1    
   162   81  204 1    
   163   82   83 2    
   164   82   84 am   BACKBONE|DICT|INTERRES
   165   84   85 1    
   166   84  205 1    
   167   85   86 1    
   168   85   87 1    
   169   85  206 1    
   170   86  207 1    
   171   86  208 1    
   172   86  209 1    
   173   87   88 2    
   174   87   89 am   BACKBONE|DICT|INTERRES
   175   89   90 1    
   176   89  210 1    
   177   90   91 1    
   178   90   92 1    
   179   90  211 1    
   180   91  212 1    
   181   91  213 1    
   182   91  214 1    
   183   92   93 2    
   184   92   94 am   BACKBONE|DICT|INTERRES
   185   94   95 1    
   186   94  215 1    
   187   95   96 1    
   188   95   97 1    
   189   95  216 1    
   190   96  217 1    
   191   96  218 1    
   192   96  219 1    
   193   97   98 2    
   194   97   99 am   BACKBONE|DICT|INTERRES
   195   99  100 1    
   196   99  220 1    
   197  100  101 1    
   198  100  102 1    
   199  100  221 1    
   200  101  222 1    
   201  101  223 1    
   202  101  224 1    
   203  102  103 2    
   204  102  104 am   BACKBONE|DICT|INTERRES
   205  104  105 1    
   206  104  225 1    
   207  105  106 1    
   208  105  107 1    
   209  105  226 1    
   210  106  227 1    
   211  106  228 1    
   212  106  229 1    
   213  107  108 2    
   214  107  109 am   BACKBONE|DICT|INTERRES
   215  109  110 1    
   216  109  230 1    
   217  110  111 1    
   218  110  112 1    
   219  110  231 1    
   220  111  232 1    
   221  111  233 1    
   222  111  234 1    
   223  112  113 2    
   224  112  114 am   BACKBONE|DICT|INTERRES
   225  114  115 1    
   226  114  235 1    
   227  115  116 1    
   228  115  117 1    
   229  115  236 1    
   230  116  237 1    
   231  116  238 1    
   232  116  239 1    
   233  117  118 2    
   234  117  119 am   BACKBONE|DICT|INTERRES
   235  119  120 1    
   236  119  240 1    
   237  120  121 1    
   238  120  124 1    
   239  120  241 1    
   240  121  122 am   BACKBONE|DICT|INTERRES
   241  121  123 2    
   242  122  242 1    
   243  122  243 1    
   244  124  125 1    
   245  124  244 1    
   246  124  245 1    
   247  125  126 1    
   248  126  246 1    
   249  126  247 1    
@<TRIPOS>SUBSTRUCTURE
     1 UNK         1 GROUP             0       ****    0 ROOT    
