@<TRIPOS>MOLECULE
3R540
247   249    1
SMALL
USER_CHARGES


@<TRIPOS>ATOM
      1 CA         -4.1329  -10.9254  -45.6659 C.3       0 UNK        -0.1800 
      2 C          -4.1526  -12.4513  -45.7156 C.2       0 UNK         0.5000 
      3 O          -3.6435  -13.0924  -44.8005 O.2       0 UNK        -0.5000 
      4 N          -4.7240  -13.0844  -46.7483 N.am      1 UNK        -0.5000 
      5 CA         -5.3887  -12.4924  -47.9179 C.3       1 UNK         0.1400 
      6 C6         -6.3497  -13.5037  -48.5949 C.3       23 UNK        -0.0398 
      7 S7         -5.5943  -15.1272  -48.9575 S.3       23 UNK        -0.2404 
      8 C8         -7.0823  -16.1141  -49.2949 C.3       23 UNK        -0.0205 
      9 C9         -6.7317  -17.5663  -49.5770 C.ar      23 UNK        -0.0193 
     10 C10        -6.5369  -18.0057  -50.8897 C.ar      23 UNK        -0.1150 
     11 C11        -6.2317  -19.3450  -51.1527 C.ar      23 UNK        -0.0193 
     12 C12        -6.1258  -20.2470  -50.0869 C.ar      23 UNK        -0.1150 
     13 C13        -6.2831  -19.8114  -48.7675 C.ar      23 UNK        -0.0193 
     14 C14        -6.5999  -18.4724  -48.5213 C.ar      23 UNK        -0.1150 
     15 C15        -6.0734  -20.7682  -47.6028 C.3       23 UNK        -0.0205 
     16 S16        -4.4179  -20.5265  -46.8896 S.3       23 UNK        -0.2404 
     17 C17        -4.3619  -21.7512  -45.5421 C.3       23 UNK        -0.0398 
     18 CA         -3.3785  -22.9058  -45.8511 C.3       11 UNK         0.1400 
     19 N          -1.9743  -22.4692  -45.9141 N.am      11 UNK        -0.5000 
     20 C          -0.9670  -23.2376  -46.3540 C.2       10 UNK         0.5000 
     21 O          -1.1305  -24.3851  -46.7653 O.2       10 UNK        -0.5000 
     22 CA          0.4678  -22.6899  -46.2456 C.3       10 UNK         0.1400 
     23 CB          0.8514  -21.8613  -47.4758 C.3       10 UNK        -0.1800 
     24 N           0.7224  -21.9051  -45.0388 N.am      10 UNK        -0.5000 
     25 C           0.6311  -22.3644  -43.7841 C.2       9 UNK         0.5000 
     26 O           0.2392  -23.4955  -43.4983 O.2       9 UNK        -0.5000 
     27 CA          1.0214  -21.3878  -42.6638 C.3       9 UNK         0.1400 
     28 CB          2.5433  -21.1818  -42.6130 C.3       9 UNK        -0.1800 
     29 N           0.3569  -20.1003  -42.8403 N.am      9 UNK        -0.5000 
     30 C          -0.9226  -19.8685  -42.5181 C.2       8 UNK         0.5000 
     31 O          -1.6431  -20.6840  -41.9413 O.2       8 UNK        -0.5000 
     32 CA         -1.5060  -18.5038  -42.9308 C.3       8 UNK         0.1400 
     33 CB         -1.3260  -17.4797  -41.8006 C.3       8 UNK        -0.1800 
     34 N          -0.9373  -17.9710  -44.1729 N.am      8 UNK        -0.5000 
     35 C          -1.0533  -18.5698  -45.3676 C.2       7 UNK         0.5000 
     36 O          -1.6029  -19.6569  -45.5323 O.2       7 UNK        -0.5000 
     37 CA         -0.4001  -17.8749  -46.5730 C.3       7 UNK         0.1400 
     38 CB         -1.2662  -16.7081  -47.0743 C.3       7 UNK        -0.1800 
     39 N           0.9587  -17.4033  -46.3119 N.am      7 UNK        -0.5000 
     40 C           1.9918  -18.1675  -45.9293 C.2       6 UNK         0.5000 
     41 O           1.9014  -19.3655  -45.6625 O.2       6 UNK        -0.5000 
     42 CA          3.3519  -17.4664  -45.8047 C.3       6 UNK         0.1400 
     43 CB          3.9537  -17.1808  -47.1898 C.3       6 UNK        -0.1800 
     44 N           3.2165  -16.2159  -45.0644 N.am      6 UNK        -0.5000 
     45 C           3.3133  -16.1160  -43.7326 C.2       5 UNK         0.5000 
     46 O           3.6176  -17.0538  -42.9944 O.2       5 UNK        -0.5000 
     47 CA          3.0068  -14.7382  -43.1138 C.3       5 UNK         0.1400 
     48 CB          4.2944  -13.9117  -42.9763 C.3       5 UNK        -0.1800 
     49 N           2.0172  -13.9603  -43.8626 N.am      5 UNK        -0.5000 
     50 C           0.7366  -14.3162  -44.0318 C.2       4 UNK         0.5000 
     51 O           0.2507  -15.3633  -43.6059 O.2       4 UNK        -0.5000 
     52 CA         -0.1418  -13.3539  -44.8483 C.3       4 UNK         0.1400 
     53 CB         -0.5780  -12.1669  -43.9756 C.3       4 UNK        -0.1800 
     54 N           0.4634  -12.8370  -46.0795 N.am      4 UNK        -0.5000 
     55 C           1.1142  -13.5241  -47.0277 C.2       3 UNK         0.5000 
     56 O           1.4293  -14.7106  -46.9291 O.2       3 UNK        -0.5000 
     57 CA          1.4142  -12.7496  -48.3260 C.3       3 UNK         0.1400 
     58 CB          2.4659  -13.4580  -49.1983 C.3       3 UNK        -0.1800 
     59 N           0.1859  -12.5501  -49.1027 N.am      3 UNK        -0.5000 
     60 C          -0.7631  -11.6492  -48.8034 C.2       2 UNK         0.5000 
     61 O          -0.6709  -10.8618  -47.8593 O.2       2 UNK        -0.5000 
     62 CA         -2.0436  -11.6239  -49.6501 C.3       2 UNK         0.1400 
     63 CB         -1.9406  -12.3421  -51.0062 C.3       2 UNK        -0.1800 
     64 N          -3.1217  -12.1980  -48.8506 N.am      2 UNK        -0.5000 
     65 C          -4.4127  -11.8564  -48.9355 C.2       1 UNK         0.5000 
     66 O          -4.8481  -11.0470  -49.7556 O.2       1 UNK        -0.5000 
     67 C          -3.6110  -24.0952  -44.8909 C.2       11 UNK         0.5000 
     68 O          -4.6134  -24.7916  -45.0491 O.2       11 UNK        -0.5000 
     69 N          -2.6921  -24.3308  -43.9439 N.am      12 UNK        -0.5000 
     70 CA         -2.6819  -25.5123  -43.0852 C.3       12 UNK         0.1400 
     71 CB         -2.2889  -25.1036  -41.6562 C.3       12 UNK        -0.1800 
     72 C          -1.7225  -26.5812  -43.6373 C.2       12 UNK         0.5000 
     73 O          -2.1197  -27.7377  -43.7781 O.2       12 UNK        -0.5000 
     74 N          -0.4773  -26.1812  -43.9306 N.am      13 UNK        -0.5000 
     75 CA          0.6273  -27.0750  -44.2851 C.3       13 UNK         0.1400 
     76 CB          1.9517  -26.3050  -44.1644 C.3       13 UNK        -0.1800 
     77 C           0.5061  -27.7155  -45.6795 C.2       13 UNK         0.5000 
     78 O           0.8428  -28.8902  -45.8337 O.2       13 UNK        -0.5000 
     79 N           0.0423  -26.9376  -46.6639 N.am      14 UNK        -0.5000 
     80 CA         -0.1147  -27.3437  -48.0634 C.3       14 UNK         0.1400 
     81 CB          0.6782  -26.3635  -48.9460 C.3       14 UNK        -0.1800 
     82 C          -1.5959  -27.3889  -48.4862 C.2       14 UNK         0.5000 
     83 O          -1.8817  -27.6884  -49.6456 O.2       14 UNK        -0.5000 
     84 N          -2.5037  -27.0769  -47.5486 N.am      15 UNK        -0.5000 
     85 CA         -3.9627  -26.9830  -47.6814 C.3       15 UNK         0.1400 
     86 CB         -4.5713  -28.3223  -48.1466 C.3       15 UNK        -0.1800 
     87 C          -4.4570  -25.7921  -48.5338 C.2       15 UNK         0.5000 
     88 O          -5.6651  -25.6652  -48.7381 O.2       15 UNK        -0.5000 
     89 N          -3.5458  -24.9257  -48.9923 N.am      16 UNK        -0.5000 
     90 CA         -3.8195  -23.7338  -49.7868 C.3       16 UNK         0.1400 
     91 CB         -4.2277  -24.1214  -51.2206 C.3       16 UNK        -0.1800 
     92 C          -2.5617  -22.8584  -49.8098 C.2       16 UNK         0.5000 
     93 O          -1.4484  -23.3868  -49.7710 O.2       16 UNK        -0.5000 
     94 N          -2.7550  -21.5403  -49.9182 N.am      17 UNK        -0.5000 
     95 CA         -1.7138  -20.5190  -50.0314 C.3       17 UNK         0.1400 
     96 CB         -2.3175  -19.1637  -49.6268 C.3       17 UNK        -0.1800 
     97 C          -1.0631  -20.4889  -51.4299 C.2       17 UNK         0.5000 
     98 O          -1.1040  -19.4610  -52.1115 O.2       17 UNK        -0.5000 
     99 N          -0.4947  -21.6270  -51.8468 N.am      18 UNK        -0.5000 
    100 CA         0.1913  -21.8304  -53.1222 C.3       18 UNK         0.1400 
    101 CB         0.7038  -23.2769  -53.1903 C.3       18 UNK        -0.1800 
    102 C          1.3393  -20.8220  -53.3057 C.2       18 UNK         0.5000 
    103 O          2.2412  -20.7722  -52.4676 O.2       18 UNK        -0.5000 
    104 N          1.2296  -19.9862  -54.3473 N.am      19 UNK        -0.5000 
    105 CA         2.0683  -18.8269  -54.6907 C.3       19 UNK         0.1400 
    106 CB         3.5376  -19.2357  -54.9111 C.3       19 UNK        -0.1800 
    107 C          1.9611  -17.6323  -53.7153 C.2       19 UNK         0.5000 
    108 O          2.1360  -16.4935  -54.1498 O.2       19 UNK        -0.5000 
    109 N          1.6620  -17.8918  -52.4360 N.am      20 UNK        -0.5000 
    110 CA         1.4732  -16.8928  -51.3843 C.3       20 UNK         0.1400 
    111 CB         1.4767  -17.5894  -50.0146 C.3       20 UNK        -0.1800 
    112 C          0.2004  -16.0447  -51.5658 C.2       20 UNK         0.5000 
    113 O          0.2127  -14.8688  -51.1996 O.2       20 UNK        -0.5000 
    114 N         -0.8611  -16.6376  -52.1296 N.am      21 UNK        -0.5000 
    115 CA        -2.1135  -15.9477  -52.4380 C.3       21 UNK         0.1400 
    116 CB        -3.0307  -15.9144  -51.2047 C.3       21 UNK        -0.1800 
    117 C         -2.8579  -16.5552  -53.6356 C.2       21 UNK         0.5000 
    118 O         -3.4879  -15.8020  -54.3792 O.2       21 UNK        -0.5000 
    119 N         -2.7993  -17.8836  -53.8112 N.am      22 UNK        -0.5000 
    120 CA        -3.5730  -18.6001  -54.8463 C.3       22 UNK         0.1400 
    121 C         -3.0042  -18.4789  -56.2918 C.2       22 UNK         0.5000 
    122 N         -1.8331  -17.8896  -56.5013 N.am      22 UNK        -0.7600 
    123 O         -3.6395  -18.9265  -57.2427 O.2       22 UNK        -0.5000 
    124 C124       -3.8475  -20.0895  -54.4946 C.3       23 UNK        -0.0398 
    125 S125       -4.2743  -20.4067  -52.7521 S.3       23 UNK        -0.2404 
    126 C126       -5.9802  -19.8078  -52.5825 C.3       23 UNK        -0.0205 
    127 H127       -5.1328  -10.5106  -45.7887 H         1 UNK         0.0600 
    128 H128       -3.4824  -10.5207  -46.4410 H         1 UNK         0.0600 
    129 H129       -3.7525  -10.5828  -44.7034 H         1 UNK         0.0600 
    130 H130       -4.7169  -14.0949  -46.7510 H         1 UNK         0.3000 
    131 H131       -6.0148  -11.6734  -47.5602 H         1 UNK         0.0600 
    132 H132       -7.2006  -13.6713  -47.9332 H         1 UNK         0.0800 
    133 H133       -6.7713  -13.0933  -49.5145 H         1 UNK         0.0800 
    134 H134       -7.7591  -16.0584  -48.4408 H         1 UNK         0.0800 
    135 H135       -7.6176  -15.6840  -50.1428 H         1 UNK         0.0800 
    136 H136       -6.6159  -17.3006  -51.7052 H         1 UNK         0.1150 
    137 H137       -5.8886  -21.2813  -50.2887 H         1 UNK         0.1150 
    138 H138       -6.7224  -18.1304  -47.5032 H         1 UNK         0.1150 
    139 H139       -6.8311  -20.5911  -46.8381 H         1 UNK         0.0800 
    140 H140       -6.1888  -21.8036  -47.9262 H         1 UNK         0.0800 
    141 H141       -5.3732  -22.1276  -45.3765 H         1 UNK         0.0800 
    142 H142       -4.0710  -21.2410  -44.6222 H         1 UNK         0.0800 
    143 H143       -3.6320  -23.2803  -46.8421 H         1 UNK         0.0600 
    144 H144       -1.7837  -21.5072  -45.6384 H         1 UNK         0.3000 
    145 H145        1.1327  -23.5550  -46.2137 H         1 UNK         0.0600 
    146 H146        1.9171  -21.6322  -47.4768 H         1 UNK         0.0600 
    147 H147        0.6348  -22.3980  -48.3997 H         1 UNK         0.0600 
    148 H148        0.3120  -20.9158  -47.4917 H         1 UNK         0.0600 
    149 H149        1.0569  -20.9560  -45.1890 H         1 UNK         0.3000 
    150 H150        0.7100  -21.8242  -41.7122 H         1 UNK         0.0600 
    151 H151        3.0601  -22.1323  -42.4746 H         1 UNK         0.0600 
    152 H152        2.8241  -20.5347  -41.7818 H         1 UNK         0.0600 
    153 H153        2.9257  -20.7306  -43.5291 H         1 UNK         0.0600 
    154 H154        0.8614  -19.3905  -43.3523 H         1 UNK         0.3000 
    155 H155       -2.5765  -18.6439  -43.0942 H         1 UNK         0.0600 
    156 H156       -0.2718  -17.2745  -41.6097 H         1 UNK         0.0600 
    157 H157       -1.8127  -16.5350  -42.0437 H         1 UNK         0.0600 
    158 H158       -1.7651  -17.8414  -40.8700 H         1 UNK         0.0600 
    159 H159       -0.4512  -17.0801  -44.1037 H         1 UNK         0.3000 
    160 H160       -0.3343  -18.6094  -47.3770 H         1 UNK         0.0600 
    161 H161       -0.8639  -16.2816  -47.9935 H         1 UNK         0.0600 
    162 H162       -1.3294  -15.9105  -46.3350 H         1 UNK         0.0600 
    163 H163       -2.2842  -17.0370  -47.2878 H         1 UNK         0.0600 
    164 H164        1.1327  -16.4180  -46.5011 H         1 UNK         0.3000 
    165 H165        4.0316  -18.1397  -45.2779 H         1 UNK         0.0600 
    166 H166        4.9510  -16.7500  -47.1014 H         1 UNK         0.0600 
    167 H167        4.0464  -18.0988  -47.7714 H         1 UNK         0.0600 
    168 H168        3.3423  -16.4857  -47.7658 H         1 UNK         0.0600 
    169 H169        2.8866  -15.4150  -45.5897 H         1 UNK         0.3000 
    170 H170        2.6042  -14.9123  -42.1137 H         1 UNK         0.0600 
    171 H171        4.7296  -13.6805  -43.9494 H         1 UNK         0.0600 
    172 H172        4.1065  -12.9707  -42.4591 H         1 UNK         0.0600 
    173 H173        5.0465  -14.4529  -42.4005 H         1 UNK         0.0600 
    174 H174        2.3316  -13.0916  -44.2694 H         1 UNK         0.3000 
    175 H175       -1.0373  -13.9023  -45.1428 H         1 UNK         0.0600 
    176 H176       -1.2684  -11.5156  -44.5114 H         1 UNK         0.0600 
    177 H177        0.2731  -11.5623  -43.6600 H         1 UNK         0.0600 
    178 H178       -1.0912  -12.5111  -43.0766 H         1 UNK         0.0600 
    179 H179        0.2093  -11.8850  -46.3198 H         1 UNK         0.3000 
    180 H180        1.8213  -11.7748  -48.0493 H         1 UNK         0.0600 
    181 H181        2.1550  -14.4653  -49.4728 H         1 UNK         0.0600 
    182 H182        3.4141  -13.5464  -48.6668 H         1 UNK         0.0600 
    183 H183        2.6567  -12.9040  -50.1174 H         1 UNK         0.0600 
    184 H184        0.0355  -13.1998  -49.8683 H         1 UNK         0.3000 
    185 H185       -2.2573  -10.5701  -49.8414 H         1 UNK         0.0600 
    186 H186       -1.8532  -13.4160  -50.8711 H         1 UNK         0.0600 
    187 H187       -2.8260  -12.1596  -51.6152 H         1 UNK         0.0600 
    188 H188       -1.0770  -11.9997  -51.5777 H         1 UNK         0.0600 
    189 H189       -2.8426  -12.8485  -48.1296 H         1 UNK         0.3000 
    190 H190       -1.8772  -23.7316  -43.8935 H         1 UNK         0.3000 
    191 H191       -3.6793  -25.9542  -43.0353 H         1 UNK         0.0600 
    192 H192       -3.0010  -24.3884  -41.2442 H         1 UNK         0.0600 
    193 H193       -2.2768  -25.9693  -40.9929 H         1 UNK         0.0600 
    194 H194       -1.2998  -24.6465  -41.6165 H         1 UNK         0.0600 
    195 H195       -0.2297  -25.2051  -43.7789 H         1 UNK         0.3000 
    196 H196        0.6452  -27.8861  -43.5541 H         1 UNK         0.0600 
    197 H197        2.8023  -26.9504  -44.3870 H         1 UNK         0.0600 
    198 H198        2.0922  -25.9185  -43.1547 H         1 UNK         0.0600 
    199 H199        1.9905  -25.4603  -44.8529 H         1 UNK         0.0600 
    200 H200       -0.2427  -25.9828  -46.4580 H         1 UNK         0.3000 
    201 H201        0.2891  -28.3454  -48.2222 H         1 UNK         0.0600 
    202 H202        1.7323  -26.3495  -48.6690 H         1 UNK         0.0600 
    203 H203        0.2975  -25.3452  -48.8620 H         1 UNK         0.0600 
    204 H204        0.6235  -26.6468  -49.9978 H         1 UNK         0.0600 
    205 H205       -2.1403  -26.8286  -46.6395 H         1 UNK         0.3000 
    206 H206       -4.3336  -26.8031  -46.6729 H         1 UNK         0.0600 
    207 H207       -4.2160  -29.1516  -47.5351 H         1 UNK         0.0600 
    208 H208       -5.6587  -28.3046  -48.0657 H         1 UNK         0.0600 
    209 H209       -4.3293  -28.5415  -49.1866 H         1 UNK         0.0600 
    210 H210       -2.5680  -25.0591  -48.7596 H         1 UNK         0.3000 
    211 H211       -4.6276  -23.1753  -49.3114 H         1 UNK         0.0600 
    212 H212       -3.4543  -24.7167  -51.7078 H         1 UNK         0.0600 
    213 H213       -4.3958  -23.2369  -51.8346 H         1 UNK         0.0600 
    214 H214       -5.1519  -24.6987  -51.2342 H         1 UNK         0.0600 
    215 H215       -3.6990  -21.1901  -49.9889 H         1 UNK         0.3000 
    216 H216       -0.9188  -20.7482  -49.3263 H         1 UNK         0.0600 
    217 H217       -1.6269  -18.3384  -49.7968 H         1 UNK         0.0600 
    218 H218       -2.5690  -19.1498  -48.5683 H         1 UNK         0.0600 
    219 H219       -3.2293  -18.9558  -50.1855 H         1 UNK         0.0600 
    220 H220       -0.5362  -22.4230  -51.2181 H         1 UNK         0.3000 
    221 H221       -0.5429  -21.6883  -53.9176 H         1 UNK         0.0600 
    222 H222        1.4121  -23.4908  -52.3886 H         1 UNK         0.0600 
    223 H223       -0.1169  -23.9901  -53.1097 H         1 UNK         0.0600 
    224 H224        1.2102  -23.4678  -54.1372 H         1 UNK         0.0600 
    225 H225        0.4224  -20.1002  -54.9441 H         1 UNK         0.3000 
    226 H226        1.6859  -18.4696  -55.6483 H         1 UNK         0.0600 
    227 H227        3.6174  -20.0484  -55.6330 H         1 UNK         0.0600 
    228 H228        4.1181  -18.3981  -55.2996 H         1 UNK         0.0600 
    229 H229        4.0166  -19.5581  -53.9865 H         1 UNK         0.0600 
    230 H230        1.5779  -18.8649  -52.1673 H         1 UNK         0.3000 
    231 H231        2.3240  -16.2090  -51.4156 H         1 UNK         0.0600 
    232 H232        0.7031  -18.3527  -49.9456 H         1 UNK         0.0600 
    233 H233        1.3064  -16.8728  -49.2102 H         1 UNK         0.0600 
    234 H234        2.4351  -18.0716  -49.8227 H         1 UNK         0.0600 
    235 H235       -0.8093  -17.6285  -52.3486 H         1 UNK         0.3000 
    236 H236       -1.8746  -14.9197  -52.7179 H         1 UNK         0.0600 
    237 H237       -2.5004  -15.6086  -50.3030 H         1 UNK         0.0600 
    238 H238       -3.8448  -15.2065  -51.3613 H         1 UNK         0.0600 
    239 H239       -3.4849  -16.8846  -51.0111 H         1 UNK         0.0600 
    240 H240       -2.2861  -18.4671  -53.1564 H         1 UNK         0.3000 
    241 H241       -4.5512  -18.1179  -54.8907 H         1 UNK         0.0600 
    242 H242       -1.3248  -17.4834  -55.7335 H         1 UNK         0.3800 
    243 H243       -1.4795  -17.8086  -57.4416 H         1 UNK         0.3800 
    244 H244       -4.6426  -20.4907  -55.1254 H         1 UNK         0.0800 
    245 H245       -2.9616  -20.6898  -54.7081 H         1 UNK         0.0800 
    246 H246       -6.6760  -20.6064  -52.8423 H         1 UNK         0.0800 
    247 H247       -6.1570  -18.9930  -53.2854 H         1 UNK         0.0800 
@<TRIPOS>BOND
     1    1    2 1    
     2    1  127 1    
     3    1  128 1    
     4    1  129 1    
     5    2    3 2    
     6    2    4 am   BACKBONE|DICT|INTERRES
     7    4    5 1    
     8    4  130 1    
     9    5    6 1    
    10    5   65 1    
    11    5  131 1    
    12    6    7 1    
    13    6  132 1    
    14    6  133 1    
    15    7    8 1    
    16    8    9 1    
    17    8  134 1    
    18    8  135 1    
    19    9   10 ar   
    20    9   14 ar   
    21   10   11 ar   
    22   10  136 1    
    23   11   12 ar   
    24   11  126 1    
    25   12   13 ar   
    26   12  137 1    
    27   13   14 ar   
    28   13   15 1    
    29   14  138 1    
    30   15   16 1    
    31   15  139 1    
    32   15  140 1    
    33   16   17 1    
    34   17   18 1    
    35   17  141 1    
    36   17  142 1    
    37   18   19 1    
    38   18   67 1    
    39   18  143 1    
    40   19   20 am   BACKBONE|DICT|INTERRES
    41   19  144 1    
    42   20   21 2    
    43   20   22 1    
    44   22   23 1    
    45   22   24 1    
    46   22  145 1    
    47   23  146 1    
    48   23  147 1    
    49   23  148 1    
    50   24   25 am   BACKBONE|DICT|INTERRES
    51   24  149 1    
    52   25   26 2    
    53   25   27 1    
    54   27   28 1    
    55   27   29 1    
    56   27  150 1    
    57   28  151 1    
    58   28  152 1    
    59   28  153 1    
    60   29   30 am   BACKBONE|DICT|INTERRES
    61   29  154 1    
    62   30   31 2    
    63   30   32 1    
    64   32   33 1    
    65   32   34 1    
    66   32  155 1    
    67   33  156 1    
    68   33  157 1    
    69   33  158 1    
    70   34   35 am   BACKBONE|DICT|INTERRES
    71   34  159 1    
    72   35   36 2    
    73   35   37 1    
    74   37   38 1    
    75   37   39 1    
    76   37  160 1    
    77   38  161 1    
    78   38  162 1    
    79   38  163 1    
    80   39   40 am   BACKBONE|DICT|INTERRES
    81   39  164 1    
    82   40   41 2    
    83   40   42 1    
    84   42   43 1    
    85   42   44 1    
    86   42  165 1    
    87   43  166 1    
    88   43  167 1    
    89   43  168 1    
    90   44   45 am   BACKBONE|DICT|INTERRES
    91   44  169 1    
    92   45   46 2    
    93   45   47 1    
    94   47   48 1    
    95   47   49 1    
    96   47  170 1    
    97   48  171 1    
    98   48  172 1    
    99   48  173 1    
   100   49   50 am   BACKBONE|DICT|INTERRES
   101   49  174 1    
   102   50   51 2    
   103   50   52 1    
   104   52   53 1    
   105   52   54 1    
   106   52  175 1    
   107   53  176 1    
   108   53  177 1    
   109   53  178 1    
   110   54   55 am   BACKBONE|DICT|INTERRES
   111   54  179 1    
   112   55   56 2    
   113   55   57 1    
   114   57   58 1    
   115   57   59 1    
   116   57  180 1    
   117   58  181 1    
   118   58  182 1    
   119   58  183 1    
   120   59   60 am   BACKBONE|DICT|INTERRES
   121   59  184 1    
   122   60   61 2    
   123   60   62 1    
   124   62   63 1    
   125   62   64 1    
   126   62  185 1    
   127   63  186 1    
   128   63  187 1    
   129   63  188 1    
   130   64   65 am   BACKBONE|DICT|INTERRES
   131   64  189 1    
   132   65   66 2    
   133   67   68 2    
   134   67   69 am   BACKBONE|DICT|INTERRES
   135   69   70 1    
   136   69  190 1    
   137   70   71 1    
   138   70   72 1    
   139   70  191 1    
   140   71  192 1    
   141   71  193 1    
   142   71  194 1    
   143   72   73 2    
   144   72   74 am   BACKBONE|DICT|INTERRES
   145   74   75 1    
   146   74  195 1    
   147   75   76 1    
   148   75   77 1    
   149   75  196 1    
   150   76  197 1    
   151   76  198 1    
   152   76  199 1    
   153   77   78 2    
   154   77   79 am   BACKBONE|DICT|INTERRES
   155   79   80 1    
   156   79  200 1    
   157   80   81 1    
   158   80   82 1    
   159   80  201 1    
   160   81  202 1    
   161   81  203 1    
   162   81  204 1    
   163   82   83 2    
   164   82   84 am   BACKBONE|DICT|INTERRES
   165   84   85 1    
   166   84  205 1    
   167   85   86 1    
   168   85   87 1    
   169   85  206 1    
   170   86  207 1    
   171   86  208 1    
   172   86  209 1    
   173   87   88 2    
   174   87   89 am   BACKBONE|DICT|INTERRES
   175   89   90 1    
   176   89  210 1    
   177   90   91 1    
   178   90   92 1    
   179   90  211 1    
   180   91  212 1    
   181   91  213 1    
   182   91  214 1    
   183   92   93 2    
   184   92   94 am   BACKBONE|DICT|INTERRES
   185   94   95 1    
   186   94  215 1    
   187   95   96 1    
   188   95   97 1    
   189   95  216 1    
   190   96  217 1    
   191   96  218 1    
   192   96  219 1    
   193   97   98 2    
   194   97   99 am   BACKBONE|DICT|INTERRES
   195   99  100 1    
   196   99  220 1    
   197  100  101 1    
   198  100  102 1    
   199  100  221 1    
   200  101  222 1    
   201  101  223 1    
   202  101  224 1    
   203  102  103 2    
   204  102  104 am   BACKBONE|DICT|INTERRES
   205  104  105 1    
   206  104  225 1    
   207  105  106 1    
   208  105  107 1    
   209  105  226 1    
   210  106  227 1    
   211  106  228 1    
   212  106  229 1    
   213  107  108 2    
   214  107  109 am   BACKBONE|DICT|INTERRES
   215  109  110 1    
   216  109  230 1    
   217  110  111 1    
   218  110  112 1    
   219  110  231 1    
   220  111  232 1    
   221  111  233 1    
   222  111  234 1    
   223  112  113 2    
   224  112  114 am   BACKBONE|DICT|INTERRES
   225  114  115 1    
   226  114  235 1    
   227  115  116 1    
   228  115  117 1    
   229  115  236 1    
   230  116  237 1    
   231  116  238 1    
   232  116  239 1    
   233  117  118 2    
   234  117  119 am   BACKBONE|DICT|INTERRES
   235  119  120 1    
   236  119  240 1    
   237  120  121 1    
   238  120  124 1    
   239  120  241 1    
   240  121  122 am   BACKBONE|DICT|INTERRES
   241  121  123 2    
   242  122  242 1    
   243  122  243 1    
   244  124  125 1    
   245  124  244 1    
   246  124  245 1    
   247  125  126 1    
   248  126  246 1    
   249  126  247 1    
@<TRIPOS>SUBSTRUCTURE
     1 UNK         1 GROUP             0       ****    0 ROOT    
