@<TRIPOS>MOLECULE
3R540
247   249    1
SMALL
USER_CHARGES


@<TRIPOS>ATOM
      1 CA         -5.0069  -15.2608  -47.9796 C.3       0 UNK        -0.1800 
      2 C          -3.6593  -14.5961  -48.2192 C.2       0 UNK         0.5000 
      3 O          -3.5788  -13.3697  -48.2911 O.2       0 UNK        -0.5000 
      4 N          -2.5979  -15.4023  -48.3348 N.am      1 UNK        -0.5000 
      5 CA         -1.2113  -14.9917  -48.5924 C.3       1 UNK         0.1400 
      6 C6         -0.3826  -16.1515  -49.2031 C.3       23 UNK        -0.0398 
      7 S7         -1.0388  -16.6933  -50.8198 S.3       23 UNK        -0.2404 
      8 C8          0.4502  -16.6422  -51.8707 C.3       23 UNK        -0.0205 
      9 C9          1.3155  -17.8824  -51.6901 C.ar      23 UNK        -0.0193 
     10 C10         1.1556  -18.9792  -52.5420 C.ar      23 UNK        -0.1150 
     11 C11         1.9294  -20.1310  -52.3719 C.ar      23 UNK        -0.0193 
     12 C12         2.8811  -20.1764  -51.3490 C.ar      23 UNK        -0.1150 
     13 C13         3.0586  -19.0837  -50.4961 C.ar      23 UNK        -0.0193 
     14 C14         2.2794  -17.9366  -50.6788 C.ar      23 UNK        -0.1150 
     15 C15         4.0956  -19.1355  -49.3805 C.3       23 UNK        -0.0205 
     16 S16         3.6718  -20.3244  -48.0620 S.3       23 UNK        -0.2404 
     17 C17         2.0636  -19.6989  -47.4715 C.3       23 UNK        -0.0398 
     18 CA          1.0409  -20.8489  -47.2711 C.3       11 UNK         0.1400 
     19 N           1.0237  -21.3431  -45.8911 N.am      11 UNK        -0.5000 
     20 C           0.2900  -22.3748  -45.4470 C.2       10 UNK         0.5000 
     21 O          -0.3887  -23.1017  -46.1737 O.2       10 UNK        -0.5000 
     22 CA          0.2597  -22.5906  -43.9227 C.3       10 UNK         0.1400 
     23 CB          1.5185  -23.3297  -43.4453 C.3       10 UNK        -0.1800 
     24 N           0.1071  -21.3347  -43.1833 N.am      10 UNK        -0.5000 
     25 C          -0.9661  -20.5344  -43.2666 C.2       9 UNK         0.5000 
     26 O          -1.9663  -20.8038  -43.9298 O.2       9 UNK        -0.5000 
     27 CA         -0.8978  -19.1831  -42.5330 C.3       9 UNK         0.1400 
     28 CB         -1.2263  -19.3401  -41.0417 C.3       9 UNK        -0.1800 
     29 N           0.3968  -18.5222  -42.6846 N.am      9 UNK        -0.5000 
     30 C           0.9031  -18.0902  -43.8478 C.2       8 UNK         0.5000 
     31 O           0.3022  -18.1486  -44.9187 O.2       8 UNK        -0.5000 
     32 CA          2.3428  -17.5515  -43.8153 C.3       8 UNK         0.1400 
     33 CB          2.3776  -16.0892  -43.3514 C.3       8 UNK        -0.1800 
     34 N           3.2087  -18.3642  -42.9617 N.am      8 UNK        -0.5000 
     35 C           3.5748  -19.6234  -43.2403 C.2       7 UNK         0.5000 
     36 O           3.2414  -20.2227  -44.2622 O.2       7 UNK        -0.5000 
     37 CA          4.4181  -20.3451  -42.1740 C.3       7 UNK         0.1400 
     38 CB          5.8995  -19.9596  -42.3002 C.3       7 UNK        -0.1800 
     39 N           3.9555  -20.0646  -40.8136 N.am      7 UNK        -0.5000 
     40 C           2.7795  -20.4750  -40.3182 C.2       6 UNK         0.5000 
     41 O           1.9745  -21.1598  -40.9481 O.2       6 UNK        -0.5000 
     42 CA          2.4218  -19.9968  -38.8986 C.3       6 UNK         0.1400 
     43 CB          3.0450  -20.9221  -37.8429 C.3       6 UNK        -0.1800 
     44 N           2.8200  -18.6110  -38.6303 N.am      6 UNK        -0.5000 
     45 C           2.3668  -17.5483  -39.3071 C.2       5 UNK         0.5000 
     46 O           1.6008  -17.6266  -40.2716 O.2       5 UNK        -0.5000 
     47 CA          2.8920  -16.1706  -38.8687 C.3       5 UNK         0.1400 
     48 CB          4.2409  -15.8784  -39.5442 C.3       5 UNK        -0.1800 
     49 N           1.9425  -15.1248  -39.2441 N.am      5 UNK        -0.5000 
     50 C           0.7816  -14.8910  -38.6167 C.2       4 UNK         0.5000 
     51 O           0.4544  -15.4103  -37.5491 O.2       4 UNK        -0.5000 
     52 CA         -0.1989  -13.9753  -39.3564 C.3       4 UNK         0.1400 
     53 CB          0.3530  -12.5394  -39.4741 C.3       4 UNK        -0.1800 
     54 N          -0.4565  -14.5675  -40.6676 N.am      4 UNK        -0.5000 
     55 C          -1.3841  -14.1725  -41.5443 C.2       3 UNK         0.5000 
     56 O          -2.1643  -13.2362  -41.3564 O.2       3 UNK        -0.5000 
     57 CA         -1.4660  -14.9809  -42.8538 C.3       3 UNK         0.1400 
     58 CB         -2.7387  -15.8404  -42.8751 C.3       3 UNK        -0.1800 
     59 N          -1.4441  -14.1307  -44.0450 N.am      3 UNK        -0.5000 
     60 C          -0.4639  -13.2765  -44.3724 C.2       2 UNK         0.5000 
     61 O           0.5568  -13.1146  -43.7008 O.2       2 UNK        -0.5000 
     62 CA         -0.6644  -12.4852  -45.6828 C.3       2 UNK         0.1400 
     63 CB          0.5888  -11.6873  -46.1003 C.3       2 UNK        -0.1800 
     64 N          -1.1341  -13.3129  -46.8011 N.am      2 UNK        -0.5000 
     65 C          -0.5383  -14.3903  -47.3336 C.2       1 UNK         0.5000 
     66 O           0.4901  -14.8965  -46.8824 O.2       1 UNK        -0.5000 
     67 C          -0.3683  -20.4308  -47.7293 C.2       11 UNK         0.5000 
     68 O          -0.8442  -20.9400  -48.7402 O.2       11 UNK        -0.5000 
     69 N          -1.0299  -19.5572  -46.9577 N.am      12 UNK        -0.5000 
     70 CA         -2.3820  -19.0679  -47.2245 C.3       12 UNK         0.1400 
     71 CB         -2.7738  -18.0337  -46.1601 C.3       12 UNK        -0.1800 
     72 C          -3.4385  -20.1828  -47.3141 C.2       12 UNK         0.5000 
     73 O          -4.2852  -20.1287  -48.2047 O.2       12 UNK        -0.5000 
     74 N          -3.3511  -21.1807  -46.4249 N.am      13 UNK        -0.5000 
     75 CA         -4.2214  -22.3563  -46.4064 C.3       13 UNK         0.1400 
     76 CB         -3.9819  -23.1508  -45.1134 C.3       13 UNK        -0.1800 
     77 C          -4.0466  -23.2609  -47.6407 C.2       13 UNK         0.5000 
     78 O          -5.0424  -23.7536  -48.1715 O.2       13 UNK        -0.5000 
     79 N          -2.7956  -23.4578  -48.0794 N.am      14 UNK        -0.5000 
     80 CA         -2.4576  -24.2356  -49.2733 C.3       14 UNK         0.1400 
     81 CB         -0.9635  -24.5922  -49.2377 C.3       14 UNK        -0.1800 
     82 C          -2.7964  -23.4964  -50.5803 C.2       14 UNK         0.5000 
     83 O          -3.1854  -24.1333  -51.5622 O.2       14 UNK        -0.5000 
     84 N          -2.6069  -22.1733  -50.5764 N.am      15 UNK        -0.5000 
     85 CA         -2.7685  -21.3056  -51.7341 C.3       15 UNK         0.1400 
     86 CB         -1.9117  -20.0521  -51.5250 C.3       15 UNK        -0.1800 
     87 C          -4.2225  -20.8910  -51.9794 C.2       15 UNK         0.5000 
     88 O          -4.6131  -20.7622  -53.1387 O.2       15 UNK        -0.5000 
     89 N          -4.9700  -20.6083  -50.9023 N.am      16 UNK        -0.5000 
     90 CA         -6.2998  -19.9868  -50.8999 C.3       16 UNK         0.1400 
     91 CB         -7.3572  -20.9643  -51.4475 C.3       16 UNK        -0.1800 
     92 C          -6.2844  -18.6336  -51.6436 C.2       16 UNK         0.5000 
     93 O          -7.0561  -18.4295  -52.5805 O.2       16 UNK        -0.5000 
     94 N          -5.3271  -17.7711  -51.2639 N.am      17 UNK        -0.5000 
     95 CA         -4.9751  -16.5029  -51.9240 C.3       17 UNK         0.1400 
     96 CB         -6.1263  -15.4819  -51.8115 C.3       17 UNK        -0.1800 
     97 C          -4.4845  -16.7019  -53.3786 C.2       17 UNK         0.5000 
     98 O          -4.7400  -15.8643  -54.2445 O.2       17 UNK        -0.5000 
     99 N          -3.7979  -17.8313  -53.6034 N.am      18 UNK        -0.5000 
    100 CA        -3.2505  -18.3474  -54.8641 C.3       18 UNK         0.1400 
    101 CB        -2.2267  -17.3669  -55.4719 C.3       18 UNK        -0.1800 
    102 C         -4.3145  -18.8129  -55.8820 C.2       18 UNK         0.5000 
    103 O         -3.9729  -19.0401  -57.0438 O.2       18 UNK        -0.5000 
    104 N         -5.5712  -18.9732  -55.4452 N.am      19 UNK        -0.5000 
    105 CA        -6.6822  -19.4097  -56.2889 C.3       19 UNK         0.1400 
    106 CB        -7.9692  -18.7140  -55.8195 C.3       19 UNK        -0.1800 
    107 C         -6.8815  -20.9365  -56.2936 C.2       19 UNK         0.5000 
    108 O         -7.4527  -21.4506  -57.2567 O.2       19 UNK        -0.5000 
    109 N         -6.4502  -21.6381  -55.2358 N.am      20 UNK        -0.5000 
    110 CA        -6.7386  -23.0575  -55.0202 C.3       20 UNK         0.1400 
    111 CB        -8.2229  -23.2386  -54.6242 C.3       20 UNK        -0.1800 
    112 C         -5.7731  -23.6627  -53.9786 C.2       20 UNK         0.5000 
    113 O         -6.2372  -24.0760  -52.9169 O.2       20 UNK        -0.5000 
    114 N         -4.4496  -23.7183  -54.1960 N.am      21 UNK        -0.5000 
    115 CA        -3.6306  -23.2947  -55.3444 C.3       21 UNK         0.1400 
    116 CB        -4.1157  -23.9355  -56.6690 C.3       21 UNK        -0.1800 
    117 C         -2.1290  -23.6143  -55.1433 C.2       21 UNK         0.5000 
    118 O         -1.3374  -23.2892  -56.0287 O.2       21 UNK        -0.5000 
    119 N         -1.7522  -24.2713  -54.0335 N.am      22 UNK        -0.5000 
    120 CA        -0.4292  -24.8832  -53.7857 C.3       22 UNK         0.1400 
    121 C         -0.1418  -26.1528  -54.6486 C.2       22 UNK         0.5000 
    122 N         -1.1350  -26.7636  -55.2840 N.am      22 UNK        -0.7600 
    123 O          0.9925  -26.6180  -54.7217 O.2       22 UNK        -0.5000 
    124 C124        0.7633  -23.8833  -53.8005 C.3       23 UNK        -0.0398 
    125 S125        0.6032  -22.5475  -52.5742 S.3       23 UNK        -0.2404 
    126 C126        1.7420  -21.3256  -53.2927 C.3       23 UNK        -0.0205 
    127 H127       -5.7886  -14.7388  -48.5309 H         1 UNK         0.0600 
    128 H128       -5.2578  -15.2270  -46.9195 H         1 UNK         0.0600 
    129 H129       -5.0053  -16.3027  -48.3011 H         1 UNK         0.0600 
    130 H130       -2.7355  -16.3968  -48.2571 H         1 UNK         0.3000 
    131 H131       -1.2322  -14.1891  -49.3330 H         1 UNK         0.0600 
    132 H132        0.6513  -15.8322  -49.3339 H         1 UNK         0.0800 
    133 H133       -0.3520  -17.0092  -48.5294 H         1 UNK         0.0800 
    134 H134        0.1350  -16.5637  -52.9118 H         1 UNK         0.0800 
    135 H135        1.0275  -15.7394  -51.6661 H         1 UNK         0.0800 
    136 H136        0.4152  -18.9435  -53.3286 H         1 UNK         0.1150 
    137 H137        3.4784  -21.0666  -51.2098 H         1 UNK         0.1150 
    138 H138        2.4202  -17.0881  -50.0257 H         1 UNK         0.1150 
    139 H139        5.0606  -19.4134  -49.8064 H         1 UNK         0.0800 
    140 H140        4.2336  -18.1494  -48.9343 H         1 UNK         0.0800 
    141 H141        1.6958  -18.9541  -48.1773 H         1 UNK         0.0800 
    142 H142        2.2252  -19.1495  -46.5455 H         1 UNK         0.0800 
    143 H143        1.3231  -21.6910  -47.9073 H         1 UNK         0.0600 
    144 H144        1.5995  -20.8364  -45.2262 H         1 UNK         0.3000 
    145 H145       -0.6056  -23.2165  -43.6950 H         1 UNK         0.0600 
    146 H146        1.4607  -23.5579  -42.3810 H         1 UNK         0.0600 
    147 H147        1.6400  -24.2754  -43.9748 H         1 UNK         0.0600 
    148 H148        2.4209  -22.7415  -43.6120 H         1 UNK         0.0600 
    149 H149        0.8682  -21.0755  -42.5629 H         1 UNK         0.3000 
    150 H150       -1.6536  -18.5348  -42.9774 H         1 UNK         0.0600 
    151 H151       -2.2081  -19.7946  -40.9044 H         1 UNK         0.0600 
    152 H152       -1.2405  -18.3735  -40.5375 H         1 UNK         0.0600 
    153 H153       -0.4975  -19.9711  -40.5332 H         1 UNK         0.0600 
    154 H154        0.9436  -18.3932  -41.8366 H         1 UNK         0.3000 
    155 H155        2.7390  -17.5873  -44.8317 H         1 UNK         0.0600 
    156 H156        1.9660  -15.9650  -42.3504 H         1 UNK         0.0600 
    157 H157        3.3953  -15.6990  -43.3477 H         1 UNK         0.0600 
    158 H158        1.7955  -15.4634  -44.0282 H         1 UNK         0.0600 
    159 H159        3.4810  -17.9654  -42.0765 H         1 UNK         0.3000 
    160 H160        4.3291  -21.4194  -42.3499 H         1 UNK         0.0600 
    161 H161        6.0596  -18.8980  -42.1076 H         1 UNK         0.0600 
    162 H162        6.2730  -20.1715  -43.3030 H         1 UNK         0.0600 
    163 H163        6.5145  -20.5246  -41.5996 H         1 UNK         0.0600 
    164 H164        4.5578  -19.5049  -40.2284 H         1 UNK         0.3000 
    165 H165        1.3358  -20.0527  -38.7990 H         1 UNK         0.0600 
    166 H166        2.7189  -20.6508  -36.8387 H         1 UNK         0.0600 
    167 H167        2.7496  -21.9590  -38.0096 H         1 UNK         0.0600 
    168 H168        4.1348  -20.8835  -37.8646 H         1 UNK         0.0600 
    169 H169        3.4569  -18.4673  -37.8598 H         1 UNK         0.3000 
    170 H170        3.0245  -16.1652  -37.7847 H         1 UNK         0.0600 
    171 H171        4.1584  -15.8801  -40.6319 H         1 UNK         0.0600 
    172 H172        4.6297  -14.9062  -39.2404 H         1 UNK         0.0600 
    173 H173        4.9880  -16.6243  -39.2701 H         1 UNK         0.0600 
    174 H174        2.1234  -14.6513  -40.1165 H         1 UNK         0.3000 
    175 H175       -1.1336  -13.9525  -38.7924 H         1 UNK         0.0600 
    176 H176       -0.3971  -11.8547  -39.8691 H         1 UNK         0.0600 
    177 H177        1.2230  -12.4906  -40.1298 H         1 UNK         0.0600 
    178 H178        0.6527  -12.1553  -38.4982 H         1 UNK         0.0600 
    179 H179        0.1008  -15.3855  -40.8765 H         1 UNK         0.3000 
    180 H180       -0.6039  -15.6467  -42.9135 H         1 UNK         0.0600 
    181 H181       -3.6396  -15.2258  -42.8524 H         1 UNK         0.0600 
    182 H182       -2.7753  -16.5065  -42.0122 H         1 UNK         0.0600 
    183 H183       -2.7808  -16.4609  -43.7685 H         1 UNK         0.0600 
    184 H184       -2.2491  -14.1853  -44.6503 H         1 UNK         0.3000 
    185 H185       -1.4581  -11.7645  -45.4810 H         1 UNK         0.0600 
    186 H186        0.8810  -10.9812  -45.3221 H         1 UNK         0.0600 
    187 H187        1.4415  -12.3415  -46.2855 H         1 UNK         0.0600 
    188 H188        0.4053  -11.1107  -47.0068 H         1 UNK         0.0600 
    189 H189       -2.0042  -13.0179  -47.2370 H         1 UNK         0.3000 
    190 H190       -0.5618  -19.1677  -46.1408 H         1 UNK         0.3000 
    191 H191       -2.3558  -18.5690  -48.1948 H         1 UNK         0.0600 
    192 H192       -2.0615  -17.2090  -46.1245 H         1 UNK         0.0600 
    193 H193       -3.7591  -17.6125  -46.3620 H         1 UNK         0.0600 
    194 H194       -2.8101  -18.4824  -45.1676 H         1 UNK         0.0600 
    195 H195       -2.6577  -21.1164  -45.6839 H         1 UNK         0.3000 
    196 H196       -5.2550  -22.0040  -46.3997 H         1 UNK         0.0600 
    197 H197       -4.6255  -24.0302  -45.0687 H         1 UNK         0.0600 
    198 H198       -4.1978  -22.5445  -44.2335 H         1 UNK         0.0600 
    199 H199       -2.9494  -23.4933  -45.0375 H         1 UNK         0.0600 
    200 H200       -2.0231  -23.0395  -47.5720 H         1 UNK         0.3000 
    201 H201       -3.0302  -25.1652  -49.2573 H         1 UNK         0.0600 
    202 H202       -0.7172  -25.1708  -48.3472 H         1 UNK         0.0600 
    203 H203       -0.3371  -23.6988  -49.2388 H         1 UNK         0.0600 
    204 H204       -0.6826  -25.1905  -50.1052 H         1 UNK         0.0600 
    205 H205       -2.1810  -21.7497  -49.7552 H         1 UNK         0.3000 
    206 H206       -2.4038  -21.8236  -52.6222 H         1 UNK         0.0600 
    207 H207       -0.8833  -20.3191  -51.2887 H         1 UNK         0.0600 
    208 H208       -1.8794  -19.4318  -52.4179 H         1 UNK         0.0600 
    209 H209       -2.2834  -19.4404  -50.7026 H         1 UNK         0.0600 
    210 H210       -4.5516  -20.7083  -49.9807 H         1 UNK         0.3000 
    211 H211       -6.5482  -19.7740  -49.8593 H         1 UNK         0.0600 
    212 H212       -7.2024  -21.1675  -52.5056 H         1 UNK         0.0600 
    213 H213       -8.3621  -20.5558  -51.3369 H         1 UNK         0.0600 
    214 H214       -7.3286  -21.9161  -50.9169 H         1 UNK         0.0600 
    215 H215       -4.7370  -18.0430  -50.4907 H         1 UNK         0.3000 
    216 H216       -4.1256  -16.0980  -51.3720 H         1 UNK         0.0600 
    217 H217       -5.8026  -14.4929  -52.1375 H         1 UNK         0.0600 
    218 H218       -6.4728  -15.3870  -50.7831 H         1 UNK         0.0600 
    219 H219       -6.9810  -15.7637  -52.4270 H         1 UNK         0.0600 
    220 H220       -3.7046  -18.4590  -52.8200 H         1 UNK         0.3000 
    221 H221       -2.7030  -19.2526  -54.6003 H         1 UNK         0.0600 
    222 H222       -2.7047  -16.4636  -55.8511 H         1 UNK         0.0600 
    223 H223       -1.4809  -17.0697  -54.7352 H         1 UNK         0.0600 
    224 H224       -1.6921  -17.8252  -56.3046 H         1 UNK         0.0600 
    225 H225       -5.7810  -18.7982  -54.4702 H         1 UNK         0.3000 
    226 H226       -6.4997  -19.0980  -57.3196 H         1 UNK         0.0600 
    227 H227       -7.8460  -17.6313  -55.7857 H         1 UNK         0.0600 
    228 H228       -8.7958  -18.9273  -56.4983 H         1 UNK         0.0600 
    229 H229       -8.2701  -19.0499  -54.8269 H         1 UNK         0.0600 
    230 H230       -5.9166  -21.1777  -54.5014 H         1 UNK         0.3000 
    231 H231       -6.6138  -23.6118  -55.9476 H         1 UNK         0.0600 
    232 H232       -8.4755  -22.6828  -53.7218 H         1 UNK         0.0600 
    233 H233       -8.4521  -24.2884  -54.4376 H         1 UNK         0.0600 
    234 H234       -8.8936  -22.9060  -55.4162 H         1 UNK         0.0600 
    235 H235       -3.9194  -24.0414  -53.3971 H         1 UNK         0.3000 
    236 H236       -3.6972  -22.2088  -55.4301 H         1 UNK         0.0600 
    237 H237       -4.8599  -23.3117  -57.1613 H         1 UNK         0.0600 
    238 H238       -3.3159  -24.0483  -57.4020 H         1 UNK         0.0600 
    239 H239       -4.5388  -24.9281  -56.5124 H         1 UNK         0.0600 
    240 H240       -2.4178  -24.4383  -53.2884 H         1 UNK         0.3000 
    241 H241       -0.4934  -25.2707  -52.7685 H         1 UNK         0.0600 
    242 H242       -2.0778  -26.4157  -55.2216 H         1 UNK         0.3800 
    243 H243       -0.9401  -27.5893  -55.8286 H         1 UNK         0.3800 
    244 H244        1.6969  -24.4002  -53.5729 H         1 UNK         0.0800 
    245 H245        0.8961  -23.4548  -54.7941 H         1 UNK         0.0800 
    246 H246        2.7075  -21.7966  -53.4837 H         1 UNK         0.0800 
    247 H247        1.3586  -21.0004  -54.2612 H         1 UNK         0.0800 
@<TRIPOS>BOND
     1    1    2 1    
     2    1  127 1    
     3    1  128 1    
     4    1  129 1    
     5    2    3 2    
     6    2    4 am   BACKBONE|DICT|INTERRES
     7    4    5 1    
     8    4  130 1    
     9    5    6 1    
    10    5   65 1    
    11    5  131 1    
    12    6    7 1    
    13    6  132 1    
    14    6  133 1    
    15    7    8 1    
    16    8    9 1    
    17    8  134 1    
    18    8  135 1    
    19    9   10 ar   
    20    9   14 ar   
    21   10   11 ar   
    22   10  136 1    
    23   11   12 ar   
    24   11  126 1    
    25   12   13 ar   
    26   12  137 1    
    27   13   14 ar   
    28   13   15 1    
    29   14  138 1    
    30   15   16 1    
    31   15  139 1    
    32   15  140 1    
    33   16   17 1    
    34   17   18 1    
    35   17  141 1    
    36   17  142 1    
    37   18   19 1    
    38   18   67 1    
    39   18  143 1    
    40   19   20 am   BACKBONE|DICT|INTERRES
    41   19  144 1    
    42   20   21 2    
    43   20   22 1    
    44   22   23 1    
    45   22   24 1    
    46   22  145 1    
    47   23  146 1    
    48   23  147 1    
    49   23  148 1    
    50   24   25 am   BACKBONE|DICT|INTERRES
    51   24  149 1    
    52   25   26 2    
    53   25   27 1    
    54   27   28 1    
    55   27   29 1    
    56   27  150 1    
    57   28  151 1    
    58   28  152 1    
    59   28  153 1    
    60   29   30 am   BACKBONE|DICT|INTERRES
    61   29  154 1    
    62   30   31 2    
    63   30   32 1    
    64   32   33 1    
    65   32   34 1    
    66   32  155 1    
    67   33  156 1    
    68   33  157 1    
    69   33  158 1    
    70   34   35 am   BACKBONE|DICT|INTERRES
    71   34  159 1    
    72   35   36 2    
    73   35   37 1    
    74   37   38 1    
    75   37   39 1    
    76   37  160 1    
    77   38  161 1    
    78   38  162 1    
    79   38  163 1    
    80   39   40 am   BACKBONE|DICT|INTERRES
    81   39  164 1    
    82   40   41 2    
    83   40   42 1    
    84   42   43 1    
    85   42   44 1    
    86   42  165 1    
    87   43  166 1    
    88   43  167 1    
    89   43  168 1    
    90   44   45 am   BACKBONE|DICT|INTERRES
    91   44  169 1    
    92   45   46 2    
    93   45   47 1    
    94   47   48 1    
    95   47   49 1    
    96   47  170 1    
    97   48  171 1    
    98   48  172 1    
    99   48  173 1    
   100   49   50 am   BACKBONE|DICT|INTERRES
   101   49  174 1    
   102   50   51 2    
   103   50   52 1    
   104   52   53 1    
   105   52   54 1    
   106   52  175 1    
   107   53  176 1    
   108   53  177 1    
   109   53  178 1    
   110   54   55 am   BACKBONE|DICT|INTERRES
   111   54  179 1    
   112   55   56 2    
   113   55   57 1    
   114   57   58 1    
   115   57   59 1    
   116   57  180 1    
   117   58  181 1    
   118   58  182 1    
   119   58  183 1    
   120   59   60 am   BACKBONE|DICT|INTERRES
   121   59  184 1    
   122   60   61 2    
   123   60   62 1    
   124   62   63 1    
   125   62   64 1    
   126   62  185 1    
   127   63  186 1    
   128   63  187 1    
   129   63  188 1    
   130   64   65 am   BACKBONE|DICT|INTERRES
   131   64  189 1    
   132   65   66 2    
   133   67   68 2    
   134   67   69 am   BACKBONE|DICT|INTERRES
   135   69   70 1    
   136   69  190 1    
   137   70   71 1    
   138   70   72 1    
   139   70  191 1    
   140   71  192 1    
   141   71  193 1    
   142   71  194 1    
   143   72   73 2    
   144   72   74 am   BACKBONE|DICT|INTERRES
   145   74   75 1    
   146   74  195 1    
   147   75   76 1    
   148   75   77 1    
   149   75  196 1    
   150   76  197 1    
   151   76  198 1    
   152   76  199 1    
   153   77   78 2    
   154   77   79 am   BACKBONE|DICT|INTERRES
   155   79   80 1    
   156   79  200 1    
   157   80   81 1    
   158   80   82 1    
   159   80  201 1    
   160   81  202 1    
   161   81  203 1    
   162   81  204 1    
   163   82   83 2    
   164   82   84 am   BACKBONE|DICT|INTERRES
   165   84   85 1    
   166   84  205 1    
   167   85   86 1    
   168   85   87 1    
   169   85  206 1    
   170   86  207 1    
   171   86  208 1    
   172   86  209 1    
   173   87   88 2    
   174   87   89 am   BACKBONE|DICT|INTERRES
   175   89   90 1    
   176   89  210 1    
   177   90   91 1    
   178   90   92 1    
   179   90  211 1    
   180   91  212 1    
   181   91  213 1    
   182   91  214 1    
   183   92   93 2    
   184   92   94 am   BACKBONE|DICT|INTERRES
   185   94   95 1    
   186   94  215 1    
   187   95   96 1    
   188   95   97 1    
   189   95  216 1    
   190   96  217 1    
   191   96  218 1    
   192   96  219 1    
   193   97   98 2    
   194   97   99 am   BACKBONE|DICT|INTERRES
   195   99  100 1    
   196   99  220 1    
   197  100  101 1    
   198  100  102 1    
   199  100  221 1    
   200  101  222 1    
   201  101  223 1    
   202  101  224 1    
   203  102  103 2    
   204  102  104 am   BACKBONE|DICT|INTERRES
   205  104  105 1    
   206  104  225 1    
   207  105  106 1    
   208  105  107 1    
   209  105  226 1    
   210  106  227 1    
   211  106  228 1    
   212  106  229 1    
   213  107  108 2    
   214  107  109 am   BACKBONE|DICT|INTERRES
   215  109  110 1    
   216  109  230 1    
   217  110  111 1    
   218  110  112 1    
   219  110  231 1    
   220  111  232 1    
   221  111  233 1    
   222  111  234 1    
   223  112  113 2    
   224  112  114 am   BACKBONE|DICT|INTERRES
   225  114  115 1    
   226  114  235 1    
   227  115  116 1    
   228  115  117 1    
   229  115  236 1    
   230  116  237 1    
   231  116  238 1    
   232  116  239 1    
   233  117  118 2    
   234  117  119 am   BACKBONE|DICT|INTERRES
   235  119  120 1    
   236  119  240 1    
   237  120  121 1    
   238  120  124 1    
   239  120  241 1    
   240  121  122 am   BACKBONE|DICT|INTERRES
   241  121  123 2    
   242  122  242 1    
   243  122  243 1    
   244  124  125 1    
   245  124  244 1    
   246  124  245 1    
   247  125  126 1    
   248  126  246 1    
   249  126  247 1    
@<TRIPOS>SUBSTRUCTURE
     1 UNK         1 GROUP             0       ****    0 ROOT    
