@<TRIPOS>MOLECULE
3R540
247   249    1
SMALL
USER_CHARGES


@<TRIPOS>ATOM
      1 CA         -1.2444  -16.3397  -50.4557 C.3       0 UNK        -0.1800 
      2 C          -0.2162  -15.5298  -49.6852 C.2       0 UNK         0.5000 
      3 O          -0.5373  -14.4551  -49.1792 O.2       0 UNK        -0.5000 
      4 N           1.0123  -16.0488  -49.5897 N.am      1 UNK        -0.5000 
      5 CA          2.0822  -15.5010  -48.7515 C.3       1 UNK         0.1400 
      6 C6          3.4900  -15.8689  -49.2867 C.3       23 UNK        -0.0398 
      7 S7          3.7610  -15.2407  -50.9830 S.3       23 UNK        -0.2404 
      8 C8          4.3240  -16.7204  -51.8882 C.3       23 UNK        -0.0205 
      9 C9          3.3267  -17.8674  -51.8193 C.ar      23 UNK        -0.0193 
     10 C10         2.0881  -17.7720  -52.4608 C.ar      23 UNK        -0.1150 
     11 C11         1.1623  -18.8149  -52.3675 C.ar      23 UNK        -0.0193 
     12 C12         1.4823  -19.9585  -51.6325 C.ar      23 UNK        -0.1150 
     13 C13         2.7177  -20.0650  -50.9900 C.ar      23 UNK        -0.0193 
     14 C14         3.6411  -19.0228  -51.0984 C.ar      23 UNK        -0.1150 
     15 C15         3.0380  -21.2927  -50.1515 C.3       23 UNK        -0.0205 
     16 S16         3.2789  -20.9102  -48.3820 S.3       23 UNK        -0.2404 
     17 C17         1.8932  -19.7914  -47.9686 C.3       23 UNK        -0.0398 
     18 CA          0.6313  -20.5226  -47.4572 C.3       11 UNK         0.1400 
     19 N          -0.1042  -19.7317  -46.4667 N.am      11 UNK        -0.5000 
     20 C          -1.0659  -20.2483  -45.6884 C.2       10 UNK         0.5000 
     21 O          -1.3680  -21.4413  -45.7056 O.2       10 UNK        -0.5000 
     22 CA         -1.8519  -19.3025  -44.7643 C.3       10 UNK         0.1400 
     23 CB         -1.5336  -19.5903  -43.2946 C.3       10 UNK        -0.1800 
     24 N          -1.6458  -17.8782  -45.0263 N.am      10 UNK        -0.5000 
     25 C          -2.1205  -17.2281  -46.0986 C.2       9 UNK         0.5000 
     26 O          -2.6569  -17.8019  -47.0484 O.2       9 UNK        -0.5000 
     27 CA         -1.9909  -15.6943  -46.1042 C.3       9 UNK         0.1400 
     28 CB         -3.2798  -15.0090  -46.5910 C.3       9 UNK        -0.1800 
     29 N          -1.6323  -15.1727  -44.7813 N.am      9 UNK        -0.5000 
     30 C          -0.7119  -14.2270  -44.5683 C.2       8 UNK         0.5000 
     31 O          -0.1169  -13.6399  -45.4715 O.2       8 UNK        -0.5000 
     32 CA         -0.3757  -13.8601  -43.1101 C.3       8 UNK         0.1400 
     33 CB         -0.9612  -12.4830  -42.7599 C.3       8 UNK        -0.1800 
     34 N          -0.7852  -14.8112  -42.0728 N.am      8 UNK        -0.5000 
     35 C          -0.3607  -16.0721  -41.9011 C.2       7 UNK         0.5000 
     36 O           0.2623  -16.7190  -42.7470 O.2       7 UNK        -0.5000 
     37 CA         -0.6530  -16.6648  -40.5094 C.3       7 UNK         0.1400 
     38 CB          0.0532  -18.0072  -40.2474 C.3       7 UNK        -0.1800 
     39 N          -0.2082  -15.6968  -39.5075 N.am      7 UNK        -0.5000 
     40 C          -0.9407  -15.2055  -38.4996 C.2       6 UNK         0.5000 
     41 O          -2.0974  -15.5613  -38.2702 O.2       6 UNK        -0.5000 
     42 CA         -0.2979  -14.0975  -37.6307 C.3       6 UNK         0.1400 
     43 CB         -0.6885  -14.2089  -36.1416 C.3       6 UNK        -0.1800 
     44 N           1.1575  -13.9695  -37.7976 N.am      6 UNK        -0.5000 
     45 C           2.0945  -14.8601  -37.4448 C.2       5 UNK         0.5000 
     46 O           1.8667  -15.9096  -36.8391 O.2       5 UNK        -0.5000 
     47 CA          3.5358  -14.5384  -37.8856 C.3       5 UNK         0.1400 
     48 CB          4.3992  -14.1312  -36.6819 C.3       5 UNK        -0.1800 
     49 N           4.1458  -15.6891  -38.5534 N.am      5 UNK        -0.5000 
     50 C           3.6867  -16.2357  -39.6864 C.2       4 UNK         0.5000 
     51 O           2.7773  -15.7418  -40.3635 O.2       4 UNK        -0.5000 
     52 CA          4.3249  -17.5684  -40.1110 C.3       4 UNK         0.1400 
     53 CB          4.0419  -18.6686  -39.0655 C.3       4 UNK        -0.1800 
     54 N           3.7642  -17.9430  -41.4034 N.am      4 UNK        -0.5000 
     55 C           4.1592  -18.9381  -42.2056 C.2       3 UNK         0.5000 
     56 O           5.1204  -19.6713  -41.9718 O.2       3 UNK        -0.5000 
     57 CA          3.3344  -19.1498  -43.4886 C.3       3 UNK         0.1400 
     58 CB          2.2399  -20.1990  -43.2481 C.3       3 UNK        -0.1800 
     59 N           2.7218  -17.9000  -43.9458 N.am      3 UNK        -0.5000 
     60 C           3.3618  -17.0072  -44.7087 C.2       2 UNK         0.5000 
     61 O           4.4835  -17.1848  -45.1892 O.2       2 UNK        -0.5000 
     62 CA          2.6397  -15.6749  -44.9547 C.3       2 UNK         0.1400 
     63 CB          3.2956  -14.5425  -44.1497 C.3       2 UNK        -0.1800 
     64 N           2.6320  -15.3260  -46.3717 N.am      2 UNK        -0.5000 
     65 C           1.9007  -15.9672  -47.2907 C.2       1 UNK         0.5000 
     66 O           1.1248  -16.8907  -47.0176 O.2       1 UNK        -0.5000 
     67 C          -0.2878  -21.0038  -48.6055 C.2       11 UNK         0.5000 
     68 O          -0.0870  -22.1076  -49.1077 O.2       11 UNK        -0.5000 
     69 N          -1.3268  -20.2236  -48.9546 N.am      12 UNK        -0.5000 
     70 CA         -2.3694  -20.6451  -49.8990 C.3       12 UNK         0.1400 
     71 CB         -3.2598  -19.4554  -50.2879 C.3       12 UNK        -0.1800 
     72 C          -3.2344  -21.7940  -49.3508 C.2       12 UNK         0.5000 
     73 O          -3.6052  -22.6879  -50.1113 O.2       12 UNK        -0.5000 
     74 N          -3.5171  -21.7675  -48.0400 N.am      13 UNK        -0.5000 
     75 CA         -4.2226  -22.8365  -47.3330 C.3       13 UNK         0.1400 
     76 CB         -4.6391  -22.3688  -45.9298 C.3       13 UNK        -0.1800 
     77 C          -3.3826  -24.1238  -47.2784 C.2       13 UNK         0.5000 
     78 O          -3.8970  -25.1964  -47.5996 O.2       13 UNK        -0.5000 
     79 N          -2.0939  -23.9745  -46.9350 N.am      14 UNK        -0.5000 
     80 CA         -1.0923  -25.0429  -46.9108 C.3       14 UNK         0.1400 
     81 CB          0.2299  -24.4938  -46.3549 C.3       14 UNK        -0.1800 
     82 C          -0.8715  -25.7006  -48.2864 C.2       14 UNK         0.5000 
     83 O          -0.6999  -26.9179  -48.3539 O.2       14 UNK        -0.5000 
     84 N          -0.9485  -24.9057  -49.3625 N.am      15 UNK        -0.5000 
     85 CA         -0.8987  -25.3300  -50.7652 C.3       15 UNK         0.1400 
     86 CB         -0.5002  -24.1213  -51.6332 C.3       15 UNK        -0.1800 
     87 C          -2.2053  -26.0011  -51.2565 C.2       15 UNK         0.5000 
     88 O          -2.6162  -25.7797  -52.3959 O.2       15 UNK        -0.5000 
     89 N          -2.8259  -26.8214  -50.3967 N.am      16 UNK        -0.5000 
     90 CA         -4.0509  -27.5962  -50.6137 C.3       16 UNK         0.1400 
     91 CB         -3.8050  -28.7175  -51.6453 C.3       16 UNK        -0.1800 
     92 C          -5.2764  -26.7197  -50.9487 C.2       16 UNK         0.5000 
     93 O          -6.0394  -27.0503  -51.8586 O.2       16 UNK        -0.5000 
     94 N          -5.4436  -25.6265  -50.1882 N.am      17 UNK        -0.5000 
     95 CA         -6.5327  -24.6471  -50.2827 C.3       17 UNK         0.1400 
     96 CB         -7.8687  -25.2736  -49.8324 C.3       17 UNK        -0.1800 
     97 C          -6.6147  -23.9693  -51.6656 C.2       17 UNK         0.5000 
     98 O          -7.6702  -23.9654  -52.3033 O.2       17 UNK        -0.5000 
     99 N          -5.4921  -23.3848  -52.0988 N.am      18 UNK        -0.5000 
    100 CA        -5.3279  -22.6662  -53.3630 C.3       18 UNK         0.1400 
    101 CB        -3.8375  -22.6685  -53.7435 C.3       18 UNK        -0.1800 
    102 C         -5.9208  -21.2416  -53.3119 C.2       18 UNK         0.5000 
    103 O         -5.2399  -20.2689  -53.6468 O.2       18 UNK        -0.5000 
    104 N         -7.1857  -21.1326  -52.8899 N.am      19 UNK        -0.5000 
    105 CA        -7.9649  -19.8965  -52.8868 C.3       19 UNK         0.1400 
    106 CB        -9.2801  -20.1313  -52.1295 C.3       19 UNK        -0.1800 
    107 C         -8.2347  -19.4301  -54.3277 C.2       19 UNK         0.5000 
    108 O         -8.6168  -20.2501  -55.1659 O.2       19 UNK        -0.5000 
    109 N         -7.9867  -18.1413  -54.5971 N.am      20 UNK        -0.5000 
    110 CA        -8.0651  -17.4385  -55.8893 C.3       20 UNK         0.1400 
    111 CB        -9.4886  -17.4890  -56.4770 C.3       20 UNK        -0.1800 
    112 C         -7.0150  -17.8814  -56.9321 C.2       20 UNK         0.5000 
    113 O         -6.5015  -17.0346  -57.6640 O.2       20 UNK        -0.5000 
    114 N         -6.6921  -19.1803  -56.9697 N.am      21 UNK        -0.5000 
    115 CA        -5.6514  -19.7862  -57.8029 C.3       21 UNK         0.1400 
    116 CB        -5.7826  -21.3150  -57.7214 C.3       21 UNK        -0.1800 
    117 C         -4.2280  -19.3512  -57.4028 C.2       21 UNK         0.5000 
    118 O         -3.3451  -19.2938  -58.2595 O.2       21 UNK        -0.5000 
    119 N         -4.0401  -19.0493  -56.1152 N.am      22 UNK        -0.5000 
    120 CA        -2.8002  -18.5484  -55.5187 C.3       22 UNK         0.1400 
    121 C         -3.1220  -17.4859  -54.4356 C.2       22 UNK         0.5000 
    122 N         -4.0372  -17.7615  -53.5130 N.am      22 UNK        -0.7600 
    123 O         -2.5555  -16.3970  -54.4420 O.2       22 UNK        -0.5000 
    124 C124       -1.9387  -19.7131  -54.9678 C.3       23 UNK        -0.0398 
    125 S125       -0.1772  -19.3008  -54.7391 S.3       23 UNK        -0.2404 
    126 C126       -0.1998  -18.6993  -53.0251 C.3       23 UNK        -0.0205 
    127 H127       -0.8952  -17.3594  -50.6091 H         1 UNK         0.0600 
    128 H128       -2.1812  -16.3852  -49.8998 H         1 UNK         0.0600 
    129 H129       -1.4397  -15.8855  -51.4272 H         1 UNK         0.0600 
    130 H130        1.2220  -16.9254  -50.0431 H         1 UNK         0.3000 
    131 H131        2.0013  -14.4117  -48.7531 H         1 UNK         0.0600 
    132 H132        4.2669  -15.4334  -48.6565 H         1 UNK         0.0800 
    133 H133        3.6466  -16.9469  -49.2460 H         1 UNK         0.0800 
    134 H134        5.2951  -17.0264  -51.4956 H         1 UNK         0.0800 
    135 H135        4.4884  -16.4535  -52.9330 H         1 UNK         0.0800 
    136 H136        1.8404  -16.8796  -53.0188 H         1 UNK         0.1150 
    137 H137        0.7624  -20.7613  -51.5505 H         1 UNK         0.1150 
    138 H138        4.5942  -19.1031  -50.5943 H         1 UNK         0.1150 
    139 H139        2.2551  -22.0451  -50.2496 H         1 UNK         0.0800 
    140 H140        3.9473  -21.7562  -50.5360 H         1 UNK         0.0800 
    141 H141        1.6644  -19.1000  -48.7794 H         1 UNK         0.0800 
    142 H142        2.2900  -19.1677  -47.1671 H         1 UNK         0.0800 
    143 H143        0.9687  -21.4172  -46.9303 H         1 UNK         0.0600 
    144 H144        0.0996  -18.7392  -46.4261 H         1 UNK         0.3000 
    145 H145       -2.9101  -19.5213  -44.9229 H         1 UNK         0.0600 
    146 H146       -2.1705  -19.0062  -42.6302 H         1 UNK         0.0600 
    147 H147       -1.6871  -20.6427  -43.0519 H         1 UNK         0.0600 
    148 H148       -0.4979  -19.3467  -43.0716 H         1 UNK         0.0600 
    149 H149       -1.1199  -17.3623  -44.3323 H         1 UNK         0.3000 
    150 H150       -1.1966  -15.4726  -46.8166 H         1 UNK         0.0600 
    151 H151       -3.5463  -15.3396  -47.5957 H         1 UNK         0.0600 
    152 H152       -3.1565  -13.9267  -46.6322 H         1 UNK         0.0600 
    153 H153       -4.1228  -15.2275  -45.9348 H         1 UNK         0.0600 
    154 H154       -2.1008  -15.5832  -43.9863 H         1 UNK         0.3000 
    155 H155        0.7107  -13.7829  -43.0508 H         1 UNK         0.0600 
    156 H156       -2.0518  -12.5002  -42.7578 H         1 UNK         0.0600 
    157 H157       -0.6466  -11.7260  -43.4798 H         1 UNK         0.0600 
    158 H158       -0.6273  -12.1490  -41.7773 H         1 UNK         0.0600 
    159 H159       -1.3129  -14.4074  -41.3129 H         1 UNK         0.3000 
    160 H160       -1.7313  -16.8220  -40.4451 H         1 UNK         0.0600 
    161 H161       -0.0767  -18.3229  -39.2122 H         1 UNK         0.0600 
    162 H162        1.1225  -17.9484  -40.4423 H         1 UNK         0.0600 
    163 H163       -0.3542  -18.7981  -40.8727 H         1 UNK         0.0600 
    164 H164        0.7371  -15.3541  -39.6371 H         1 UNK         0.3000 
    165 H165       -0.7166  -13.1608  -38.0011 H         1 UNK         0.0600 
    166 H166       -0.2219  -13.4207  -35.5506 H         1 UNK         0.0600 
    167 H167       -1.7671  -14.1125  -36.0126 H         1 UNK         0.0600 
    168 H168       -0.3970  -15.1681  -35.7136 H         1 UNK         0.0600 
    169 H169        1.4560  -13.1427  -38.2970 H         1 UNK         0.3000 
    170 H170        3.5190  -13.7080  -38.5947 H         1 UNK         0.0600 
    171 H171        3.9766  -13.2623  -36.1758 H         1 UNK         0.0600 
    172 H172        4.4723  -14.9349  -35.9480 H         1 UNK         0.0600 
    173 H173        5.4100  -13.8662  -36.9923 H         1 UNK         0.0600 
    174 H174        4.8734  -16.1661  -38.0417 H         1 UNK         0.3000 
    175 H175        5.4009  -17.4204  -40.2188 H         1 UNK         0.0600 
    176 H176        2.9712  -18.8324  -38.9375 H         1 UNK         0.0600 
    177 H177        4.4924  -19.6197  -39.3477 H         1 UNK         0.0600 
    178 H178        4.4505  -18.4055  -38.0895 H         1 UNK         0.0600 
    179 H179        2.9952  -17.3487  -41.6885 H         1 UNK         0.3000 
    180 H180        4.0017  -19.5341  -44.2633 H         1 UNK         0.0600 
    181 H181        1.5959  -19.9209  -42.4138 H         1 UNK         0.0600 
    182 H182        2.6796  -21.1677  -43.0080 H         1 UNK         0.0600 
    183 H183        1.6194  -20.3361  -44.1332 H         1 UNK         0.0600 
    184 H184        1.8064  -17.6643  -43.5732 H         1 UNK         0.3000 
    185 H185        1.6059  -15.7735  -44.6331 H         1 UNK         0.0600 
    186 H186        3.2490  -14.7503  -43.0796 H         1 UNK         0.0600 
    187 H187        4.3458  -14.4147  -44.4148 H         1 UNK         0.0600 
    188 H188        2.7902  -13.5918  -44.3199 H         1 UNK         0.0600 
    189 H189        3.2604  -14.5892  -46.6553 H         1 UNK         0.3000 
    190 H190       -1.4736  -19.3479  -48.4692 H         1 UNK         0.3000 
    191 H191       -1.8822  -21.0098  -50.8056 H         1 UNK         0.0600 
    192 H192       -3.6726  -18.9534  -49.4123 H         1 UNK         0.0600 
    193 H193       -4.0984  -19.7796  -50.9063 H         1 UNK         0.0600 
    194 H194       -2.7096  -18.7218  -50.8717 H         1 UNK         0.0600 
    195 H195       -3.1495  -21.0136  -47.4794 H         1 UNK         0.3000 
    196 H196       -5.1370  -23.0541  -47.8829 H         1 UNK         0.0600 
    197 H197       -5.2459  -23.1289  -45.4362 H         1 UNK         0.0600 
    198 H198       -5.2370  -21.4586  -45.9783 H         1 UNK         0.0600 
    199 H199       -3.7828  -22.1736  -45.2860 H         1 UNK         0.0600 
    200 H200       -1.7777  -23.0519  -46.6483 H         1 UNK         0.3000 
    201 H201       -1.4554  -25.8139  -46.2284 H         1 UNK         0.0600 
    202 H202        0.0881  -24.0259  -45.3804 H         1 UNK         0.0600 
    203 H203        0.6693  -23.7536  -47.0229 H         1 UNK         0.0600 
    204 H204        0.9606  -25.2938  -46.2300 H         1 UNK         0.0600 
    205 H205       -1.0375  -23.9069  -49.2092 H         1 UNK         0.3000 
    206 H206       -0.1100  -26.0782  -50.8638 H         1 UNK         0.0600 
    207 H207       -0.3756  -24.4067  -52.6783 H         1 UNK         0.0600 
    208 H208       -1.2554  -23.3359  -51.5940 H         1 UNK         0.0600 
    209 H209        0.4463  -23.6930  -51.3034 H         1 UNK         0.0600 
    210 H210       -2.3847  -26.9448  -49.4923 H         1 UNK         0.3000 
    211 H211       -4.2774  -28.0751  -49.6601 H         1 UNK         0.0600 
    212 H212       -3.6125  -28.3171  -52.6412 H         1 UNK         0.0600 
    213 H213       -4.6702  -29.3772  -51.7197 H         1 UNK         0.0600 
    214 H214       -2.9523  -29.3343  -51.3613 H         1 UNK         0.0600 
    215 H215       -4.7562  -25.4488  -49.4628 H         1 UNK         0.3000 
    216 H216       -6.2993  -23.8509  -49.5789 H         1 UNK         0.0600 
    217 H217       -8.6604  -24.5241  -49.8031 H         1 UNK         0.0600 
    218 H218       -7.7867  -25.6971  -48.8313 H         1 UNK         0.0600 
    219 H219       -8.1950  -26.0663  -50.5062 H         1 UNK         0.0600 
    220 H220       -4.6927  -23.3615  -51.4692 H         1 UNK         0.3000 
    221 H221       -5.8675  -23.2059  -54.1437 H         1 UNK         0.0600 
    222 H222       -3.2313  -22.1557  -52.9960 H         1 UNK         0.0600 
    223 H223       -3.4585  -23.6854  -53.8397 H         1 UNK         0.0600 
    224 H224       -3.6774  -22.1764  -54.7032 H         1 UNK         0.0600 
    225 H225       -7.6815  -21.9903  -52.6724 H         1 UNK         0.3000 
    226 H226       -7.3909  -19.1316  -52.3594 H         1 UNK         0.0600 
    227 H227       -9.8788  -19.2202  -52.0952 H         1 UNK         0.0600 
    228 H228       -9.8851  -20.9051  -52.6043 H         1 UNK         0.0600 
    229 H229       -9.0929  -20.4371  -51.1000 H         1 UNK         0.0600 
    230 H230       -7.6466  -17.5680  -53.8373 H         1 UNK         0.3000 
    231 H231       -7.8471  -16.3936  -55.6625 H         1 UNK         0.0600 
    232 H232      -10.2247  -17.1267  -55.7594 H         1 UNK         0.0600 
    233 H233       -9.7752  -18.4985  -56.7723 H         1 UNK         0.0600 
    234 H234       -9.5630  -16.8597  -57.3647 H         1 UNK         0.0600 
    235 H235       -7.2171  -19.8015  -56.3610 H         1 UNK         0.3000 
    236 H236       -5.8185  -19.4767  -58.8365 H         1 UNK         0.0600 
    237 H237       -5.0369  -21.8058  -58.3481 H         1 UNK         0.0600 
    238 H238       -5.6445  -21.6763  -56.7013 H         1 UNK         0.0600 
    239 H239       -6.7633  -21.6455  -58.0641 H         1 UNK         0.0600 
    240 H240       -4.8194  -19.1396  -55.4764 H         1 UNK         0.3000 
    241 H241       -2.2295  -18.0379  -56.2974 H         1 UNK         0.0600 
    242 H242       -4.4886  -18.6742  -53.4774 H         1 UNK         0.3800 
    243 H243       -4.2557  -17.0673  -52.8176 H         1 UNK         0.3800 
    244 H244       -2.3591  -20.1101  -54.0433 H         1 UNK         0.0800 
    245 H245       -1.9607  -20.5436  -55.6746 H         1 UNK         0.0800 
    246 H246       -0.9315  -19.2577  -52.4410 H         1 UNK         0.0800 
    247 H247       -0.5265  -17.6593  -53.0196 H         1 UNK         0.0800 
@<TRIPOS>BOND
     1    1    2 1    
     2    1  127 1    
     3    1  128 1    
     4    1  129 1    
     5    2    3 2    
     6    2    4 am   BACKBONE|DICT|INTERRES
     7    4    5 1    
     8    4  130 1    
     9    5    6 1    
    10    5   65 1    
    11    5  131 1    
    12    6    7 1    
    13    6  132 1    
    14    6  133 1    
    15    7    8 1    
    16    8    9 1    
    17    8  134 1    
    18    8  135 1    
    19    9   10 ar   
    20    9   14 ar   
    21   10   11 ar   
    22   10  136 1    
    23   11   12 ar   
    24   11  126 1    
    25   12   13 ar   
    26   12  137 1    
    27   13   14 ar   
    28   13   15 1    
    29   14  138 1    
    30   15   16 1    
    31   15  139 1    
    32   15  140 1    
    33   16   17 1    
    34   17   18 1    
    35   17  141 1    
    36   17  142 1    
    37   18   19 1    
    38   18   67 1    
    39   18  143 1    
    40   19   20 am   BACKBONE|DICT|INTERRES
    41   19  144 1    
    42   20   21 2    
    43   20   22 1    
    44   22   23 1    
    45   22   24 1    
    46   22  145 1    
    47   23  146 1    
    48   23  147 1    
    49   23  148 1    
    50   24   25 am   BACKBONE|DICT|INTERRES
    51   24  149 1    
    52   25   26 2    
    53   25   27 1    
    54   27   28 1    
    55   27   29 1    
    56   27  150 1    
    57   28  151 1    
    58   28  152 1    
    59   28  153 1    
    60   29   30 am   BACKBONE|DICT|INTERRES
    61   29  154 1    
    62   30   31 2    
    63   30   32 1    
    64   32   33 1    
    65   32   34 1    
    66   32  155 1    
    67   33  156 1    
    68   33  157 1    
    69   33  158 1    
    70   34   35 am   BACKBONE|DICT|INTERRES
    71   34  159 1    
    72   35   36 2    
    73   35   37 1    
    74   37   38 1    
    75   37   39 1    
    76   37  160 1    
    77   38  161 1    
    78   38  162 1    
    79   38  163 1    
    80   39   40 am   BACKBONE|DICT|INTERRES
    81   39  164 1    
    82   40   41 2    
    83   40   42 1    
    84   42   43 1    
    85   42   44 1    
    86   42  165 1    
    87   43  166 1    
    88   43  167 1    
    89   43  168 1    
    90   44   45 am   BACKBONE|DICT|INTERRES
    91   44  169 1    
    92   45   46 2    
    93   45   47 1    
    94   47   48 1    
    95   47   49 1    
    96   47  170 1    
    97   48  171 1    
    98   48  172 1    
    99   48  173 1    
   100   49   50 am   BACKBONE|DICT|INTERRES
   101   49  174 1    
   102   50   51 2    
   103   50   52 1    
   104   52   53 1    
   105   52   54 1    
   106   52  175 1    
   107   53  176 1    
   108   53  177 1    
   109   53  178 1    
   110   54   55 am   BACKBONE|DICT|INTERRES
   111   54  179 1    
   112   55   56 2    
   113   55   57 1    
   114   57   58 1    
   115   57   59 1    
   116   57  180 1    
   117   58  181 1    
   118   58  182 1    
   119   58  183 1    
   120   59   60 am   BACKBONE|DICT|INTERRES
   121   59  184 1    
   122   60   61 2    
   123   60   62 1    
   124   62   63 1    
   125   62   64 1    
   126   62  185 1    
   127   63  186 1    
   128   63  187 1    
   129   63  188 1    
   130   64   65 am   BACKBONE|DICT|INTERRES
   131   64  189 1    
   132   65   66 2    
   133   67   68 2    
   134   67   69 am   BACKBONE|DICT|INTERRES
   135   69   70 1    
   136   69  190 1    
   137   70   71 1    
   138   70   72 1    
   139   70  191 1    
   140   71  192 1    
   141   71  193 1    
   142   71  194 1    
   143   72   73 2    
   144   72   74 am   BACKBONE|DICT|INTERRES
   145   74   75 1    
   146   74  195 1    
   147   75   76 1    
   148   75   77 1    
   149   75  196 1    
   150   76  197 1    
   151   76  198 1    
   152   76  199 1    
   153   77   78 2    
   154   77   79 am   BACKBONE|DICT|INTERRES
   155   79   80 1    
   156   79  200 1    
   157   80   81 1    
   158   80   82 1    
   159   80  201 1    
   160   81  202 1    
   161   81  203 1    
   162   81  204 1    
   163   82   83 2    
   164   82   84 am   BACKBONE|DICT|INTERRES
   165   84   85 1    
   166   84  205 1    
   167   85   86 1    
   168   85   87 1    
   169   85  206 1    
   170   86  207 1    
   171   86  208 1    
   172   86  209 1    
   173   87   88 2    
   174   87   89 am   BACKBONE|DICT|INTERRES
   175   89   90 1    
   176   89  210 1    
   177   90   91 1    
   178   90   92 1    
   179   90  211 1    
   180   91  212 1    
   181   91  213 1    
   182   91  214 1    
   183   92   93 2    
   184   92   94 am   BACKBONE|DICT|INTERRES
   185   94   95 1    
   186   94  215 1    
   187   95   96 1    
   188   95   97 1    
   189   95  216 1    
   190   96  217 1    
   191   96  218 1    
   192   96  219 1    
   193   97   98 2    
   194   97   99 am   BACKBONE|DICT|INTERRES
   195   99  100 1    
   196   99  220 1    
   197  100  101 1    
   198  100  102 1    
   199  100  221 1    
   200  101  222 1    
   201  101  223 1    
   202  101  224 1    
   203  102  103 2    
   204  102  104 am   BACKBONE|DICT|INTERRES
   205  104  105 1    
   206  104  225 1    
   207  105  106 1    
   208  105  107 1    
   209  105  226 1    
   210  106  227 1    
   211  106  228 1    
   212  106  229 1    
   213  107  108 2    
   214  107  109 am   BACKBONE|DICT|INTERRES
   215  109  110 1    
   216  109  230 1    
   217  110  111 1    
   218  110  112 1    
   219  110  231 1    
   220  111  232 1    
   221  111  233 1    
   222  111  234 1    
   223  112  113 2    
   224  112  114 am   BACKBONE|DICT|INTERRES
   225  114  115 1    
   226  114  235 1    
   227  115  116 1    
   228  115  117 1    
   229  115  236 1    
   230  116  237 1    
   231  116  238 1    
   232  116  239 1    
   233  117  118 2    
   234  117  119 am   BACKBONE|DICT|INTERRES
   235  119  120 1    
   236  119  240 1    
   237  120  121 1    
   238  120  124 1    
   239  120  241 1    
   240  121  122 am   BACKBONE|DICT|INTERRES
   241  121  123 2    
   242  122  242 1    
   243  122  243 1    
   244  124  125 1    
   245  124  244 1    
   246  124  245 1    
   247  125  126 1    
   248  126  246 1    
   249  126  247 1    
@<TRIPOS>SUBSTRUCTURE
     1 UNK         1 GROUP             0       ****    0 ROOT    
