@<TRIPOS>MOLECULE
3R540
247   249    1
SMALL
USER_CHARGES


@<TRIPOS>ATOM
      1 CA          1.9200  -19.6977  -46.3779 C.3       0 UNK        -0.1800 
      2 C           2.1621  -18.4249  -47.1773 C.2       0 UNK         0.5000 
      3 O           3.3063  -18.1241  -47.5166 O.2       0 UNK        -0.5000 
      4 N           1.0916  -17.6724  -47.4675 N.am      1 UNK        -0.5000 
      5 CA          1.1198  -16.3590  -48.1227 C.3       1 UNK         0.1400 
      6 C6          1.5976  -16.4283  -49.6037 C.3       23 UNK        -0.0398 
      7 S7          0.9848  -15.0218  -50.6039 S.3       23 UNK        -0.2404 
      8 C8         -0.2525  -15.7914  -51.6986 C.3       23 UNK        -0.0205 
      9 C9         -1.3145  -16.5728  -50.9389 C.ar      23 UNK        -0.0193 
     10 C10        -2.1644  -15.9317  -50.0326 C.ar      23 UNK        -0.1150 
     11 C11        -3.1351  -16.6584  -49.3358 C.ar      23 UNK        -0.0193 
     12 C12        -3.2491  -18.0348  -49.5475 C.ar      23 UNK        -0.1150 
     13 C13        -2.4183  -18.6806  -50.4660 C.ar      23 UNK        -0.0193 
     14 C14        -1.4541  -17.9445  -51.1575 C.ar      23 UNK        -0.1150 
     15 C15        -2.5625  -20.1724  -50.7182 C.3       23 UNK        -0.0205 
     16 S16        -1.0377  -21.0748  -50.3063 S.3       23 UNK        -0.2404 
     17 C17        -0.9744  -20.7880  -48.5035 C.3       23 UNK        -0.0398 
     18 CA         -0.8893  -22.0342  -47.5861 C.3       11 UNK         0.1400 
     19 N          -1.0904  -21.6185  -46.1946 N.am      11 UNK        -0.5000 
     20 C          -1.1848  -22.3915  -45.1028 C.2       10 UNK         0.5000 
     21 O          -0.9905  -23.6070  -45.1015 O.2       10 UNK        -0.5000 
     22 CA         -1.6612  -21.6979  -43.8110 C.3       10 UNK         0.1400 
     23 CB         -0.4601  -21.4019  -42.9018 C.3       10 UNK        -0.1800 
     24 N          -2.4188  -20.4596  -44.0466 N.am      10 UNK        -0.5000 
     25 C          -3.5400  -20.3617  -44.7839 C.2       9 UNK         0.5000 
     26 O          -4.0912  -21.3335  -45.3022 O.2       9 UNK        -0.5000 
     27 CA         -4.1226  -18.9575  -45.0481 C.3       9 UNK         0.1400 
     28 CB         -5.4007  -18.7424  -44.2242 C.3       9 UNK        -0.1800 
     29 N          -3.2024  -17.8512  -44.7847 N.am      9 UNK        -0.5000 
     30 C          -2.0372  -17.6228  -45.4056 C.2       8 UNK         0.5000 
     31 O          -1.5822  -18.3243  -46.3118 O.2       8 UNK        -0.5000 
     32 CA         -1.2137  -16.4313  -44.8843 C.3       8 UNK         0.1400 
     33 CB         -1.5950  -15.1548  -45.6490 C.3       8 UNK        -0.1800 
     34 N          -1.3159  -16.1776  -43.4411 N.am      8 UNK        -0.5000 
     35 C          -1.1512  -17.0756  -42.4565 C.2       7 UNK         0.5000 
     36 O          -0.9440  -18.2709  -42.6640 O.2       7 UNK        -0.5000 
     37 CA         -1.2458  -16.5633  -41.0049 C.3       7 UNK         0.1400 
     38 CB         -0.4081  -17.4122  -40.0317 C.3       7 UNK        -0.1800 
     39 N          -0.8315  -15.1647  -40.8911 N.am      7 UNK        -0.5000 
     40 C          -1.6589  -14.1107  -40.8816 C.2       6 UNK         0.5000 
     41 O          -2.8826  -14.2086  -40.9755 O.2       6 UNK        -0.5000 
     42 CA         -1.0250  -12.7095  -40.7644 C.3       6 UNK         0.1400 
     43 CB         -1.1463  -12.1855  -39.3252 C.3       6 UNK        -0.1800 
     44 N           0.3821  -12.6626  -41.1660 N.am      6 UNK        -0.5000 
     45 C           0.8306  -12.8172  -42.4186 C.2       5 UNK         0.5000 
     46 O           0.0910  -12.9934  -43.3867 O.2       5 UNK        -0.5000 
     47 CA          2.3585  -12.7878  -42.6308 C.3       5 UNK         0.1400 
     48 CB          3.1545  -12.2406  -41.4249 C.3       5 UNK        -0.1800 
     49 N           2.8834  -14.0963  -43.0265 N.am      5 UNK        -0.5000 
     50 C           2.7480  -15.2656  -42.3805 C.2       4 UNK         0.5000 
     51 O           2.1196  -15.3913  -41.3282 O.2       4 UNK        -0.5000 
     52 CA          3.4396  -16.5011  -42.9948 C.3       4 UNK         0.1400 
     53 CB          2.4385  -17.6353  -43.2619 C.3       4 UNK        -0.1800 
     54 N           4.1343  -16.1830  -44.2438 N.am      4 UNK        -0.5000 
     55 C           5.4468  -15.9315  -44.3497 C.2       3 UNK         0.5000 
     56 O           6.2361  -16.0161  -43.4083 O.2       3 UNK        -0.5000 
     57 CA          5.9717  -15.4851  -45.7305 C.3       3 UNK         0.1400 
     58 CB          6.5694  -16.6774  -46.4922 C.3       3 UNK        -0.1800 
     59 N           4.9522  -14.8456  -46.5652 N.am      3 UNK        -0.5000 
     60 C           4.3719  -13.6668  -46.2978 C.2       2 UNK         0.5000 
     61 O           4.6736  -12.9642  -45.3333 O.2       2 UNK        -0.5000 
     62 CA          3.2239  -13.2185  -47.2242 C.3       2 UNK         0.1400 
     63 CB          3.7479  -12.2600  -48.3035 C.3       2 UNK        -0.1800 
     64 N           2.5017  -14.3167  -47.8738 N.am      2 UNK        -0.5000 
     65 C           1.8659  -15.3161  -47.2476 C.2       1 UNK         0.5000 
     66 O           1.8591  -15.4326  -46.0199 O.2       1 UNK        -0.5000 
     67 C          -1.8459  -23.1676  -48.0280 C.2       11 UNK         0.5000 
     68 O          -1.4378  -24.0172  -48.8215 O.2       11 UNK        -0.5000 
     69 N          -3.0712  -23.2039  -47.4807 N.am      12 UNK        -0.5000 
     70 CA         -4.0592  -24.2589  -47.7193 C.3       12 UNK         0.1400 
     71 CB         -5.3632  -23.9059  -46.9906 C.3       12 UNK        -0.1800 
     72 C          -3.5806  -25.6696  -47.3196 C.2       12 UNK         0.5000 
     73 O          -4.0038  -26.6438  -47.9418 O.2       12 UNK        -0.5000 
     74 N          -2.6949  -25.7487  -46.3181 N.am      13 UNK        -0.5000 
     75 CA         -2.0499  -26.9803  -45.8718 C.3       13 UNK         0.1400 
     76 CB         -2.1264  -27.0594  -44.3387 C.3       13 UNK        -0.1800 
     77 C          -0.5871  -27.0368  -46.3409 C.2       13 UNK         0.5000 
     78 O          -0.1490  -28.0764  -46.8332 O.2       13 UNK        -0.5000 
     79 N           0.1442  -25.9254  -46.1763 N.am      14 UNK        -0.5000 
     80 CA          1.5889  -25.8341  -46.3940 C.3       14 UNK         0.1400 
     81 CB          2.1102  -24.5346  -45.7598 C.3       14 UNK        -0.1800 
     82 C           2.0156  -25.9153  -47.8699 C.2       14 UNK         0.5000 
     83 O           3.1039  -26.4200  -48.1492 O.2       14 UNK        -0.5000 
     84 N           1.1702  -25.4151  -48.7792 N.am      15 UNK        -0.5000 
     85 CA          1.4334  -25.3600  -50.2193 C.3       15 UNK         0.1400 
     86 CB          1.7427  -23.9045  -50.6068 C.3       15 UNK        -0.1800 
     87 C           0.2658  -25.9363  -51.0425 C.2       15 UNK         0.5000 
     88 O           0.2631  -25.7918  -52.2653 O.2       15 UNK        -0.5000 
     89 N          -0.7012  -26.5729  -50.3625 N.am      16 UNK        -0.5000 
     90 CA         -1.9201  -27.1837  -50.9033 C.3       16 UNK         0.1400 
     91 CB         -1.5702  -28.4402  -51.7281 C.3       16 UNK        -0.1800 
     92 C          -2.8227  -26.1895  -51.6693 C.2       16 UNK         0.5000 
     93 O          -3.4298  -26.5663  -52.6731 O.2       16 UNK        -0.5000 
     94 N          -2.8917  -24.9433  -51.1734 N.am      17 UNK        -0.5000 
     95 CA         -3.6235  -23.8017  -51.7336 C.3       17 UNK         0.1400 
     96 CB         -5.1479  -24.0481  -51.7319 C.3       17 UNK        -0.1800 
     97 C          -3.0806  -23.4061  -53.1212 C.2       17 UNK         0.5000 
     98 O          -3.7649  -23.5671  -54.1332 O.2       17 UNK        -0.5000 
     99 N          -1.8381  -22.9044  -53.1344 N.am      18 UNK        -0.5000 
    100 CA        -1.0918  -22.5056  -54.3333 C.3       18 UNK         0.1400 
    101 CB         0.3448  -22.1494  -53.9237 C.3       18 UNK        -0.1800 
    102 C         -1.7236  -21.3488  -55.1369 C.2       18 UNK         0.5000 
    103 O         -1.4668  -21.2383  -56.3365 O.2       18 UNK        -0.5000 
    104 N         -2.5407  -20.5246  -54.4734 N.am      19 UNK        -0.5000 
    105 CA        -3.3718  -19.4867  -55.0681 C.3       19 UNK         0.1400 
    106 CB        -2.8215  -18.1021  -54.6891 C.3       19 UNK        -0.1800 
    107 C         -4.7927  -19.6778  -54.5255 C.2       19 UNK         0.5000 
    108 O         -4.9673  -19.7807  -53.3080 O.2       19 UNK        -0.5000 
    109 N         -5.7797  -19.7273  -55.4269 N.am      20 UNK        -0.5000 
    110 CA        -7.1964  -19.8368  -55.0851 C.3       20 UNK         0.1400 
    111 CB        -7.9965  -20.2079  -56.3432 C.3       20 UNK        -0.1800 
    112 C         -7.7040  -18.5169  -54.4823 C.2       20 UNK         0.5000 
    113 O         -7.4941  -17.4602  -55.0836 O.2       20 UNK        -0.5000 
    114 N         -8.3328  -18.6002  -53.3008 N.am      21 UNK        -0.5000 
    115 CA        -8.8982  -17.4865  -52.5238 C.3       21 UNK         0.1400 
    116 CB       -10.1771  -16.9602  -53.2085 C.3       21 UNK        -0.1800 
    117 C         -7.8811  -16.3621  -52.2160 C.2       21 UNK         0.5000 
    118 O         -8.2549  -15.1886  -52.1721 O.2       21 UNK        -0.5000 
    119 N         -6.6100  -16.7488  -52.0381 N.am      22 UNK        -0.5000 
    120 CA        -5.4412  -15.8667  -51.8694 C.3       22 UNK         0.1400 
    121 C         -5.0346  -15.0749  -53.1516 C.2       22 UNK         0.5000 
    122 N         -5.5606  -15.3853  -54.3315 N.am      22 UNK        -0.7600 
    123 O         -4.1998  -14.1767  -53.0875 O.2       22 UNK        -0.5000 
    124 C124       -5.5208  -14.9522  -50.6090 C.3       23 UNK        -0.0398 
    125 S125       -5.7798  -15.8825  -49.0565 S.3       23 UNK        -0.2404 
    126 C126       -4.0885  -15.9552  -48.3827 C.3       23 UNK        -0.0205 
    127 H127        0.9654  -19.6637  -45.8529 H         1 UNK         0.0600 
    128 H128        2.7056  -19.8310  -45.6348 H         1 UNK         0.0600 
    129 H129        1.9284  -20.5662  -47.0358 H         1 UNK         0.0600 
    130 H130        0.1757  -17.9686  -47.1444 H         1 UNK         0.3000 
    131 H131        0.0782  -16.0404  -48.1327 H         1 UNK         0.0600 
    132 H132        1.2489  -17.3550  -50.0612 H         1 UNK         0.0800 
    133 H133        2.6862  -16.4707  -49.6669 H         1 UNK         0.0800 
    134 H134        0.2642  -16.4326  -52.4145 H         1 UNK         0.0800 
    135 H135       -0.7408  -15.0114  -52.2844 H         1 UNK         0.0800 
    136 H136       -2.0700  -14.8663  -49.8767 H         1 UNK         0.1150 
    137 H137       -4.0025  -18.5949  -49.0118 H         1 UNK         0.1150 
    138 H138       -0.8091  -18.4472  -51.8646 H         1 UNK         0.1150 
    139 H139       -3.3960  -20.5882  -50.1497 H         1 UNK         0.0800 
    140 H140       -2.8007  -20.3286  -51.7671 H         1 UNK         0.0800 
    141 H141       -1.8511  -20.2054  -48.2189 H         1 UNK         0.0800 
    142 H142       -0.1252  -20.1341  -48.3163 H         1 UNK         0.0800 
    143 H143        0.1222  -22.4365  -47.6596 H         1 UNK         0.0600 
    144 H144       -1.2870  -20.6342  -46.0641 H         1 UNK         0.3000 
    145 H145       -2.3224  -22.3953  -43.2934 H         1 UNK         0.0600 
    146 H146       -0.7812  -20.9865  -41.9464 H         1 UNK         0.0600 
    147 H147        0.2268  -20.6905  -43.3625 H         1 UNK         0.0600 
    148 H148        0.1034  -22.3110  -42.6872 H         1 UNK         0.0600 
    149 H149       -2.0168  -19.6144  -43.6506 H         1 UNK         0.3000 
    150 H150       -4.3870  -18.9171  -46.1069 H         1 UNK         0.0600 
    151 H151       -6.1296  -19.5306  -44.4182 H         1 UNK         0.0600 
    152 H152       -5.8771  -17.7943  -44.4746 H         1 UNK         0.0600 
    153 H153       -5.1929  -18.7434  -43.1535 H         1 UNK         0.0600 
    154 H154       -3.4640  -17.2236  -44.0387 H         1 UNK         0.3000 
    155 H155       -0.1715  -16.6615  -45.0935 H         1 UNK         0.0600 
    156 H156       -2.5839  -14.7946  -45.3636 H         1 UNK         0.0600 
    157 H157       -1.6093  -15.3241  -46.7254 H         1 UNK         0.0600 
    158 H158       -0.8778  -14.3563  -45.4611 H         1 UNK         0.0600 
    159 H159       -1.4545  -15.2135  -43.1730 H         1 UNK         0.3000 
    160 H160       -2.2910  -16.6657  -40.7072 H         1 UNK         0.0600 
    161 H161        0.6490  -17.4062  -40.2967 H         1 UNK         0.0600 
    162 H162       -0.7397  -18.4513  -40.0283 H         1 UNK         0.0600 
    163 H163       -0.4982  -17.0426  -39.0102 H         1 UNK         0.0600 
    164 H164        0.1715  -15.0048  -40.8745 H         1 UNK         0.3000 
    165 H165       -1.5870  -12.0411  -41.4201 H         1 UNK         0.0600 
    166 H166       -0.7715  -11.1650  -39.2434 H         1 UNK         0.0600 
    167 H167       -2.1873  -12.1746  -38.9992 H         1 UNK         0.0600 
    168 H168       -0.5889  -12.8066  -38.6229 H         1 UNK         0.0600 
    169 H169        1.0593  -12.5476  -40.4260 H         1 UNK         0.3000 
    170 H170        2.5349  -12.1173  -43.4731 H         1 UNK         0.0600 
    171 H171        2.8078  -11.2460  -41.1412 H         1 UNK         0.0600 
    172 H172        3.0778  -12.8859  -40.5491 H         1 UNK         0.0600 
    173 H173        4.2125  -12.1501  -41.6715 H         1 UNK         0.0600 
    174 H174        3.4140  -14.0983  -43.8872 H         1 UNK         0.3000 
    175 H175        4.1521  -16.8616  -42.2504 H         1 UNK         0.0600 
    176 H176        1.7031  -17.3546  -44.0136 H         1 UNK         0.0600 
    177 H177        2.9498  -18.5313  -43.6117 H         1 UNK         0.0600 
    178 H178        1.8979  -17.9095  -42.3560 H         1 UNK         0.0600 
    179 H179        3.5391  -16.0572  -45.0568 H         1 UNK         0.3000 
    180 H180        6.7680  -14.7579  -45.5581 H         1 UNK         0.0600 
    181 H181        7.0024  -16.3633  -47.4420 H         1 UNK         0.0600 
    182 H182        5.8175  -17.4392  -46.7005 H         1 UNK         0.0600 
    183 H183        7.3640  -17.1511  -45.9144 H         1 UNK         0.0600 
    184 H184        4.6244  -15.3732  -47.3615 H         1 UNK         0.3000 
    185 H185        2.5043  -12.6779  -46.6058 H         1 UNK         0.0600 
    186 H186        4.4478  -12.7569  -48.9765 H         1 UNK         0.0600 
    187 H187        2.9320  -11.8574  -48.9042 H         1 UNK         0.0600 
    188 H188        4.2683  -11.4123  -47.8554 H         1 UNK         0.0600 
    189 H189        2.4391  -14.2753  -48.8826 H         1 UNK         0.3000 
    190 H190       -3.3342  -22.4921  -46.8062 H         1 UNK         0.3000 
    191 H191       -4.2646  -24.2774  -48.7888 H         1 UNK         0.0600 
    192 H192       -5.7502  -22.9412  -47.3193 H         1 UNK         0.0600 
    193 H193       -5.2183  -23.8581  -45.9106 H         1 UNK         0.0600 
    194 H194       -6.1356  -24.6505  -47.1869 H         1 UNK         0.0600 
    195 H195       -2.3710  -24.8904  -45.8870 H         1 UNK         0.3000 
    196 H196       -2.5644  -27.8538  -46.2779 H         1 UNK         0.0600 
    197 H197       -3.1620  -27.0822  -43.9992 H         1 UNK         0.0600 
    198 H198       -1.6384  -26.2075  -43.8630 H         1 UNK         0.0600 
    199 H199       -1.6431  -27.9647  -43.9692 H         1 UNK         0.0600 
    200 H200       -0.2924  -25.1072  -45.7561 H         1 UNK         0.3000 
    201 H201        2.0563  -26.6726  -45.8734 H         1 UNK         0.0600 
    202 H202        1.8759  -24.4928  -44.6959 H         1 UNK         0.0600 
    203 H203        1.6768  -23.6527  -46.2317 H         1 UNK         0.0600 
    204 H204        3.1940  -24.4589  -45.8569 H         1 UNK         0.0600 
    205 H205        0.2916  -25.0075  -48.4778 H         1 UNK         0.3000 
    206 H206        2.3035  -25.9692  -50.4709 H         1 UNK         0.0600 
    207 H207        0.8701  -23.2655  -50.4797 H         1 UNK         0.0600 
    208 H208        2.5493  -23.4954  -49.9984 H         1 UNK         0.0600 
    209 H209        2.0588  -23.8351  -51.6473 H         1 UNK         0.0600 
    210 H210       -0.5912  -26.6380  -49.3612 H         1 UNK         0.3000 
    211 H211       -2.5015  -27.5131  -50.0417 H         1 UNK         0.0600 
    212 H212       -1.0314  -28.1872  -52.6417 H         1 UNK         0.0600 
    213 H213       -2.4710  -28.9821  -52.0185 H         1 UNK         0.0600 
    214 H214       -0.9512  -29.1289  -51.1532 H         1 UNK         0.0600 
    215 H215       -2.3163  -24.7334  -50.3616 H         1 UNK         0.3000 
    216 H216       -3.4347  -22.9617  -51.0650 H         1 UNK         0.0600 
    217 H217       -5.6814  -23.1537  -52.0563 H         1 UNK         0.0600 
    218 H218       -5.5139  -24.2997  -50.7375 H         1 UNK         0.0600 
    219 H219       -5.4351  -24.8565  -52.4045 H         1 UNK         0.0600 
    220 H220       -1.3423  -22.8204  -52.2581 H         1 UNK         0.3000 
    221 H221       -1.0512  -23.3721  -54.9963 H         1 UNK         0.0600 
    222 H222        0.3679  -21.3324  -53.2014 H         1 UNK         0.0600 
    223 H223        0.8467  -23.0085  -53.4802 H         1 UNK         0.0600 
    224 H224        0.9359  -21.8423  -54.7875 H         1 UNK         0.0600 
    225 H225       -2.7432  -20.7280  -53.5062 H         1 UNK         0.3000 
    226 H226       -3.3860  -19.5789  -56.1562 H         1 UNK         0.0600 
    227 H227       -1.7855  -17.9871  -55.0077 H         1 UNK         0.0600 
    228 H228       -3.4003  -17.3110  -55.1669 H         1 UNK         0.0600 
    229 H229       -2.8626  -17.9304  -53.6133 H         1 UNK         0.0600 
    230 H230       -5.5637  -19.6041  -56.4053 H         1 UNK         0.3000 
    231 H231       -7.3163  -20.6396  -54.3541 H         1 UNK         0.0600 
    232 H232       -9.0578  -20.3104  -56.1133 H         1 UNK         0.0600 
    233 H233       -7.6608  -21.1585  -56.7581 H         1 UNK         0.0600 
    234 H234       -7.9012  -19.4491  -57.1212 H         1 UNK         0.0600 
    235 H235       -8.4272  -19.5121  -52.8752 H         1 UNK         0.3000 
    236 H236       -9.1881  -17.9010  -51.5573 H         1 UNK         0.0600 
    237 H237       -9.9555  -16.4822  -54.1634 H         1 UNK         0.0600 
    238 H238      -10.8857  -17.7673  -53.3943 H         1 UNK         0.0600 
    239 H239      -10.6839  -16.2243  -52.5831 H         1 UNK         0.0600 
    240 H240       -6.3990  -17.7342  -52.1128 H         1 UNK         0.3000 
    241 H241       -4.6061  -16.5500  -51.7186 H         1 UNK         0.0600 
    242 H242       -5.2773  -14.8620  -55.1441 H         1 UNK         0.3800 
    243 H243       -6.2593  -16.1157  -54.4307 H         1 UNK         0.3800 
    244 H244       -6.3289  -14.2276  -50.7115 H         1 UNK         0.0800 
    245 H245       -4.6119  -14.3578  -50.5066 H         1 UNK         0.0800 
    246 H246       -4.1089  -16.4898  -47.4324 H         1 UNK         0.0800 
    247 H247       -3.7443  -14.9440  -48.1609 H         1 UNK         0.0800 
@<TRIPOS>BOND
     1    1    2 1    
     2    1  127 1    
     3    1  128 1    
     4    1  129 1    
     5    2    3 2    
     6    2    4 am   BACKBONE|DICT|INTERRES
     7    4    5 1    
     8    4  130 1    
     9    5    6 1    
    10    5   65 1    
    11    5  131 1    
    12    6    7 1    
    13    6  132 1    
    14    6  133 1    
    15    7    8 1    
    16    8    9 1    
    17    8  134 1    
    18    8  135 1    
    19    9   10 ar   
    20    9   14 ar   
    21   10   11 ar   
    22   10  136 1    
    23   11   12 ar   
    24   11  126 1    
    25   12   13 ar   
    26   12  137 1    
    27   13   14 ar   
    28   13   15 1    
    29   14  138 1    
    30   15   16 1    
    31   15  139 1    
    32   15  140 1    
    33   16   17 1    
    34   17   18 1    
    35   17  141 1    
    36   17  142 1    
    37   18   19 1    
    38   18   67 1    
    39   18  143 1    
    40   19   20 am   BACKBONE|DICT|INTERRES
    41   19  144 1    
    42   20   21 2    
    43   20   22 1    
    44   22   23 1    
    45   22   24 1    
    46   22  145 1    
    47   23  146 1    
    48   23  147 1    
    49   23  148 1    
    50   24   25 am   BACKBONE|DICT|INTERRES
    51   24  149 1    
    52   25   26 2    
    53   25   27 1    
    54   27   28 1    
    55   27   29 1    
    56   27  150 1    
    57   28  151 1    
    58   28  152 1    
    59   28  153 1    
    60   29   30 am   BACKBONE|DICT|INTERRES
    61   29  154 1    
    62   30   31 2    
    63   30   32 1    
    64   32   33 1    
    65   32   34 1    
    66   32  155 1    
    67   33  156 1    
    68   33  157 1    
    69   33  158 1    
    70   34   35 am   BACKBONE|DICT|INTERRES
    71   34  159 1    
    72   35   36 2    
    73   35   37 1    
    74   37   38 1    
    75   37   39 1    
    76   37  160 1    
    77   38  161 1    
    78   38  162 1    
    79   38  163 1    
    80   39   40 am   BACKBONE|DICT|INTERRES
    81   39  164 1    
    82   40   41 2    
    83   40   42 1    
    84   42   43 1    
    85   42   44 1    
    86   42  165 1    
    87   43  166 1    
    88   43  167 1    
    89   43  168 1    
    90   44   45 am   BACKBONE|DICT|INTERRES
    91   44  169 1    
    92   45   46 2    
    93   45   47 1    
    94   47   48 1    
    95   47   49 1    
    96   47  170 1    
    97   48  171 1    
    98   48  172 1    
    99   48  173 1    
   100   49   50 am   BACKBONE|DICT|INTERRES
   101   49  174 1    
   102   50   51 2    
   103   50   52 1    
   104   52   53 1    
   105   52   54 1    
   106   52  175 1    
   107   53  176 1    
   108   53  177 1    
   109   53  178 1    
   110   54   55 am   BACKBONE|DICT|INTERRES
   111   54  179 1    
   112   55   56 2    
   113   55   57 1    
   114   57   58 1    
   115   57   59 1    
   116   57  180 1    
   117   58  181 1    
   118   58  182 1    
   119   58  183 1    
   120   59   60 am   BACKBONE|DICT|INTERRES
   121   59  184 1    
   122   60   61 2    
   123   60   62 1    
   124   62   63 1    
   125   62   64 1    
   126   62  185 1    
   127   63  186 1    
   128   63  187 1    
   129   63  188 1    
   130   64   65 am   BACKBONE|DICT|INTERRES
   131   64  189 1    
   132   65   66 2    
   133   67   68 2    
   134   67   69 am   BACKBONE|DICT|INTERRES
   135   69   70 1    
   136   69  190 1    
   137   70   71 1    
   138   70   72 1    
   139   70  191 1    
   140   71  192 1    
   141   71  193 1    
   142   71  194 1    
   143   72   73 2    
   144   72   74 am   BACKBONE|DICT|INTERRES
   145   74   75 1    
   146   74  195 1    
   147   75   76 1    
   148   75   77 1    
   149   75  196 1    
   150   76  197 1    
   151   76  198 1    
   152   76  199 1    
   153   77   78 2    
   154   77   79 am   BACKBONE|DICT|INTERRES
   155   79   80 1    
   156   79  200 1    
   157   80   81 1    
   158   80   82 1    
   159   80  201 1    
   160   81  202 1    
   161   81  203 1    
   162   81  204 1    
   163   82   83 2    
   164   82   84 am   BACKBONE|DICT|INTERRES
   165   84   85 1    
   166   84  205 1    
   167   85   86 1    
   168   85   87 1    
   169   85  206 1    
   170   86  207 1    
   171   86  208 1    
   172   86  209 1    
   173   87   88 2    
   174   87   89 am   BACKBONE|DICT|INTERRES
   175   89   90 1    
   176   89  210 1    
   177   90   91 1    
   178   90   92 1    
   179   90  211 1    
   180   91  212 1    
   181   91  213 1    
   182   91  214 1    
   183   92   93 2    
   184   92   94 am   BACKBONE|DICT|INTERRES
   185   94   95 1    
   186   94  215 1    
   187   95   96 1    
   188   95   97 1    
   189   95  216 1    
   190   96  217 1    
   191   96  218 1    
   192   96  219 1    
   193   97   98 2    
   194   97   99 am   BACKBONE|DICT|INTERRES
   195   99  100 1    
   196   99  220 1    
   197  100  101 1    
   198  100  102 1    
   199  100  221 1    
   200  101  222 1    
   201  101  223 1    
   202  101  224 1    
   203  102  103 2    
   204  102  104 am   BACKBONE|DICT|INTERRES
   205  104  105 1    
   206  104  225 1    
   207  105  106 1    
   208  105  107 1    
   209  105  226 1    
   210  106  227 1    
   211  106  228 1    
   212  106  229 1    
   213  107  108 2    
   214  107  109 am   BACKBONE|DICT|INTERRES
   215  109  110 1    
   216  109  230 1    
   217  110  111 1    
   218  110  112 1    
   219  110  231 1    
   220  111  232 1    
   221  111  233 1    
   222  111  234 1    
   223  112  113 2    
   224  112  114 am   BACKBONE|DICT|INTERRES
   225  114  115 1    
   226  114  235 1    
   227  115  116 1    
   228  115  117 1    
   229  115  236 1    
   230  116  237 1    
   231  116  238 1    
   232  116  239 1    
   233  117  118 2    
   234  117  119 am   BACKBONE|DICT|INTERRES
   235  119  120 1    
   236  119  240 1    
   237  120  121 1    
   238  120  124 1    
   239  120  241 1    
   240  121  122 am   BACKBONE|DICT|INTERRES
   241  121  123 2    
   242  122  242 1    
   243  122  243 1    
   244  124  125 1    
   245  124  244 1    
   246  124  245 1    
   247  125  126 1    
   248  126  246 1    
   249  126  247 1    
@<TRIPOS>SUBSTRUCTURE
     1 UNK         1 GROUP             0       ****    0 ROOT    
