@<TRIPOS>MOLECULE
3R540
247   249    1
SMALL
USER_CHARGES


@<TRIPOS>ATOM
      1 CA          5.5281  -12.9678  -46.9079 C.3       0 UNK        -0.1800 
      2 C           4.0260  -13.1711  -46.7857 C.2       0 UNK         0.5000 
      3 O           3.3479  -12.3584  -46.1574 O.2       0 UNK        -0.5000 
      4 N           3.4981  -14.2371  -47.4020 N.am      1 UNK        -0.5000 
      5 CA          2.0885  -14.6607  -47.3681 C.3       1 UNK         0.1400 
      6 C6          1.8891  -16.0433  -48.0350 C.3       23 UNK        -0.0398 
      7 S7          2.4863  -16.1367  -49.7607 S.3       23 UNK        -0.2404 
      8 C8          0.9268  -16.3025  -50.6932 C.3       23 UNK        -0.0205 
      9 C9          0.1973  -17.6052  -50.3884 C.ar      23 UNK        -0.0193 
     10 C10        -1.1095  -17.5842  -49.8924 C.ar      23 UNK        -0.1150 
     11 C11        -1.7872  -18.7746  -49.6089 C.ar      23 UNK        -0.0193 
     12 C12        -1.1258  -19.9939  -49.7886 C.ar      23 UNK        -0.1150 
     13 C13         0.1778  -20.0303  -50.2923 C.ar      23 UNK        -0.0193 
     14 C14         0.8259  -18.8337  -50.6072 C.ar      23 UNK        -0.1150 
     15 C15         0.8872  -21.3620  -50.4904 C.3       23 UNK        -0.0205 
     16 S16         2.3978  -21.5191  -49.4766 S.3       23 UNK        -0.2404 
     17 C17         1.7854  -21.1878  -47.7868 C.3       23 UNK        -0.0398 
     18 CA          1.4687  -22.4647  -46.9762 C.3       11 UNK         0.1400 
     19 N           1.3153  -22.1720  -45.5523 N.am      11 UNK        -0.5000 
     20 C           1.2145  -23.0933  -44.5848 C.2       10 UNK         0.5000 
     21 O           1.3133  -24.3057  -44.7775 O.2       10 UNK        -0.5000 
     22 CA          0.9067  -22.5687  -43.1705 C.3       10 UNK         0.1400 
     23 CB          2.1818  -22.0467  -42.4918 C.3       10 UNK        -0.1800 
     24 N          -0.1159  -21.5199  -43.1695 N.am      10 UNK        -0.5000 
     25 C          -1.3851  -21.7016  -43.5635 C.2       9 UNK         0.5000 
     26 O          -1.8372  -22.7851  -43.9354 O.2       9 UNK        -0.5000 
     27 CA         -2.2927  -20.4581  -43.5829 C.3       9 UNK         0.1400 
     28 CB         -2.7848  -20.1190  -42.1681 C.3       9 UNK        -0.1800 
     29 N          -1.6455  -19.2856  -44.1737 N.am      9 UNK        -0.5000 
     30 C          -1.2228  -19.2094  -45.4434 C.2       8 UNK         0.5000 
     31 O          -1.3468  -20.1181  -46.2596 O.2       8 UNK        -0.5000 
     32 CA         -0.4829  -17.9290  -45.8624 C.3       8 UNK         0.1400 
     33 CB         -1.4655  -16.7705  -46.0859 C.3       8 UNK        -0.1800 
     34 N           0.5379  -17.5349  -44.8921 N.am      8 UNK        -0.5000 
     35 C           1.5930  -18.2903  -44.5525 C.2       7 UNK         0.5000 
     36 O           1.8596  -19.3731  -45.0716 O.2       7 UNK        -0.5000 
     37 CA          2.4661  -17.7733  -43.3996 C.3       7 UNK         0.1400 
     38 CB          3.4812  -16.7384  -43.9074 C.3       7 UNK        -0.1800 
     39 N           1.6521  -17.2007  -42.3266 N.am      7 UNK        -0.5000 
     40 C           0.8561  -17.9220  -41.5225 C.2       6 UNK         0.5000 
     41 O           0.7605  -19.1483  -41.5759 O.2       6 UNK        -0.5000 
     42 CA         -0.0111  -17.1363  -40.5216 C.3       6 UNK         0.1400 
     43 CB          0.7983  -16.7783  -39.2665 C.3       6 UNK        -0.1800 
     44 N          -0.5721  -15.9159  -41.1034 N.am      6 UNK        -0.5000 
     45 C          -1.4782  -15.8953  -42.0915 C.2       5 UNK         0.5000 
     46 O          -1.9767  -16.9091  -42.5776 O.2       5 UNK        -0.5000 
     47 CA         -1.8565  -14.5154  -42.6648 C.3       5 UNK         0.1400 
     48 CB         -3.0642  -13.9336  -41.9159 C.3       5 UNK        -0.1800 
     49 N          -0.7555  -13.5483  -42.6347 N.am      5 UNK        -0.5000 
     50 C           0.4088  -13.6984  -43.2783 C.2       4 UNK         0.5000 
     51 O           0.6775  -14.6724  -43.9850 O.2       4 UNK        -0.5000 
     52 CA          1.4496  -12.5874  -43.0718 C.3       4 UNK         0.1400 
     53 CB          2.8612  -13.1627  -42.8695 C.3       4 UNK        -0.1800 
     54 N           1.4625  -11.6766  -44.2110 N.am      4 UNK        -0.5000 
     55 C           0.6096  -10.6586  -44.3825 C.2       3 UNK         0.5000 
     56 O          -0.3024  -10.3979  -43.5964 O.2       3 UNK        -0.5000 
     57 CA          0.8089   -9.7749  -45.6246 C.3       3 UNK         0.1400 
     58 CB          1.9686   -8.7897  -45.4060 C.3       3 UNK        -0.1800 
     59 N           1.0784  -10.5742  -46.8195 N.am      3 UNK        -0.5000 
     60 C           0.3592  -10.5308  -47.9506 C.2       2 UNK         0.5000 
     61 O          -0.6109   -9.7900  -48.1166 O.2       2 UNK        -0.5000 
     62 CA          0.7882  -11.4645  -49.1037 C.3       2 UNK         0.1400 
     63 CB          1.6132  -10.6910  -50.1435 C.3       2 UNK        -0.1800 
     64 N           1.5622  -12.6221  -48.6570 N.am      2 UNK        -0.5000 
     65 C           1.0779  -13.6226  -47.9095 C.2       1 UNK         0.5000 
     66 O          -0.1136  -13.7311  -47.6220 O.2       1 UNK        -0.5000 
     67 C           0.2363  -23.2070  -47.5274 C.2       11 UNK         0.5000 
     68 O           0.3983  -24.2441  -48.1677 O.2       11 UNK        -0.5000 
     69 N          -0.9698  -22.6947  -47.2432 N.am      12 UNK        -0.5000 
     70 CA         -2.2445  -23.2656  -47.6767 C.3       12 UNK         0.1400 
     71 CB         -3.4052  -22.3645  -47.2346 C.3       12 UNK        -0.1800 
     72 C          -2.4712  -24.7001  -47.1801 C.2       12 UNK         0.5000 
     73 O          -2.9571  -25.5256  -47.9519 O.2       12 UNK        -0.5000 
     74 N          -2.0826  -24.9801  -45.9294 N.am      13 UNK        -0.5000 
     75 CA         -2.1388  -26.3106  -45.3239 C.3       13 UNK         0.1400 
     76 CB         -1.7879  -26.2027  -43.8324 C.3       13 UNK        -0.1800 
     77 C          -1.2277  -27.3388  -46.0235 C.2       13 UNK         0.5000 
     78 O          -1.5975  -28.5100  -46.1126 O.2       13 UNK        -0.5000 
     79 N          -0.0666  -26.8860  -46.5144 N.am      14 UNK        -0.5000 
     80 CA          0.8922  -27.7067  -47.2516 C.3       14 UNK         0.1400 
     81 CB          2.2941  -27.0916  -47.1141 C.3       14 UNK        -0.1800 
     82 C           0.5050  -27.8598  -48.7337 C.2       14 UNK         0.5000 
     83 O           0.5648  -28.9674  -49.2688 O.2       14 UNK        -0.5000 
     84 N           0.1296  -26.7443  -49.3721 N.am      15 UNK        -0.5000 
     85 CA         -0.1596  -26.6525  -50.8041 C.3       15 UNK         0.1400 
     86 CB         -0.0261  -25.1819  -51.2351 C.3       15 UNK        -0.1800 
     87 C          -1.5467  -27.1882  -51.2041 C.2       15 UNK         0.5000 
     88 O          -1.7529  -27.4693  -52.3851 O.2       15 UNK        -0.5000 
     89 N          -2.4673  -27.2866  -50.2328 N.am      16 UNK        -0.5000 
     90 CA         -3.9139  -27.4743  -50.3995 C.3       16 UNK         0.1400 
     91 CB         -4.2520  -28.8112  -51.0935 C.3       16 UNK        -0.1800 
     92 C          -4.5415  -26.2366  -51.0766 C.2       16 UNK         0.5000 
     93 O          -5.2466  -26.3592  -52.0803 O.2       16 UNK        -0.5000 
     94 N          -4.2342  -25.0682  -50.4918 N.am      17 UNK        -0.5000 
     95 CA         -4.5292  -23.7001  -50.9361 C.3       17 UNK         0.1400 
     96 CB         -6.0469  -23.4800  -51.0887 C.3       17 UNK        -0.1800 
     97 C          -3.7544  -23.2786  -52.2040 C.2       17 UNK         0.5000 
     98 O          -3.1198  -24.1034  -52.8645 O.2       17 UNK        -0.5000 
     99 N          -3.8047  -21.9787  -52.5107 N.am      18 UNK        -0.5000 
    100 CA        -3.1843  -21.3643  -53.6770 C.3       18 UNK         0.1400 
    101 CB        -1.7533  -20.9132  -53.3365 C.3       18 UNK        -0.1800 
    102 C         -4.0639  -20.1863  -54.1108 C.2       18 UNK         0.5000 
    103 O         -4.1286  -19.1769  -53.4064 O.2       18 UNK        -0.5000 
    104 N         -4.7486  -20.3372  -55.2496 N.am      19 UNK        -0.5000 
    105 CA        -5.5850  -19.2918  -55.8372 C.3       19 UNK         0.1400 
    106 CB        -6.4611  -19.9145  -56.9353 C.3       19 UNK        -0.1800 
    107 C         -4.7216  -18.1457  -56.4134 C.2       19 UNK         0.5000 
    108 O         -3.6223  -18.4146  -56.9001 O.2       19 UNK        -0.5000 
    109 N         -5.1799  -16.8866  -56.4060 N.am      20 UNK        -0.5000 
    110 CA        -6.4527  -16.3858  -55.8747 C.3       20 UNK         0.1400 
    111 CB        -6.8866  -15.1887  -56.7374 C.3       20 UNK        -0.1800 
    112 C         -6.3732  -15.9776  -54.3869 C.2       20 UNK         0.5000 
    113 O         -7.3732  -15.5060  -53.8444 O.2       20 UNK        -0.5000 
    114 N         -5.1977  -16.1319  -53.7593 N.am      21 UNK        -0.5000 
    115 CA        -4.9169  -15.7226  -52.3797 C.3       21 UNK         0.1400 
    116 CB        -3.4114  -15.8624  -52.1076 C.3       21 UNK        -0.1800 
    117 C         -5.7304  -16.4878  -51.3181 C.2       21 UNK         0.5000 
    118 O         -6.1001  -15.9009  -50.3000 O.2       21 UNK        -0.5000 
    119 N         -6.0043  -17.7683  -51.5761 N.am      22 UNK        -0.5000 
    120 CA        -6.7863  -18.6618  -50.7154 C.3       22 UNK         0.1400 
    121 C         -7.4802  -19.7850  -51.5320 C.2       22 UNK         0.5000 
    122 N         -8.4188  -20.5047  -50.9318 N.am      22 UNK        -0.7600 
    123 O         -7.1872  -20.0172  -52.7021 O.2       22 UNK        -0.5000 
    124 C124       -5.9719  -19.1972  -49.5019 C.3       23 UNK        -0.0398 
    125 S125       -4.3378  -19.8867  -49.9458 S.3       23 UNK        -0.2404 
    126 C126       -3.2205  -18.7244  -49.0898 C.3       23 UNK        -0.0205 
    127 H127        5.9866  -12.9747  -45.9192 H         1 UNK         0.0600 
    128 H128        5.9960  -13.7496  -47.5066 H         1 UNK         0.0600 
    129 H129        5.7389  -12.0065  -47.3763 H         1 UNK         0.0600 
    130 H130        4.1068  -14.8421  -47.9355 H         1 UNK         0.3000 
    131 H131        1.8378  -14.7803  -46.3135 H         1 UNK         0.0600 
    132 H132        0.8402  -16.3348  -47.9935 H         1 UNK         0.0800 
    133 H133        2.4220  -16.8022  -47.4604 H         1 UNK         0.0800 
    134 H134        0.2926  -15.4397  -50.4832 H         1 UNK         0.0800 
    135 H135        1.1495  -16.2677  -51.7603 H         1 UNK         0.0800 
    136 H136       -1.6008  -16.6363  -49.7272 H         1 UNK         0.1150 
    137 H137       -1.6340  -20.9156  -49.5467 H         1 UNK         0.1150 
    138 H138        1.8346  -18.8579  -50.9951 H         1 UNK         0.1150 
    139 H139        0.2174  -22.1939  -50.2708 H         1 UNK         0.0800 
    140 H140        1.1584  -21.4634  -51.5419 H         1 UNK         0.0800 
    141 H141        0.9333  -20.5081  -47.7994 H         1 UNK         0.0800 
    142 H142        2.5821  -20.6368  -47.2861 H         1 UNK         0.0800 
    143 H143        2.3228  -23.1392  -47.0680 H         1 UNK         0.0600 
    144 H144        1.2663  -21.1888  -45.2991 H         1 UNK         0.3000 
    145 H145        0.5261  -23.4062  -42.5821 H         1 UNK         0.0600 
    146 H146        1.9857  -21.7501  -41.4613 H         1 UNK         0.0600 
    147 H147        2.9550  -22.8157  -42.4679 H         1 UNK         0.0600 
    148 H148        2.5922  -21.1828  -43.0153 H         1 UNK         0.0600 
    149 H149        0.1703  -20.6041  -42.8376 H         1 UNK         0.3000 
    150 H150       -3.1647  -20.6960  -44.1953 H         1 UNK         0.0600 
    151 H151       -3.2814  -20.9756  -41.7107 H         1 UNK         0.0600 
    152 H152       -3.5029  -19.2990  -42.1877 H         1 UNK         0.0600 
    153 H153       -1.9627  -19.8266  -41.5144 H         1 UNK         0.0600 
    154 H154       -1.5495  -18.4702  -43.5742 H         1 UNK         0.3000 
    155 H155        0.0220  -18.1399  -46.8068 H         1 UNK         0.0600 
    156 H156       -2.0963  -16.5973  -45.2151 H         1 UNK         0.0600 
    157 H157       -2.1249  -16.9767  -46.9285 H         1 UNK         0.0600 
    158 H158       -0.9412  -15.8414  -46.3028 H         1 UNK         0.0600 
    159 H159        0.4172  -16.6374  -44.4340 H         1 UNK         0.3000 
    160 H160        3.0215  -18.6196  -42.9897 H         1 UNK         0.0600 
    161 H161        4.0847  -16.3391  -43.0923 H         1 UNK         0.0600 
    162 H162        2.9927  -15.9033  -44.4074 H         1 UNK         0.0600 
    163 H163        4.1643  -17.1895  -44.6280 H         1 UNK         0.0600 
    164 H164        1.6278  -16.1941  -42.2627 H         1 UNK         0.3000 
    165 H165       -0.8397  -17.7813  -40.2213 H         1 UNK         0.0600 
    166 H166        0.1720  -16.2898  -38.5198 H         1 UNK         0.0600 
    167 H167        1.2155  -17.6736  -38.8035 H         1 UNK         0.0600 
    168 H168        1.6292  -16.1104  -39.4973 H         1 UNK         0.0600 
    169 H169       -0.2204  -15.0369  -40.7542 H         1 UNK         0.3000 
    170 H170       -2.1401  -14.6597  -43.7090 H         1 UNK         0.0600 
    171 H171       -3.9092  -14.6230  -41.9428 H         1 UNK         0.0600 
    172 H172       -2.8329  -13.7380  -40.8681 H         1 UNK         0.0600 
    173 H173       -3.3953  -12.9983  -42.3677 H         1 UNK         0.0600 
    174 H174       -0.9126  -12.7012  -42.1068 H         1 UNK         0.3000 
    175 H175        1.1935  -12.0307  -42.1676 H         1 UNK         0.0600 
    176 H176        3.2230  -13.6727  -43.7615 H         1 UNK         0.0600 
    177 H177        3.5741  -12.3736  -42.6300 H         1 UNK         0.0600 
    178 H178        2.8805  -13.8796  -42.0478 H         1 UNK         0.0600 
    179 H179        2.1775  -11.8583  -44.9123 H         1 UNK         0.3000 
    180 H180       -0.1066   -9.1931  -45.7500 H         1 UNK         0.0600 
    181 H181        2.9211   -9.3081  -45.2864 H         1 UNK         0.0600 
    182 H182        1.8066   -8.1859  -44.5121 H         1 UNK         0.0600 
    183 H183        2.0648   -8.1045  -46.2483 H         1 UNK         0.0600 
    184 H184        1.8536  -11.2266  -46.7595 H         1 UNK         0.3000 
    185 H185       -0.1201  -11.8289  -49.5881 H         1 UNK         0.0600 
    186 H186        1.0563   -9.8344  -50.5256 H         1 UNK         0.0600 
    187 H187        2.5443  -10.3140  -49.7183 H         1 UNK         0.0600 
    188 H188        1.8634  -11.3211  -50.9973 H         1 UNK         0.0600 
    189 H189        2.5525  -12.6116  -48.8521 H         1 UNK         0.3000 
    190 H190       -1.0274  -21.8124  -46.7359 H         1 UNK         0.3000 
    191 H191       -2.2254  -23.2921  -48.7673 H         1 UNK         0.0600 
    192 H192       -3.4652  -22.2896  -46.1488 H         1 UNK         0.0600 
    193 H193       -4.3615  -22.7486  -47.5917 H         1 UNK         0.0600 
    194 H194       -3.2928  -21.3570  -47.6289 H         1 UNK         0.0600 
    195 H195       -1.7431  -24.2235  -45.3428 H         1 UNK         0.3000 
    196 H196       -3.1663  -26.6706  -45.4072 H         1 UNK         0.0600 
    197 H197       -0.7807  -25.8115  -43.6840 H         1 UNK         0.0600 
    198 H198       -1.8381  -27.1777  -43.3462 H         1 UNK         0.0600 
    199 H199       -2.4819  -25.5429  -43.3114 H         1 UNK         0.0600 
    200 H200        0.1581  -25.9050  -46.4085 H         1 UNK         0.3000 
    201 H201        0.9217  -28.7042  -46.8076 H         1 UNK         0.0600 
    202 H202        2.3376  -26.0826  -47.5256 H         1 UNK         0.0600 
    203 H203        3.0376  -27.6930  -47.6386 H         1 UNK         0.0600 
    204 H204        2.5977  -27.0366  -46.0685 H         1 UNK         0.0600 
    205 H205        0.1484  -25.8617  -48.8623 H         1 UNK         0.3000 
    206 H206        0.5880  -27.2353  -51.3461 H         1 UNK         0.0600 
    207 H207        0.9648  -24.7890  -51.0060 H         1 UNK         0.0600 
    208 H208       -0.1808  -25.0711  -52.3091 H         1 UNK         0.0600 
    209 H209       -0.7614  -24.5507  -50.7342 H         1 UNK         0.0600 
    210 H210       -2.1869  -26.9936  -49.3043 H         1 UNK         0.3000 
    211 H211       -4.3322  -27.5205  -49.3929 H         1 UNK         0.0600 
    212 H212       -3.9500  -28.8220  -52.1407 H         1 UNK         0.0600 
    213 H213       -5.3261  -28.9969  -51.0668 H         1 UNK         0.0600 
    214 H214       -3.7645  -29.6485  -50.5941 H         1 UNK         0.0600 
    215 H215       -3.6667  -25.1359  -49.6520 H         1 UNK         0.3000 
    216 H216       -4.1844  -23.0490  -50.1329 H         1 UNK         0.0600 
    217 H217       -6.5849  -23.7946  -50.1945 H         1 UNK         0.0600 
    218 H218       -6.2713  -22.4260  -51.2436 H         1 UNK         0.0600 
    219 H219       -6.4568  -24.0242  -51.9395 H         1 UNK         0.0600 
    220 H220       -4.3321  -21.3394  -51.9279 H         1 UNK         0.3000 
    221 H221       -3.1362  -22.0863  -54.4950 H         1 UNK         0.0600 
    222 H222       -1.7485  -20.1615  -52.5469 H         1 UNK         0.0600 
    223 H223       -1.1400  -21.7515  -53.0058 H         1 UNK         0.0600 
    224 H224       -1.2670  -20.4740  -54.2079 H         1 UNK         0.0600 
    225 H225       -4.6384  -21.1837  -55.7877 H         1 UNK         0.3000 
    226 H226       -6.2312  -18.9158  -55.0436 H         1 UNK         0.0600 
    227 H227       -7.0962  -20.7034  -56.5317 H         1 UNK         0.0600 
    228 H228       -7.1175  -19.1691  -57.3856 H         1 UNK         0.0600 
    229 H229       -5.8578  -20.3446  -57.7359 H         1 UNK         0.0600 
    230 H230       -4.5816  -16.1748  -56.7991 H         1 UNK         0.3000 
    231 H231       -7.2298  -17.1451  -55.9682 H         1 UNK         0.0600 
    232 H232       -6.9776  -15.4711  -57.7865 H         1 UNK         0.0600 
    233 H233       -6.1742  -14.3654  -56.6719 H         1 UNK         0.0600 
    234 H234       -7.8589  -14.8069  -56.4229 H         1 UNK         0.0600 
    235 H235       -4.4335  -16.5562  -54.2648 H         1 UNK         0.3000 
    236 H236       -5.1786  -14.6661  -52.2921 H         1 UNK         0.0600 
    237 H237       -3.0861  -16.9021  -52.1678 H         1 UNK         0.0600 
    238 H238       -2.8227  -15.2833  -52.8191 H         1 UNK         0.0600 
    239 H239       -3.1649  -15.4970  -51.1105 H         1 UNK         0.0600 
    240 H240       -5.6158  -18.2058  -52.4069 H         1 UNK         0.3000 
    241 H241       -7.6121  -18.0681  -50.3184 H         1 UNK         0.0600 
    242 H242       -8.8795  -21.2319  -51.4559 H         1 UNK         0.3800 
    243 H243       -8.6996  -20.3308  -49.9795 H         1 UNK         0.3800 
    244 H244       -5.8348  -18.3879  -48.7842 H         1 UNK         0.0800 
    245 H245       -6.5295  -19.9617  -48.9592 H         1 UNK         0.0800 
    246 H246       -3.2232  -18.9455  -48.0224 H         1 UNK         0.0800 
    247 H247       -3.6162  -17.7139  -49.2025 H         1 UNK         0.0800 
@<TRIPOS>BOND
     1    1    2 1    
     2    1  127 1    
     3    1  128 1    
     4    1  129 1    
     5    2    3 2    
     6    2    4 am   BACKBONE|DICT|INTERRES
     7    4    5 1    
     8    4  130 1    
     9    5    6 1    
    10    5   65 1    
    11    5  131 1    
    12    6    7 1    
    13    6  132 1    
    14    6  133 1    
    15    7    8 1    
    16    8    9 1    
    17    8  134 1    
    18    8  135 1    
    19    9   10 ar   
    20    9   14 ar   
    21   10   11 ar   
    22   10  136 1    
    23   11   12 ar   
    24   11  126 1    
    25   12   13 ar   
    26   12  137 1    
    27   13   14 ar   
    28   13   15 1    
    29   14  138 1    
    30   15   16 1    
    31   15  139 1    
    32   15  140 1    
    33   16   17 1    
    34   17   18 1    
    35   17  141 1    
    36   17  142 1    
    37   18   19 1    
    38   18   67 1    
    39   18  143 1    
    40   19   20 am   BACKBONE|DICT|INTERRES
    41   19  144 1    
    42   20   21 2    
    43   20   22 1    
    44   22   23 1    
    45   22   24 1    
    46   22  145 1    
    47   23  146 1    
    48   23  147 1    
    49   23  148 1    
    50   24   25 am   BACKBONE|DICT|INTERRES
    51   24  149 1    
    52   25   26 2    
    53   25   27 1    
    54   27   28 1    
    55   27   29 1    
    56   27  150 1    
    57   28  151 1    
    58   28  152 1    
    59   28  153 1    
    60   29   30 am   BACKBONE|DICT|INTERRES
    61   29  154 1    
    62   30   31 2    
    63   30   32 1    
    64   32   33 1    
    65   32   34 1    
    66   32  155 1    
    67   33  156 1    
    68   33  157 1    
    69   33  158 1    
    70   34   35 am   BACKBONE|DICT|INTERRES
    71   34  159 1    
    72   35   36 2    
    73   35   37 1    
    74   37   38 1    
    75   37   39 1    
    76   37  160 1    
    77   38  161 1    
    78   38  162 1    
    79   38  163 1    
    80   39   40 am   BACKBONE|DICT|INTERRES
    81   39  164 1    
    82   40   41 2    
    83   40   42 1    
    84   42   43 1    
    85   42   44 1    
    86   42  165 1    
    87   43  166 1    
    88   43  167 1    
    89   43  168 1    
    90   44   45 am   BACKBONE|DICT|INTERRES
    91   44  169 1    
    92   45   46 2    
    93   45   47 1    
    94   47   48 1    
    95   47   49 1    
    96   47  170 1    
    97   48  171 1    
    98   48  172 1    
    99   48  173 1    
   100   49   50 am   BACKBONE|DICT|INTERRES
   101   49  174 1    
   102   50   51 2    
   103   50   52 1    
   104   52   53 1    
   105   52   54 1    
   106   52  175 1    
   107   53  176 1    
   108   53  177 1    
   109   53  178 1    
   110   54   55 am   BACKBONE|DICT|INTERRES
   111   54  179 1    
   112   55   56 2    
   113   55   57 1    
   114   57   58 1    
   115   57   59 1    
   116   57  180 1    
   117   58  181 1    
   118   58  182 1    
   119   58  183 1    
   120   59   60 am   BACKBONE|DICT|INTERRES
   121   59  184 1    
   122   60   61 2    
   123   60   62 1    
   124   62   63 1    
   125   62   64 1    
   126   62  185 1    
   127   63  186 1    
   128   63  187 1    
   129   63  188 1    
   130   64   65 am   BACKBONE|DICT|INTERRES
   131   64  189 1    
   132   65   66 2    
   133   67   68 2    
   134   67   69 am   BACKBONE|DICT|INTERRES
   135   69   70 1    
   136   69  190 1    
   137   70   71 1    
   138   70   72 1    
   139   70  191 1    
   140   71  192 1    
   141   71  193 1    
   142   71  194 1    
   143   72   73 2    
   144   72   74 am   BACKBONE|DICT|INTERRES
   145   74   75 1    
   146   74  195 1    
   147   75   76 1    
   148   75   77 1    
   149   75  196 1    
   150   76  197 1    
   151   76  198 1    
   152   76  199 1    
   153   77   78 2    
   154   77   79 am   BACKBONE|DICT|INTERRES
   155   79   80 1    
   156   79  200 1    
   157   80   81 1    
   158   80   82 1    
   159   80  201 1    
   160   81  202 1    
   161   81  203 1    
   162   81  204 1    
   163   82   83 2    
   164   82   84 am   BACKBONE|DICT|INTERRES
   165   84   85 1    
   166   84  205 1    
   167   85   86 1    
   168   85   87 1    
   169   85  206 1    
   170   86  207 1    
   171   86  208 1    
   172   86  209 1    
   173   87   88 2    
   174   87   89 am   BACKBONE|DICT|INTERRES
   175   89   90 1    
   176   89  210 1    
   177   90   91 1    
   178   90   92 1    
   179   90  211 1    
   180   91  212 1    
   181   91  213 1    
   182   91  214 1    
   183   92   93 2    
   184   92   94 am   BACKBONE|DICT|INTERRES
   185   94   95 1    
   186   94  215 1    
   187   95   96 1    
   188   95   97 1    
   189   95  216 1    
   190   96  217 1    
   191   96  218 1    
   192   96  219 1    
   193   97   98 2    
   194   97   99 am   BACKBONE|DICT|INTERRES
   195   99  100 1    
   196   99  220 1    
   197  100  101 1    
   198  100  102 1    
   199  100  221 1    
   200  101  222 1    
   201  101  223 1    
   202  101  224 1    
   203  102  103 2    
   204  102  104 am   BACKBONE|DICT|INTERRES
   205  104  105 1    
   206  104  225 1    
   207  105  106 1    
   208  105  107 1    
   209  105  226 1    
   210  106  227 1    
   211  106  228 1    
   212  106  229 1    
   213  107  108 2    
   214  107  109 am   BACKBONE|DICT|INTERRES
   215  109  110 1    
   216  109  230 1    
   217  110  111 1    
   218  110  112 1    
   219  110  231 1    
   220  111  232 1    
   221  111  233 1    
   222  111  234 1    
   223  112  113 2    
   224  112  114 am   BACKBONE|DICT|INTERRES
   225  114  115 1    
   226  114  235 1    
   227  115  116 1    
   228  115  117 1    
   229  115  236 1    
   230  116  237 1    
   231  116  238 1    
   232  116  239 1    
   233  117  118 2    
   234  117  119 am   BACKBONE|DICT|INTERRES
   235  119  120 1    
   236  119  240 1    
   237  120  121 1    
   238  120  124 1    
   239  120  241 1    
   240  121  122 am   BACKBONE|DICT|INTERRES
   241  121  123 2    
   242  122  242 1    
   243  122  243 1    
   244  124  125 1    
   245  124  244 1    
   246  124  245 1    
   247  125  126 1    
   248  126  246 1    
   249  126  247 1    
@<TRIPOS>SUBSTRUCTURE
     1 UNK         1 GROUP             0       ****    0 ROOT    
