@<TRIPOS>MOLECULE
3R540
247   249    1
SMALL
USER_CHARGES


@<TRIPOS>ATOM
      1 CA          1.5687  -11.2655  -46.7655 C.3       0 UNK        -0.1800 
      2 C           0.6069  -12.2216  -47.4538 C.2       0 UNK         0.5000 
      3 O          -0.5928  -11.9543  -47.5021 O.2       0 UNK        -0.5000 
      4 N           1.1272  -13.3267  -48.0047 N.am      1 UNK        -0.5000 
      5 CA          0.3823  -14.4364  -48.6260 C.3       1 UNK         0.1400 
      6 C6          1.3038  -15.6372  -48.9350 C.3       23 UNK        -0.0398 
      7 S7          2.0168  -16.3414  -47.4108 S.3       23 UNK        -0.2404 
      8 C8          0.9207  -17.7681  -47.1318 C.3       23 UNK        -0.0205 
      9 C9          1.1536  -18.8612  -48.1631 C.ar      23 UNK        -0.0193 
     10 C10         0.1911  -19.1411  -49.1368 C.ar      23 UNK        -0.1150 
     11 C11         0.4251  -20.1249  -50.1020 C.ar      23 UNK        -0.0193 
     12 C12         1.6246  -20.8437  -50.0760 C.ar      23 UNK        -0.1150 
     13 C13         2.5874  -20.5822  -49.0982 C.ar      23 UNK        -0.0193 
     14 C14         2.3460  -19.5868  -48.1489 C.ar      23 UNK        -0.1150 
     15 C15         3.8984  -21.3549  -49.0796 C.3       23 UNK        -0.0205 
     16 S16         3.7055  -23.0512  -48.4436 S.3       23 UNK        -0.2404 
     17 C17         3.1914  -22.7605  -46.7153 C.3       23 UNK        -0.0398 
     18 CA          1.9681  -23.6099  -46.2985 C.3       11 UNK         0.1400 
     19 N           1.7898  -23.6136  -44.8454 N.am      11 UNK        -0.5000 
     20 C           1.0618  -24.5133  -44.1701 C.2       10 UNK         0.5000 
     21 O           0.4914  -25.4654  -44.6995 O.2       10 UNK        -0.5000 
     22 CA          0.9109  -24.2850  -42.6546 C.3       10 UNK         0.1400 
     23 CB          2.1087  -24.8747  -41.8956 C.3       10 UNK        -0.1800 
     24 N           0.7677  -22.8691  -42.3121 N.am      10 UNK        -0.5000 
     25 C          -0.2802  -22.1109  -42.6641 C.2       9 UNK         0.5000 
     26 O          -1.2601  -22.5441  -43.2671 O.2       9 UNK        -0.5000 
     27 CA         -0.2030  -20.6109  -42.3273 C.3       9 UNK         0.1400 
     28 CB         -0.8161  -20.3450  -40.9458 C.3       9 UNK        -0.1800 
     29 N           1.1553  -20.0622  -42.3759 N.am      9 UNK        -0.5000 
     30 C           1.9415  -20.0472  -43.4635 C.2       8 UNK         0.5000 
     31 O           1.6128  -20.5406  -44.5445 O.2       8 UNK        -0.5000 
     32 CA          3.3286  -19.4004  -43.3028 C.3       8 UNK         0.1400 
     33 CB          3.9027  -18.8638  -44.6244 C.3       8 UNK        -0.1800 
     34 N           3.2880  -18.3217  -42.3174 N.am      8 UNK        -0.5000 
     35 C           4.1701  -18.1515  -41.3247 C.2       7 UNK         0.5000 
     36 O           5.1382  -18.8891  -41.1361 O.2       7 UNK        -0.5000 
     37 CA          3.9414  -16.9584  -40.3749 C.3       7 UNK         0.1400 
     38 CB          4.9009  -15.8093  -40.7217 C.3       7 UNK        -0.1800 
     39 N           2.5712  -16.4403  -40.3783 N.am      7 UNK        -0.5000 
     40 C           1.4896  -17.0928  -39.9292 C.2       6 UNK         0.5000 
     41 O           1.5183  -18.2395  -39.4826 O.2       6 UNK        -0.5000 
     42 CA          0.1477  -16.3419  -40.0231 C.3       6 UNK         0.1400 
     43 CB         -0.1412  -15.5951  -38.7123 C.3       6 UNK        -0.1800 
     44 N           0.1003  -15.3924  -41.1384 N.am      6 UNK        -0.5000 
     45 C           0.0610  -15.7410  -42.4306 C.2       5 UNK         0.5000 
     46 O           0.0584  -16.9067  -42.8322 O.2       5 UNK        -0.5000 
     47 CA          0.0590  -14.5949  -43.4459 C.3       5 UNK         0.1400 
     48 CB          1.4366  -14.4625  -44.1153 C.3       5 UNK        -0.1800 
     49 N          -0.9610  -14.8650  -44.4551 N.am      5 UNK        -0.5000 
     50 C          -1.7723  -13.9369  -44.9720 C.2       4 UNK         0.5000 
     51 O          -1.7185  -12.7406  -44.6743 O.2       4 UNK        -0.5000 
     52 CA         -2.8395  -14.4187  -45.9672 C.3       4 UNK         0.1400 
     53 CB         -4.1133  -14.8321  -45.2016 C.3       4 UNK        -0.1800 
     54 N          -3.0925  -13.3254  -46.9057 N.am      4 UNK        -0.5000 
     55 C          -3.9992  -13.2530  -47.8882 C.2       3 UNK         0.5000 
     56 O          -4.7909  -14.1507  -48.1712 O.2       3 UNK        -0.5000 
     57 CA         -3.9847  -11.9647  -48.7278 C.3       3 UNK         0.1400 
     58 CB         -4.1461  -10.7060  -47.8577 C.3       3 UNK        -0.1800 
     59 N          -2.7191  -11.9031  -49.4492 N.am      3 UNK        -0.5000 
     60 C          -2.5782  -11.9048  -50.7812 C.2       2 UNK         0.5000 
     61 O          -3.5079  -11.7324  -51.5685 O.2       2 UNK        -0.5000 
     62 CA         -1.1613  -12.1680  -51.3408 C.3       2 UNK         0.1400 
     63 CB         -0.5098  -10.8542  -51.7980 C.3       2 UNK        -0.1800 
     64 N          -0.2738  -12.8260  -50.3792 N.am      2 UNK        -0.5000 
     65 C          -0.4524  -14.0533  -49.8695 C.2       1 UNK         0.5000 
     66 O          -1.2773  -14.8572  -50.3071 O.2       1 UNK        -0.5000 
     67 C           0.6649  -23.1851  -47.0078 C.2       11 UNK         0.5000 
     68 O           0.2687  -23.8261  -47.9820 O.2       11 UNK        -0.5000 
     69 N          -0.0195  -22.1688  -46.4603 N.am      12 UNK        -0.5000 
     70 CA         -1.3342  -21.7197  -46.9230 C.3       12 UNK         0.1400 
     71 CB         -1.7524  -20.4562  -46.1573 C.3       12 UNK        -0.1800 
     72 C          -2.4191  -22.8070  -46.8026 C.2       12 UNK         0.5000 
     73 O          -3.2520  -22.9253  -47.6981 O.2       12 UNK        -0.5000 
     74 N          -2.3798  -23.5888  -45.7150 N.am      13 UNK        -0.5000 
     75 CA         -3.2634  -24.7306  -45.4822 C.3       13 UNK         0.1400 
     76 CB         -3.1869  -25.1407  -44.0035 C.3       13 UNK        -0.1800 
     77 C          -2.9463  -25.9314  -46.3934 C.2       13 UNK         0.5000 
     78 O          -3.8718  -26.6210  -46.8232 O.2       13 UNK        -0.5000 
     79 N          -1.6544  -26.1702  -46.6628 N.am      14 UNK        -0.5000 
     80 CA         -1.1749  -27.2454  -47.5334 C.3       14 UNK         0.1400 
     81 CB          0.3382  -27.4305  -47.3425 C.3       14 UNK        -0.1800 
     82 C          -1.5070  -27.0115  -49.0182 C.2       14 UNK         0.5000 
     83 O          -1.7979  -27.9741  -49.7300 O.2       14 UNK        -0.5000 
     84 N          -1.4596  -25.7471  -49.4587 N.am      15 UNK        -0.5000 
     85 CA         -1.8333  -25.3163  -50.8036 C.3       15 UNK         0.1400 
     86 CB         -1.4557  -23.8386  -50.9803 C.3       15 UNK        -0.1800 
     87 C          -3.3356  -25.5266  -51.0655 C.2       15 UNK         0.5000 
     88 O          -4.1621  -25.0174  -50.3077 O.2       15 UNK        -0.5000 
     89 N          -3.6645  -26.2490  -52.1446 N.am      16 UNK        -0.5000 
     90 CA         -5.0377  -26.6030  -52.5214 C.3       16 UNK         0.1400 
     91 CB         -4.9971  -27.6268  -53.6663 C.3       16 UNK        -0.1800 
     92 C          -5.9091  -25.3926  -52.9103 C.2       16 UNK         0.5000 
     93 O          -7.1201  -25.4191  -52.6883 O.2       16 UNK        -0.5000 
     94 N          -5.2764  -24.3523  -53.4692 N.am      17 UNK        -0.5000 
     95 CA         -5.9183  -23.0853  -53.8240 C.3       17 UNK         0.1400 
     96 CB         -5.0401  -22.3611  -54.8583 C.3       17 UNK        -0.1800 
     97 C          -6.1637  -22.1696  -52.6081 C.2       17 UNK         0.5000 
     98 O          -7.0248  -21.2941  -52.6872 O.2       17 UNK        -0.5000 
     99 N          -5.3957  -22.3806  -51.5280 N.am      18 UNK        -0.5000 
    100 CA        -5.2256  -21.5106  -50.3595 C.3       18 UNK         0.1400 
    101 CB        -6.5619  -21.2809  -49.6213 C.3       18 UNK        -0.1800 
    102 C         -4.4968  -20.1922  -50.7055 C.2       18 UNK         0.5000 
    103 O         -4.0551  -20.0018  -51.8421 O.2       18 UNK        -0.5000 
    104 N         -4.3375  -19.3174  -49.7015 N.am      19 UNK        -0.5000 
    105 CA        -3.6961  -18.0052  -49.8317 C.3       19 UNK         0.1400 
    106 CB        -3.5324  -17.3768  -48.4399 C.3       19 UNK        -0.1800 
    107 C         -4.4527  -17.0573  -50.7824 C.2       19 UNK         0.5000 
    108 O         -5.6395  -17.2639  -51.0511 O.2       19 UNK        -0.5000 
    109 N         -3.7343  -16.0493  -51.2946 N.am      20 UNK        -0.5000 
    110 CA        -4.1175  -15.0995  -52.3446 C.3       20 UNK         0.1400 
    111 CB        -5.3921  -14.3106  -51.9837 C.3       20 UNK        -0.1800 
    112 C         -4.2318  -15.7615  -53.7288 C.2       20 UNK         0.5000 
    113 O         -3.5355  -15.3531  -54.6593 O.2       20 UNK        -0.5000 
    114 N         -5.0762  -16.7947  -53.8325 N.am      21 UNK        -0.5000 
    115 CA        -5.3361  -17.5723  -55.0439 C.3       21 UNK         0.1400 
    116 CB        -6.4923  -18.5409  -54.7715 C.3       21 UNK        -0.1800 
    117 C         -4.1042  -18.3306  -55.5728 C.2       21 UNK         0.5000 
    118 O         -4.0041  -18.5383  -56.7828 O.2       21 UNK        -0.5000 
    119 N         -3.1797  -18.7010  -54.6762 N.am      22 UNK        -0.5000 
    120 CA        -1.8694  -19.2687  -55.0256 C.3       22 UNK         0.1400 
    121 C         -0.8534  -18.2601  -55.6469 C.2       22 UNK         0.5000 
    122 N         -1.1279  -16.9601  -55.6848 N.am      22 UNK        -0.7600 
    123 O          0.2016  -18.6704  -56.1233 O.2       22 UNK        -0.5000 
    124 C124       -1.2608  -20.0845  -53.8564 C.3       23 UNK        -0.0398 
    125 S125       -0.7390  -19.1007  -52.4061 S.3       23 UNK        -0.2404 
    126 C126       -0.6187  -20.4257  -51.1641 C.3       23 UNK        -0.0205 
    127 H127        1.5540  -10.2960  -47.2632 H         1 UNK         0.0600 
    128 H128        2.5919  -11.6414  -46.7766 H         1 UNK         0.0600 
    129 H129        1.2698  -11.1220  -45.7271 H         1 UNK         0.0600 
    130 H130        2.1236  -13.4782  -47.9328 H         1 UNK         0.3000 
    131 H131       -0.3493  -14.7670  -47.8863 H         1 UNK         0.0600 
    132 H132        2.1208  -15.3328  -49.5909 H         1 UNK         0.0800 
    133 H133        0.7665  -16.4186  -49.4739 H         1 UNK         0.0800 
    134 H134       -0.1180  -17.4346  -47.1406 H         1 UNK         0.0800 
    135 H135        1.1033  -18.1719  -46.1352 H         1 UNK         0.0800 
    136 H136       -0.7327  -18.5836  -49.1538 H         1 UNK         0.1150 
    137 H137        1.8115  -21.6112  -50.8139 H         1 UNK         0.1150 
    138 H138        3.0923  -19.3624  -47.4024 H         1 UNK         0.1150 
    139 H139        4.2992  -21.4034  -50.0930 H         1 UNK         0.0800 
    140 H140        4.6469  -20.8315  -48.4826 H         1 UNK         0.0800 
    141 H141        3.0033  -21.7026  -46.5381 H         1 UNK         0.0800 
    142 H142        4.0451  -23.0159  -46.0862 H         1 UNK         0.0800 
    143 H143        2.1732  -24.6407  -46.5961 H         1 UNK         0.0600 
    144 H144        2.1575  -22.8164  -44.3465 H         1 UNK         0.3000 
    145 H145        0.0086  -24.8065  -42.3279 H         1 UNK         0.0600 
    146 H146        1.9748  -24.7852  -40.8174 H         1 UNK         0.0600 
    147 H147        2.2281  -25.9355  -42.1201 H         1 UNK         0.0600 
    148 H148        3.0415  -24.3757  -42.1614 H         1 UNK         0.0600 
    149 H149        1.5288  -22.4370  -41.8098 H         1 UNK         0.3000 
    150 H150       -0.7973  -20.0757  -43.0698 H         1 UNK         0.0600 
    151 H151       -1.8173  -20.7717  -40.8710 H         1 UNK         0.0600 
    152 H152       -0.9088  -19.2767  -40.7603 H         1 UNK         0.0600 
    153 H153       -0.2125  -20.7752  -40.1457 H         1 UNK         0.0600 
    154 H154        1.5002  -19.6401  -41.5244 H         1 UNK         0.3000 
    155 H155        3.9840  -20.2010  -42.9546 H         1 UNK         0.0600 
    156 H156        3.2562  -18.1054  -45.0655 H         1 UNK         0.0600 
    157 H157        4.0260  -19.6681  -45.3491 H         1 UNK         0.0600 
    158 H158        4.8852  -18.4167  -44.4734 H         1 UNK         0.0600 
    159 H159        2.5059  -17.6843  -42.3898 H         1 UNK         0.3000 
    160 H160        4.1679  -17.3012  -39.3631 H         1 UNK         0.0600 
    161 H161        4.7072  -15.4109  -41.7185 H         1 UNK         0.0600 
    162 H162        5.9387  -16.1448  -40.6985 H         1 UNK         0.0600 
    163 H163        4.8111  -14.9901  -40.0080 H         1 UNK         0.0600 
    164 H164        2.4470  -15.5027  -40.7297 H         1 UNK         0.3000 
    165 H165       -0.6416  -17.0799  -40.1715 H         1 UNK         0.0600 
    166 H166       -1.1206  -15.1168  -38.7381 H         1 UNK         0.0600 
    167 H167       -0.1388  -16.2809  -37.8639 H         1 UNK         0.0600 
    168 H168        0.6046  -14.8245  -38.5133 H         1 UNK         0.0600 
    169 H169        0.0961  -14.4126  -40.8926 H         1 UNK         0.3000 
    170 H170       -0.1663  -13.6654  -42.9184 H         1 UNK         0.0600 
    171 H171        2.2064  -14.2203  -43.3818 H         1 UNK         0.0600 
    172 H172        1.7340  -15.3885  -44.6078 H         1 UNK         0.0600 
    173 H173        1.4387  -13.6703  -44.8628 H         1 UNK         0.0600 
    174 H174       -1.0876  -15.8430  -44.6792 H         1 UNK         0.3000 
    175 H175       -2.4462  -15.2713  -46.5214 H         1 UNK         0.0600 
    176 H176       -4.5924  -13.9737  -44.7294 H         1 UNK         0.0600 
    177 H177       -4.8430  -15.3073  -45.8562 H         1 UNK         0.0600 
    178 H178       -3.8826  -15.5524  -44.4157 H         1 UNK         0.0600 
    179 H179       -2.4557  -12.5439  -46.7735 H         1 UNK         0.3000 
    180 H180       -4.8268  -12.0106  -49.4212 H         1 UNK         0.0600 
    181 H181       -3.3043  -10.5648  -47.1786 H         1 UNK         0.0600 
    182 H182       -5.0530  -10.7621  -47.2543 H         1 UNK         0.0600 
    183 H183       -4.2226   -9.8129  -48.4780 H         1 UNK         0.0600 
    184 H184       -1.8871  -12.0182  -48.8760 H         1 UNK         0.3000 
    185 H185       -1.2654  -12.8230  -52.2081 H         1 UNK         0.0600 
    186 H186       -1.1292  -10.3486  -52.5400 H         1 UNK         0.0600 
    187 H187       -0.3674  -10.1651  -50.9645 H         1 UNK         0.0600 
    188 H188        0.4627  -11.0341  -52.2566 H         1 UNK         0.0600 
    189 H189        0.4274  -12.2419  -49.9476 H         1 UNK         0.3000 
    190 H190        0.3929  -21.6667  -45.6808 H         1 UNK         0.3000 
    191 H191       -1.2394  -21.4636  -47.9799 H         1 UNK         0.0600 
    192 H192       -1.9103  -20.6606  -45.0993 H         1 UNK         0.0600 
    193 H193       -2.6865  -20.0569  -46.5526 H         1 UNK         0.0600 
    194 H194       -0.9996  -19.6742  -46.2371 H         1 UNK         0.0600 
    195 H195       -1.7228  -23.3625  -44.9745 H         1 UNK         0.3000 
    196 H196       -4.2878  -24.4161  -45.6928 H         1 UNK         0.0600 
    197 H197       -3.8487  -25.9824  -43.7960 H         1 UNK         0.0600 
    198 H198       -3.4891  -24.3209  -43.3515 H         1 UNK         0.0600 
    199 H199       -2.1768  -25.4380  -43.7202 H         1 UNK         0.0600 
    200 H200       -0.9466  -25.5982  -46.2166 H         1 UNK         0.3000 
    201 H201       -1.6672  -28.1709  -47.2277 H         1 UNK         0.0600 
    202 H202        0.5769  -27.6896  -46.3111 H         1 UNK         0.0600 
    203 H203        0.8898  -26.5258  -47.5987 H         1 UNK         0.0600 
    204 H204        0.7162  -28.2353  -47.9742 H         1 UNK         0.0600 
    205 H205       -1.1643  -25.0206  -48.8147 H         1 UNK         0.3000 
    206 H206       -1.2569  -25.9055  -51.5196 H         1 UNK         0.0600 
    207 H207       -1.9749  -23.2025  -50.2619 H         1 UNK         0.0600 
    208 H208       -0.3845  -23.6898  -50.8414 H         1 UNK         0.0600 
    209 H209       -1.7103  -23.4849  -51.9801 H         1 UNK         0.0600 
    210 H210       -2.9289  -26.6386  -52.7168 H         1 UNK         0.3000 
    211 H211       -5.5074  -27.0780  -51.6574 H         1 UNK         0.0600 
    212 H212       -4.5110  -27.2199  -54.5539 H         1 UNK         0.0600 
    213 H213       -6.0043  -27.9312  -53.9542 H         1 UNK         0.0600 
    214 H214       -4.4595  -28.5281  -53.3711 H         1 UNK         0.0600 
    215 H215       -4.2831  -24.4243  -53.6322 H         1 UNK         0.3000 
    216 H216       -6.8860  -23.2961  -54.2844 H         1 UNK         0.0600 
    217 H217       -5.5092  -21.4333  -55.1875 H         1 UNK         0.0600 
    218 H218       -4.8822  -22.9755  -55.7447 H         1 UNK         0.0600 
    219 H219       -4.0633  -22.1026  -54.4473 H         1 UNK         0.0600 
    220 H220       -4.7718  -23.1750  -51.5507 H         1 UNK         0.3000 
    221 H221       -4.5654  -22.0606  -49.6913 H         1 UNK         0.0600 
    222 H222       -7.2122  -20.5918  -50.1609 H         1 UNK         0.0600 
    223 H223       -7.1026  -22.2176  -49.4857 H         1 UNK         0.0600 
    224 H224       -6.3967  -20.8618  -48.6286 H         1 UNK         0.0600 
    225 H225       -4.7474  -19.5278  -48.8044 H         1 UNK         0.3000 
    226 H226       -2.7045  -18.1665  -50.2563 H         1 UNK         0.0600 
    227 H227       -4.4963  -17.2050  -47.9591 H         1 UNK         0.0600 
    228 H228       -2.9321  -18.0072  -47.7852 H         1 UNK         0.0600 
    229 H229       -3.0269  -16.4134  -48.5108 H         1 UNK         0.0600 
    230 H230       -2.7805  -15.9231  -50.9650 H         1 UNK         0.3000 
    231 H231       -3.2955  -14.3860  -52.4042 H         1 UNK         0.0600 
    232 H232       -5.3123  -13.8699  -50.9907 H         1 UNK         0.0600 
    233 H233       -6.2878  -14.9314  -52.0011 H         1 UNK         0.0600 
    234 H234       -5.5513  -13.4950  -52.6897 H         1 UNK         0.0600 
    235 H235       -5.5576  -17.0863  -52.9861 H         1 UNK         0.3000 
    236 H236       -5.6497  -16.8754  -55.8237 H         1 UNK         0.0600 
    237 H237       -6.2445  -19.2175  -53.9549 H         1 UNK         0.0600 
    238 H238       -7.4026  -18.0064  -54.4997 H         1 UNK         0.0600 
    239 H239       -6.7180  -19.1469  -55.6498 H         1 UNK         0.0600 
    240 H240       -3.3522  -18.5442  -53.6923 H         1 UNK         0.3000 
    241 H241       -2.0561  -19.9925  -55.8214 H         1 UNK         0.0600 
    242 H242       -1.9949  -16.5918  -55.3124 H         1 UNK         0.3800 
    243 H243       -0.4597  -16.3296  -56.0981 H         1 UNK         0.3800 
    244 H244       -1.9859  -20.8303  -53.5272 H         1 UNK         0.0800 
    245 H245       -0.3966  -20.6504  -54.2081 H         1 UNK         0.0800 
    246 H246       -1.5886  -20.5800  -50.6928 H         1 UNK         0.0800 
    247 H247       -0.3672  -21.3589  -51.6674 H         1 UNK         0.0800 
@<TRIPOS>BOND
     1    1    2 1    
     2    1  127 1    
     3    1  128 1    
     4    1  129 1    
     5    2    3 2    
     6    2    4 am   BACKBONE|DICT|INTERRES
     7    4    5 1    
     8    4  130 1    
     9    5    6 1    
    10    5   65 1    
    11    5  131 1    
    12    6    7 1    
    13    6  132 1    
    14    6  133 1    
    15    7    8 1    
    16    8    9 1    
    17    8  134 1    
    18    8  135 1    
    19    9   10 ar   
    20    9   14 ar   
    21   10   11 ar   
    22   10  136 1    
    23   11   12 ar   
    24   11  126 1    
    25   12   13 ar   
    26   12  137 1    
    27   13   14 ar   
    28   13   15 1    
    29   14  138 1    
    30   15   16 1    
    31   15  139 1    
    32   15  140 1    
    33   16   17 1    
    34   17   18 1    
    35   17  141 1    
    36   17  142 1    
    37   18   19 1    
    38   18   67 1    
    39   18  143 1    
    40   19   20 am   BACKBONE|DICT|INTERRES
    41   19  144 1    
    42   20   21 2    
    43   20   22 1    
    44   22   23 1    
    45   22   24 1    
    46   22  145 1    
    47   23  146 1    
    48   23  147 1    
    49   23  148 1    
    50   24   25 am   BACKBONE|DICT|INTERRES
    51   24  149 1    
    52   25   26 2    
    53   25   27 1    
    54   27   28 1    
    55   27   29 1    
    56   27  150 1    
    57   28  151 1    
    58   28  152 1    
    59   28  153 1    
    60   29   30 am   BACKBONE|DICT|INTERRES
    61   29  154 1    
    62   30   31 2    
    63   30   32 1    
    64   32   33 1    
    65   32   34 1    
    66   32  155 1    
    67   33  156 1    
    68   33  157 1    
    69   33  158 1    
    70   34   35 am   BACKBONE|DICT|INTERRES
    71   34  159 1    
    72   35   36 2    
    73   35   37 1    
    74   37   38 1    
    75   37   39 1    
    76   37  160 1    
    77   38  161 1    
    78   38  162 1    
    79   38  163 1    
    80   39   40 am   BACKBONE|DICT|INTERRES
    81   39  164 1    
    82   40   41 2    
    83   40   42 1    
    84   42   43 1    
    85   42   44 1    
    86   42  165 1    
    87   43  166 1    
    88   43  167 1    
    89   43  168 1    
    90   44   45 am   BACKBONE|DICT|INTERRES
    91   44  169 1    
    92   45   46 2    
    93   45   47 1    
    94   47   48 1    
    95   47   49 1    
    96   47  170 1    
    97   48  171 1    
    98   48  172 1    
    99   48  173 1    
   100   49   50 am   BACKBONE|DICT|INTERRES
   101   49  174 1    
   102   50   51 2    
   103   50   52 1    
   104   52   53 1    
   105   52   54 1    
   106   52  175 1    
   107   53  176 1    
   108   53  177 1    
   109   53  178 1    
   110   54   55 am   BACKBONE|DICT|INTERRES
   111   54  179 1    
   112   55   56 2    
   113   55   57 1    
   114   57   58 1    
   115   57   59 1    
   116   57  180 1    
   117   58  181 1    
   118   58  182 1    
   119   58  183 1    
   120   59   60 am   BACKBONE|DICT|INTERRES
   121   59  184 1    
   122   60   61 2    
   123   60   62 1    
   124   62   63 1    
   125   62   64 1    
   126   62  185 1    
   127   63  186 1    
   128   63  187 1    
   129   63  188 1    
   130   64   65 am   BACKBONE|DICT|INTERRES
   131   64  189 1    
   132   65   66 2    
   133   67   68 2    
   134   67   69 am   BACKBONE|DICT|INTERRES
   135   69   70 1    
   136   69  190 1    
   137   70   71 1    
   138   70   72 1    
   139   70  191 1    
   140   71  192 1    
   141   71  193 1    
   142   71  194 1    
   143   72   73 2    
   144   72   74 am   BACKBONE|DICT|INTERRES
   145   74   75 1    
   146   74  195 1    
   147   75   76 1    
   148   75   77 1    
   149   75  196 1    
   150   76  197 1    
   151   76  198 1    
   152   76  199 1    
   153   77   78 2    
   154   77   79 am   BACKBONE|DICT|INTERRES
   155   79   80 1    
   156   79  200 1    
   157   80   81 1    
   158   80   82 1    
   159   80  201 1    
   160   81  202 1    
   161   81  203 1    
   162   81  204 1    
   163   82   83 2    
   164   82   84 am   BACKBONE|DICT|INTERRES
   165   84   85 1    
   166   84  205 1    
   167   85   86 1    
   168   85   87 1    
   169   85  206 1    
   170   86  207 1    
   171   86  208 1    
   172   86  209 1    
   173   87   88 2    
   174   87   89 am   BACKBONE|DICT|INTERRES
   175   89   90 1    
   176   89  210 1    
   177   90   91 1    
   178   90   92 1    
   179   90  211 1    
   180   91  212 1    
   181   91  213 1    
   182   91  214 1    
   183   92   93 2    
   184   92   94 am   BACKBONE|DICT|INTERRES
   185   94   95 1    
   186   94  215 1    
   187   95   96 1    
   188   95   97 1    
   189   95  216 1    
   190   96  217 1    
   191   96  218 1    
   192   96  219 1    
   193   97   98 2    
   194   97   99 am   BACKBONE|DICT|INTERRES
   195   99  100 1    
   196   99  220 1    
   197  100  101 1    
   198  100  102 1    
   199  100  221 1    
   200  101  222 1    
   201  101  223 1    
   202  101  224 1    
   203  102  103 2    
   204  102  104 am   BACKBONE|DICT|INTERRES
   205  104  105 1    
   206  104  225 1    
   207  105  106 1    
   208  105  107 1    
   209  105  226 1    
   210  106  227 1    
   211  106  228 1    
   212  106  229 1    
   213  107  108 2    
   214  107  109 am   BACKBONE|DICT|INTERRES
   215  109  110 1    
   216  109  230 1    
   217  110  111 1    
   218  110  112 1    
   219  110  231 1    
   220  111  232 1    
   221  111  233 1    
   222  111  234 1    
   223  112  113 2    
   224  112  114 am   BACKBONE|DICT|INTERRES
   225  114  115 1    
   226  114  235 1    
   227  115  116 1    
   228  115  117 1    
   229  115  236 1    
   230  116  237 1    
   231  116  238 1    
   232  116  239 1    
   233  117  118 2    
   234  117  119 am   BACKBONE|DICT|INTERRES
   235  119  120 1    
   236  119  240 1    
   237  120  121 1    
   238  120  124 1    
   239  120  241 1    
   240  121  122 am   BACKBONE|DICT|INTERRES
   241  121  123 2    
   242  122  242 1    
   243  122  243 1    
   244  124  125 1    
   245  124  244 1    
   246  124  245 1    
   247  125  126 1    
   248  126  246 1    
   249  126  247 1    
@<TRIPOS>SUBSTRUCTURE
     1 UNK         1 GROUP             0       ****    0 ROOT    
