@<TRIPOS>MOLECULE
3R540
247   249    1
SMALL
USER_CHARGES


@<TRIPOS>ATOM
      1 CA         -0.8863  -18.4567  -45.4315 C.3       0 UNK        -0.1800 
      2 C          -1.2766  -17.2191  -46.2224 C.2       0 UNK         0.5000 
      3 O          -2.4616  -16.9903  -46.4623 O.2       0 UNK        -0.5000 
      4 N          -0.2822  -16.4264  -46.6319 N.am      1 UNK        -0.5000 
      5 CA         -0.4561  -15.1446  -47.3131 C.3       1 UNK         0.1400 
      6 C6          0.8109  -14.7218  -48.0989 C.3       23 UNK        -0.0398 
      7 S7          1.4688  -15.9726  -49.2645 S.3       23 UNK        -0.2404 
      8 C8         -0.0199  -16.6229  -50.0906 C.3       23 UNK        -0.0205 
      9 C9          0.3192  -17.7669  -51.0325 C.ar      23 UNK        -0.0193 
     10 C10         0.9155  -17.5052  -52.2679 C.ar      23 UNK        -0.1150 
     11 C11         1.2024  -18.5411  -53.1615 C.ar      23 UNK        -0.0193 
     12 C12         0.8853  -19.8572  -52.7941 C.ar      23 UNK        -0.1150 
     13 C13         0.2949  -20.1387  -51.5574 C.ar      23 UNK        -0.0193 
     14 C14         0.0097  -19.0845  -50.6838 C.ar      23 UNK        -0.1150 
     15 C15        -0.0658  -21.5785  -51.2006 C.3       23 UNK        -0.0205 
     16 S16         0.6871  -22.1425  -49.6350 S.3       23 UNK        -0.2404 
     17 C17        -0.6078  -21.7265  -48.4184 C.3       23 UNK        -0.0398 
     18 CA         -0.8442  -22.8641  -47.3968 C.3       11 UNK         0.1400 
     19 N           0.3051  -23.0786  -46.5152 N.am      11 UNK        -0.5000 
     20 C           0.4761  -24.1554  -45.7344 C.2       10 UNK         0.5000 
     21 O          -0.3235  -25.0895  -45.6914 O.2       10 UNK        -0.5000 
     22 CA          1.7103  -24.1818  -44.8094 C.3       10 UNK         0.1400 
     23 CB          2.8647  -24.9372  -45.4832 C.3       10 UNK        -0.1800 
     24 N           2.1761  -22.8526  -44.4090 N.am      10 UNK        -0.5000 
     25 C           1.4502  -21.9547  -43.7283 C.2       9 UNK         0.5000 
     26 O           0.3208  -22.1853  -43.2940 O.2       9 UNK        -0.5000 
     27 CA          2.0537  -20.5431  -43.5689 C.3       9 UNK         0.1400 
     28 CB          2.7565  -20.4033  -42.2113 C.3       9 UNK        -0.1800 
     29 N           2.9775  -20.1302  -44.6366 N.am      9 UNK        -0.5000 
     30 C           2.6937  -20.1124  -45.9482 C.2       8 UNK         0.5000 
     31 O           1.6465  -20.5568  -46.4146 O.2       8 UNK        -0.5000 
     32 CA          3.7482  -19.4848  -46.8842 C.3       8 UNK         0.1400 
     33 CB          3.2177  -19.2977  -48.3213 C.3       8 UNK        -0.1800 
     34 N           4.2976  -18.2184  -46.3822 N.am      8 UNK        -0.5000 
     35 C           3.6050  -17.1260  -46.0299 C.2       7 UNK         0.5000 
     36 O           2.3732  -17.0566  -46.0036 O.2       7 UNK        -0.5000 
     37 CA          4.4325  -15.8922  -45.6519 C.3       7 UNK         0.1400 
     38 CB          4.9178  -15.1411  -46.9037 C.3       7 UNK        -0.1800 
     39 N           3.5866  -15.0205  -44.8511 N.am      7 UNK        -0.5000 
     40 C           3.9952  -14.1854  -43.8937 C.2       6 UNK         0.5000 
     41 O           5.1791  -13.9665  -43.6332 O.2       6 UNK        -0.5000 
     42 CA          2.8934  -13.4856  -43.0766 C.3       6 UNK         0.1400 
     43 CB          2.6430  -12.0670  -43.6110 C.3       6 UNK        -0.1800 
     44 N           1.6205  -14.2091  -43.0612 N.am      6 UNK        -0.5000 
     45 C           1.3906  -15.3767  -42.4464 C.2       5 UNK         0.5000 
     46 O           2.2590  -16.0318  -41.8672 O.2       5 UNK        -0.5000 
     47 CA         -0.0840  -15.8323  -42.4373 C.3       5 UNK         0.1400 
     48 CB         -0.2990  -17.2043  -41.7654 C.3       5 UNK        -0.1800 
     49 N          -0.9476  -14.8051  -41.8383 N.am      5 UNK        -0.5000 
     50 C          -0.8397  -14.2754  -40.6059 C.2       4 UNK         0.5000 
     51 O          -0.0657  -14.6949  -39.7447 O.2       4 UNK        -0.5000 
     52 CA         -1.7049  -13.0424  -40.2707 C.3       4 UNK         0.1400 
     53 CB         -0.8260  -11.7820  -40.2112 C.3       4 UNK        -0.1800 
     54 N          -2.7823  -12.8039  -41.2283 N.am      4 UNK        -0.5000 
     55 C          -3.9463  -13.4649  -41.2594 C.2       3 UNK         0.5000 
     56 O          -4.2733  -14.3160  -40.4317 O.2       3 UNK        -0.5000 
     57 CA         -4.8966  -13.1298  -42.4282 C.3       3 UNK         0.1400 
     58 CB         -5.9645  -12.1204  -41.9794 C.3       3 UNK        -0.1800 
     59 N          -4.2185  -12.6087  -43.6233 N.am      3 UNK        -0.5000 
     60 C          -3.3117  -13.2837  -44.3429 C.2       2 UNK         0.5000 
     61 O          -2.9283  -14.4160  -44.0422 O.2       2 UNK        -0.5000 
     62 CA         -2.7433  -12.5538  -45.5785 C.3       2 UNK         0.1400 
     63 CB         -1.8751  -11.3440  -45.1707 C.3       2 UNK        -0.1800 
     64 N          -2.0231  -13.4546  -46.4885 N.am      2 UNK        -0.5000 
     65 C          -0.8562  -14.0802  -46.2747 C.2       1 UNK         0.5000 
     66 O          -0.1157  -13.8704  -45.3102 O.2       1 UNK        -0.5000 
     67 C          -2.1495  -22.6209  -46.6135 C.2       11 UNK         0.5000 
     68 O          -3.2165  -22.9183  -47.1493 O.2       11 UNK        -0.5000 
     69 N          -2.0681  -22.1134  -45.3743 N.am      12 UNK        -0.5000 
     70 CA         -3.2292  -21.9830  -44.4911 C.3       12 UNK         0.1400 
     71 CB         -2.9548  -20.9450  -43.3932 C.3       12 UNK        -0.1800 
     72 C          -3.6231  -23.3371  -43.8784 C.2       12 UNK         0.5000 
     73 O          -4.8135  -23.6329  -43.7785 O.2       12 UNK        -0.5000 
     74 N          -2.6181  -24.1457  -43.5118 N.am      13 UNK        -0.5000 
     75 CA         -2.7918  -25.4899  -42.9584 C.3       13 UNK         0.1400 
     76 CB         -1.4559  -25.9804  -42.3788 C.3       13 UNK        -0.1800 
     77 C          -3.3423  -26.4867  -43.9951 C.2       13 UNK         0.5000 
     78 O          -4.2471  -27.2596  -43.6788 O.2       13 UNK        -0.5000 
     79 N          -2.8038  -26.4307  -45.2205 N.am      14 UNK        -0.5000 
     80 CA         -3.2269  -27.2510  -46.3576 C.3       14 UNK         0.1400 
     81 CB         -2.0872  -27.2797  -47.3892 C.3       14 UNK        -0.1800 
     82 C          -4.5264  -26.7555  -47.0236 C.2       14 UNK         0.5000 
     83 O          -5.1095  -27.4938  -47.8175 O.2       14 UNK        -0.5000 
     84 N          -4.9250  -25.5083  -46.7279 N.am      15 UNK        -0.5000 
     85 CA         -6.0249  -24.7431  -47.3330 C.3       15 UNK         0.1400 
     86 CB         -7.3876  -25.4253  -47.0967 C.3       15 UNK        -0.1800 
     87 C          -5.7843  -24.3857  -48.8179 C.2       15 UNK         0.5000 
     88 O          -6.7190  -24.0001  -49.5215 O.2       15 UNK        -0.5000 
     89 N          -4.5216  -24.4740  -49.2576 N.am      16 UNK        -0.5000 
     90 CA         -4.0454  -24.1063  -50.5892 C.3       16 UNK         0.1400 
     91 CB         -2.6321  -24.6742  -50.7879 C.3       16 UNK        -0.1800 
     92 C          -4.0505  -22.5867  -50.8331 C.2       16 UNK         0.5000 
     93 O          -4.0522  -22.1690  -51.9894 O.2       16 UNK        -0.5000 
     94 N          -4.0779  -21.7840  -49.7568 N.am      17 UNK        -0.5000 
     95 CA         -4.1330  -20.3177  -49.7879 C.3       17 UNK         0.1400 
     96 CB         -4.0773  -19.7762  -48.3506 C.3       17 UNK        -0.1800 
     97 C          -5.3625  -19.7543  -50.5299 C.2       17 UNK         0.5000 
     98 O          -5.2838  -18.6650  -51.0964 O.2       17 UNK        -0.5000 
     99 N          -6.4586  -20.5253  -50.5571 N.am      18 UNK        -0.5000 
    100 CA        -7.6759  -20.2282  -51.3139 C.3       18 UNK         0.1400 
    101 CB        -8.7983  -21.1505  -50.8132 C.3       18 UNK        -0.1800 
    102 C         -7.5064  -20.3674  -52.8429 C.2       18 UNK         0.5000 
    103 O         -8.3393  -19.8471  -53.5860 O.2       18 UNK        -0.5000 
    104 N         -6.4501  -21.0624  -53.2853 N.am      19 UNK        -0.5000 
    105 CA        -6.1218  -21.3284  -54.6860 C.3       19 UNK         0.1400 
    106 CB        -6.1925  -22.8486  -54.9183 C.3       19 UNK        -0.1800 
    107 C         -4.7389  -20.7577  -55.0626 C.2       19 UNK         0.5000 
    108 O         -4.1663  -21.1728  -56.0721 O.2       19 UNK        -0.5000 
    109 N         -4.2138  -19.8315  -54.2475 N.am      20 UNK        -0.5000 
    110 CA        -2.9194  -19.1787  -54.4362 C.3       20 UNK         0.1400 
    111 CB        -2.6138  -18.3195  -53.2020 C.3       20 UNK        -0.1800 
    112 C         -2.8757  -18.3136  -55.7094 C.2       20 UNK         0.5000 
    113 O         -3.8369  -17.5942  -55.9935 O.2       20 UNK        -0.5000 
    114 N         -1.7479  -18.3737  -56.4244 N.am      21 UNK        -0.5000 
    115 CA        -1.4621  -17.5763  -57.6151 C.3       21 UNK         0.1400 
    116 CB        -2.2666  -18.0751  -58.8321 C.3       21 UNK        -0.1800 
    117 C          0.0458  -17.6034  -57.8889 C.2       21 UNK         0.5000 
    118 O          0.6757  -16.5468  -57.9314 O.2       21 UNK        -0.5000 
    119 N          0.5960  -18.8188  -58.0276 N.am      22 UNK        -0.5000 
    120 CA         2.0267  -19.1090  -58.2550 C.3       22 UNK         0.1400 
    121 C          2.5923  -18.6054  -59.6208 C.2       22 UNK         0.5000 
    122 N          1.7599  -18.3097  -60.6118 N.am      22 UNK        -0.7600 
    123 O          3.8033  -18.5105  -59.8034 O.2       22 UNK        -0.5000 
    124 C124        2.9296  -18.7149  -57.0502 C.3       23 UNK        -0.0398 
    125 S125        2.4491  -19.5659  -55.5079 S.3       23 UNK        -0.2404 
    126 C126        1.8159  -18.1714  -54.5140 C.3       23 UNK        -0.0205 
    127 H127       -1.2959  -19.3520  -45.8980 H         1 UNK         0.0600 
    128 H128       -1.2697  -18.3821  -44.4153 H         1 UNK         0.0600 
    129 H129        0.1951  -18.5652  -45.3740 H         1 UNK         0.0600 
    130 H130        0.6823  -16.6772  -46.4158 H         1 UNK         0.3000 
    131 H131       -1.2776  -15.2385  -48.0251 H         1 UNK         0.0600 
    132 H132        0.6120  -13.8100  -48.6642 H         1 UNK         0.0800 
    133 H133        1.6180  -14.4759  -47.4064 H         1 UNK         0.0800 
    134 H134       -0.5096  -15.8212  -50.6450 H         1 UNK         0.0800 
    135 H135       -0.7373  -16.9765  -49.3508 H         1 UNK         0.0800 
    136 H136        1.1459  -16.4840  -52.5382 H         1 UNK         0.1150 
    137 H137        1.0830  -20.6748  -53.4707 H         1 UNK         0.1150 
    138 H138       -0.4595  -19.2853  -49.7329 H         1 UNK         0.1150 
    139 H139       -1.1501  -21.6845  -51.1751 H         1 UNK         0.0800 
    140 H140        0.2754  -22.2540  -51.9863 H         1 UNK         0.0800 
    141 H141       -1.5257  -21.5151  -48.9625 H         1 UNK         0.0800 
    142 H142       -0.3448  -20.7961  -47.9160 H         1 UNK         0.0800 
    143 H143       -0.9957  -23.7888  -47.9565 H         1 UNK         0.0600 
    144 H144        0.9755  -22.3145  -46.4751 H         1 UNK         0.3000 
    145 H145        1.4284  -24.7218  -43.9033 H         1 UNK         0.0600 
    146 H146        3.7165  -25.0391  -44.8105 H         1 UNK         0.0600 
    147 H147        2.5573  -25.9435  -45.7712 H         1 UNK         0.0600 
    148 H148        3.2061  -24.4274  -46.3852 H         1 UNK         0.0600 
    149 H149        3.0863  -22.5715  -44.7418 H         1 UNK         0.3000 
    150 H150        1.2166  -19.8438  -43.5850 H         1 UNK         0.0600 
    151 H151        3.6399  -21.0397  -42.1485 H         1 UNK         0.0600 
    152 H152        2.0897  -20.6836  -41.3946 H         1 UNK         0.0600 
    153 H153        3.0678  -19.3735  -42.0332 H         1 UNK         0.0600 
    154 H154        3.8606  -19.7429  -44.3381 H         1 UNK         0.3000 
    155 H155        4.5791  -20.1899  -46.9275 H         1 UNK         0.0600 
    156 H156        2.3188  -18.6809  -48.3407 H         1 UNK         0.0600 
    157 H157        2.9607  -20.2567  -48.7717 H         1 UNK         0.0600 
    158 H158        3.9610  -18.8266  -48.9641 H         1 UNK         0.0600 
    159 H159        5.3065  -18.1713  -46.3510 H         1 UNK         0.3000 
    160 H160        5.2896  -16.2178  -45.0586 H         1 UNK         0.0600 
    161 H161        4.0834  -14.8166  -47.5263 H         1 UNK         0.0600 
    162 H162        5.5576  -15.7753  -47.5183 H         1 UNK         0.0600 
    163 H163        5.4979  -14.2582  -46.6350 H         1 UNK         0.0600 
    164 H164        2.5944  -15.1852  -44.9671 H         1 UNK         0.3000 
    165 H165        3.2482  -13.4077  -42.0469 H         1 UNK         0.0600 
    166 H166        1.9241  -11.5327  -42.9894 H         1 UNK         0.0600 
    167 H167        3.5638  -11.4824  -43.6189 H         1 UNK         0.0600 
    168 H168        2.2554  -12.0860  -44.6307 H         1 UNK         0.0600 
    169 H169        0.8659  -13.8031  -43.6073 H         1 UNK         0.3000 
    170 H170       -0.3896  -15.9270  -43.4800 H         1 UNK         0.0600 
    171 H171        0.2882  -17.9756  -42.2641 H         1 UNK         0.0600 
    172 H172       -0.0029  -17.1980  -40.7163 H         1 UNK         0.0600 
    173 H173       -1.3448  -17.5071  -41.8174 H         1 UNK         0.0600 
    174 H174       -1.6419  -14.4194  -42.4698 H         1 UNK         0.3000 
    175 H175       -2.1401  -13.2035  -39.2821 H         1 UNK         0.0600 
    176 H176       -0.0285  -11.8943  -39.4754 H         1 UNK         0.0600 
    177 H177       -0.3562  -11.5733  -41.1735 H         1 UNK         0.0600 
    178 H178       -1.4088  -10.9067  -39.9238 H         1 UNK         0.0600 
    179 H179       -2.6071  -12.1160  -41.9454 H         1 UNK         0.3000 
    180 H180       -5.4001  -14.0568  -42.7108 H         1 UNK         0.0600 
    181 H181       -5.5223  -11.1604  -41.7098 H         1 UNK         0.0600 
    182 H182       -6.5081  -12.4876  -41.1078 H         1 UNK         0.0600 
    183 H183       -6.6980  -11.9445  -42.7665 H         1 UNK         0.0600 
    184 H184       -4.4888  -11.6820  -43.9208 H         1 UNK         0.3000 
    185 H185       -3.5958  -12.1793  -46.1472 H         1 UNK         0.0600 
    186 H186       -2.4757  -10.5797  -44.6767 H         1 UNK         0.0600 
    187 H187       -1.0788  -11.6217  -44.4797 H         1 UNK         0.0600 
    188 H188       -1.4149  -10.8770  -46.0415 H         1 UNK         0.0600 
    189 H189       -2.5569  -13.7367  -47.2984 H         1 UNK         0.3000 
    190 H190       -1.1595  -21.9212  -44.9719 H         1 UNK         0.3000 
    191 H191       -4.0799  -21.6248  -45.0757 H         1 UNK         0.0600 
    192 H192       -2.8257  -19.9521  -43.8191 H         1 UNK         0.0600 
    193 H193       -3.7919  -20.8848  -42.6966 H         1 UNK         0.0600 
    194 H194       -2.0647  -21.1859  -42.8125 H         1 UNK         0.0600 
    195 H195       -1.6689  -23.8203  -43.6297 H         1 UNK         0.3000 
    196 H196       -3.5126  -25.4275  -42.1403 H         1 UNK         0.0600 
    197 H197       -1.5685  -26.9639  -41.9209 H         1 UNK         0.0600 
    198 H198       -1.0880  -25.3031  -41.6078 H         1 UNK         0.0600 
    199 H199       -0.6863  -26.0634  -43.1465 H         1 UNK         0.0600 
    200 H200       -2.0079  -25.8160  -45.3778 H         1 UNK         0.3000 
    201 H201       -3.4012  -28.2715  -46.0104 H         1 UNK         0.0600 
    202 H202       -2.3402  -27.9161  -48.2382 H         1 UNK         0.0600 
    203 H203       -1.1695  -27.6730  -46.9514 H         1 UNK         0.0600 
    204 H204       -1.8707  -26.2839  -47.7781 H         1 UNK         0.0600 
    205 H205       -4.3633  -24.9915  -46.0655 H         1 UNK         0.3000 
    206 H206       -6.0427  -23.7904  -46.8016 H         1 UNK         0.0600 
    207 H207       -7.5290  -25.6681  -46.0435 H         1 UNK         0.0600 
    208 H208       -8.2079  -24.7693  -47.3902 H         1 UNK         0.0600 
    209 H209       -7.4882  -26.3459  -47.6716 H         1 UNK         0.0600 
    210 H210       -3.8186  -24.7272  -48.5793 H         1 UNK         0.3000 
    211 H211       -4.7088  -24.5616  -51.3274 H         1 UNK         0.0600 
    212 H212       -1.9194  -24.2394  -50.0876 H         1 UNK         0.0600 
    213 H213       -2.2668  -24.4668  -51.7946 H         1 UNK         0.0600 
    214 H214       -2.6180  -25.7562  -50.6543 H         1 UNK         0.0600 
    215 H215       -4.0473  -22.2174  -48.8395 H         1 UNK         0.3000 
    216 H216       -3.2456  -19.9671  -50.3172 H         1 UNK         0.0600 
    217 H217       -4.1506  -18.6877  -48.3378 H         1 UNK         0.0600 
    218 H218       -3.1395  -20.0347  -47.8609 H         1 UNK         0.0600 
    219 H219       -4.8926  -20.1680  -47.7411 H         1 UNK         0.0600 
    220 H220       -6.4328  -21.4155  -50.0789 H         1 UNK         0.3000 
    221 H221       -7.9636  -19.1949  -51.1090 H         1 UNK         0.0600 
    222 H222       -8.5582  -22.2016  -50.9801 H         1 UNK         0.0600 
    223 H223       -8.9764  -21.0128  -49.7465 H         1 UNK         0.0600 
    224 H224       -9.7370  -20.9417  -51.3279 H         1 UNK         0.0600 
    225 H225       -5.7815  -21.4297  -52.6151 H         1 UNK         0.3000 
    226 H226       -6.8449  -20.8483  -55.3479 H         1 UNK         0.0600 
    227 H227       -6.0142  -23.0982  -55.9649 H         1 UNK         0.0600 
    228 H228       -5.4496  -23.3786  -54.3207 H         1 UNK         0.0600 
    229 H229       -7.1751  -23.2413  -54.6564 H         1 UNK         0.0600 
    230 H230       -4.7586  -19.5284  -53.4531 H         1 UNK         0.3000 
    231 H231       -2.1581  -19.9583  -54.5108 H         1 UNK         0.0600 
    232 H232       -3.4042  -17.5929  -53.0099 H         1 UNK         0.0600 
    233 H233       -1.6862  -17.7631  -53.3327 H         1 UNK         0.0600 
    234 H234       -2.5002  -18.9372  -52.3124 H         1 UNK         0.0600 
    235 H235       -0.9887  -18.9557  -56.0979 H         1 UNK         0.3000 
    236 H236       -1.7407  -16.5393  -57.4147 H         1 UNK         0.0600 
    237 H237       -3.3373  -17.9336  -58.6853 H         1 UNK         0.0600 
    238 H238       -1.9919  -17.5260  -59.7336 H         1 UNK         0.0600 
    239 H239       -2.0967  -19.1347  -59.0252 H         1 UNK         0.0600 
    240 H240       -0.0080  -19.6278  -58.0098 H         1 UNK         0.3000 
    241 H241        2.0818  -20.1948  -58.3411 H         1 UNK         0.0600 
    242 H242        2.1317  -17.9956  -61.4947 H         1 UNK         0.3800 
    243 H243        0.7639  -18.3956  -60.4895 H         1 UNK         0.3800 
    244 H244        3.9675  -18.9886  -57.2461 H         1 UNK         0.0800 
    245 H245        2.9297  -17.6342  -56.9031 H         1 UNK         0.0800 
    246 H246        2.6373  -17.4721  -54.3503 H         1 UNK         0.0800 
    247 H247        1.0633  -17.6361  -55.0929 H         1 UNK         0.0800 
@<TRIPOS>BOND
     1    1    2 1    
     2    1  127 1    
     3    1  128 1    
     4    1  129 1    
     5    2    3 2    
     6    2    4 am   BACKBONE|DICT|INTERRES
     7    4    5 1    
     8    4  130 1    
     9    5    6 1    
    10    5   65 1    
    11    5  131 1    
    12    6    7 1    
    13    6  132 1    
    14    6  133 1    
    15    7    8 1    
    16    8    9 1    
    17    8  134 1    
    18    8  135 1    
    19    9   10 ar   
    20    9   14 ar   
    21   10   11 ar   
    22   10  136 1    
    23   11   12 ar   
    24   11  126 1    
    25   12   13 ar   
    26   12  137 1    
    27   13   14 ar   
    28   13   15 1    
    29   14  138 1    
    30   15   16 1    
    31   15  139 1    
    32   15  140 1    
    33   16   17 1    
    34   17   18 1    
    35   17  141 1    
    36   17  142 1    
    37   18   19 1    
    38   18   67 1    
    39   18  143 1    
    40   19   20 am   BACKBONE|DICT|INTERRES
    41   19  144 1    
    42   20   21 2    
    43   20   22 1    
    44   22   23 1    
    45   22   24 1    
    46   22  145 1    
    47   23  146 1    
    48   23  147 1    
    49   23  148 1    
    50   24   25 am   BACKBONE|DICT|INTERRES
    51   24  149 1    
    52   25   26 2    
    53   25   27 1    
    54   27   28 1    
    55   27   29 1    
    56   27  150 1    
    57   28  151 1    
    58   28  152 1    
    59   28  153 1    
    60   29   30 am   BACKBONE|DICT|INTERRES
    61   29  154 1    
    62   30   31 2    
    63   30   32 1    
    64   32   33 1    
    65   32   34 1    
    66   32  155 1    
    67   33  156 1    
    68   33  157 1    
    69   33  158 1    
    70   34   35 am   BACKBONE|DICT|INTERRES
    71   34  159 1    
    72   35   36 2    
    73   35   37 1    
    74   37   38 1    
    75   37   39 1    
    76   37  160 1    
    77   38  161 1    
    78   38  162 1    
    79   38  163 1    
    80   39   40 am   BACKBONE|DICT|INTERRES
    81   39  164 1    
    82   40   41 2    
    83   40   42 1    
    84   42   43 1    
    85   42   44 1    
    86   42  165 1    
    87   43  166 1    
    88   43  167 1    
    89   43  168 1    
    90   44   45 am   BACKBONE|DICT|INTERRES
    91   44  169 1    
    92   45   46 2    
    93   45   47 1    
    94   47   48 1    
    95   47   49 1    
    96   47  170 1    
    97   48  171 1    
    98   48  172 1    
    99   48  173 1    
   100   49   50 am   BACKBONE|DICT|INTERRES
   101   49  174 1    
   102   50   51 2    
   103   50   52 1    
   104   52   53 1    
   105   52   54 1    
   106   52  175 1    
   107   53  176 1    
   108   53  177 1    
   109   53  178 1    
   110   54   55 am   BACKBONE|DICT|INTERRES
   111   54  179 1    
   112   55   56 2    
   113   55   57 1    
   114   57   58 1    
   115   57   59 1    
   116   57  180 1    
   117   58  181 1    
   118   58  182 1    
   119   58  183 1    
   120   59   60 am   BACKBONE|DICT|INTERRES
   121   59  184 1    
   122   60   61 2    
   123   60   62 1    
   124   62   63 1    
   125   62   64 1    
   126   62  185 1    
   127   63  186 1    
   128   63  187 1    
   129   63  188 1    
   130   64   65 am   BACKBONE|DICT|INTERRES
   131   64  189 1    
   132   65   66 2    
   133   67   68 2    
   134   67   69 am   BACKBONE|DICT|INTERRES
   135   69   70 1    
   136   69  190 1    
   137   70   71 1    
   138   70   72 1    
   139   70  191 1    
   140   71  192 1    
   141   71  193 1    
   142   71  194 1    
   143   72   73 2    
   144   72   74 am   BACKBONE|DICT|INTERRES
   145   74   75 1    
   146   74  195 1    
   147   75   76 1    
   148   75   77 1    
   149   75  196 1    
   150   76  197 1    
   151   76  198 1    
   152   76  199 1    
   153   77   78 2    
   154   77   79 am   BACKBONE|DICT|INTERRES
   155   79   80 1    
   156   79  200 1    
   157   80   81 1    
   158   80   82 1    
   159   80  201 1    
   160   81  202 1    
   161   81  203 1    
   162   81  204 1    
   163   82   83 2    
   164   82   84 am   BACKBONE|DICT|INTERRES
   165   84   85 1    
   166   84  205 1    
   167   85   86 1    
   168   85   87 1    
   169   85  206 1    
   170   86  207 1    
   171   86  208 1    
   172   86  209 1    
   173   87   88 2    
   174   87   89 am   BACKBONE|DICT|INTERRES
   175   89   90 1    
   176   89  210 1    
   177   90   91 1    
   178   90   92 1    
   179   90  211 1    
   180   91  212 1    
   181   91  213 1    
   182   91  214 1    
   183   92   93 2    
   184   92   94 am   BACKBONE|DICT|INTERRES
   185   94   95 1    
   186   94  215 1    
   187   95   96 1    
   188   95   97 1    
   189   95  216 1    
   190   96  217 1    
   191   96  218 1    
   192   96  219 1    
   193   97   98 2    
   194   97   99 am   BACKBONE|DICT|INTERRES
   195   99  100 1    
   196   99  220 1    
   197  100  101 1    
   198  100  102 1    
   199  100  221 1    
   200  101  222 1    
   201  101  223 1    
   202  101  224 1    
   203  102  103 2    
   204  102  104 am   BACKBONE|DICT|INTERRES
   205  104  105 1    
   206  104  225 1    
   207  105  106 1    
   208  105  107 1    
   209  105  226 1    
   210  106  227 1    
   211  106  228 1    
   212  106  229 1    
   213  107  108 2    
   214  107  109 am   BACKBONE|DICT|INTERRES
   215  109  110 1    
   216  109  230 1    
   217  110  111 1    
   218  110  112 1    
   219  110  231 1    
   220  111  232 1    
   221  111  233 1    
   222  111  234 1    
   223  112  113 2    
   224  112  114 am   BACKBONE|DICT|INTERRES
   225  114  115 1    
   226  114  235 1    
   227  115  116 1    
   228  115  117 1    
   229  115  236 1    
   230  116  237 1    
   231  116  238 1    
   232  116  239 1    
   233  117  118 2    
   234  117  119 am   BACKBONE|DICT|INTERRES
   235  119  120 1    
   236  119  240 1    
   237  120  121 1    
   238  120  124 1    
   239  120  241 1    
   240  121  122 am   BACKBONE|DICT|INTERRES
   241  121  123 2    
   242  122  242 1    
   243  122  243 1    
   244  124  125 1    
   245  124  244 1    
   246  124  245 1    
   247  125  126 1    
   248  126  246 1    
   249  126  247 1    
@<TRIPOS>SUBSTRUCTURE
     1 UNK         1 GROUP             0       ****    0 ROOT    
