@<TRIPOS>MOLECULE
3R540
247   249    1
SMALL
USER_CHARGES


@<TRIPOS>ATOM
      1 CA          2.2667  -11.5489  -48.9101 C.3       0 UNK        -0.1800 
      2 C           1.3387  -12.6335  -48.3834 C.2       0 UNK         0.5000 
      3 O           0.3833  -12.3309  -47.6710 O.2       0 UNK        -0.5000 
      4 N           1.6025  -13.8957  -48.7440 N.am      1 UNK        -0.5000 
      5 CA          0.8543  -15.0823  -48.3024 C.3       1 UNK         0.1400 
      6 C6          1.5669  -16.3886  -48.7225 C.3       23 UNK        -0.0398 
      7 S7          3.1435  -16.6210  -47.8286 S.3       23 UNK        -0.2404 
      8 C8          4.3360  -16.9011  -49.1711 C.3       23 UNK        -0.0205 
      9 C9          3.9686  -18.0940  -50.0425 C.ar      23 UNK        -0.0193 
     10 C10         3.6635  -17.8965  -51.3905 C.ar      23 UNK        -0.1150 
     11 C11         3.3524  -18.9775  -52.2233 C.ar      23 UNK        -0.0193 
     12 C12         3.3643  -20.2678  -51.6857 C.ar      23 UNK        -0.1150 
     13 C13         3.6697  -20.4849  -50.3370 C.ar      23 UNK        -0.0193 
     14 C14         3.9673  -19.3906  -49.5190 C.ar      23 UNK        -0.1150 
     15 C15         3.7484  -21.9025  -49.7809 C.3       23 UNK        -0.0205 
     16 S16         2.2609  -22.8936  -50.1317 S.3       23 UNK        -0.2404 
     17 C17         1.0551  -22.2161  -48.9455 C.3       23 UNK        -0.0398 
     18 CA          0.4864  -23.3250  -48.0307 C.3       11 UNK         0.1400 
     19 N           1.5163  -23.8847  -47.1520 N.am      11 UNK        -0.5000 
     20 C           1.3672  -24.9715  -46.3854 C.2       10 UNK         0.5000 
     21 O           0.3605  -25.6783  -46.4108 O.2       10 UNK        -0.5000 
     22 CA          2.4956  -25.2937  -45.3826 C.3       10 UNK         0.1400 
     23 CB          3.3136  -26.4971  -45.8739 C.3       10 UNK        -0.1800 
     24 N           3.4137  -24.1838  -45.0864 N.am      10 UNK        -0.5000 
     25 C           3.0779  -22.9776  -44.6068 C.2       9 UNK         0.5000 
     26 O           1.9128  -22.6192  -44.4075 O.2       9 UNK        -0.5000 
     27 CA          4.2354  -21.9954  -44.3677 C.3       9 UNK         0.1400 
     28 CB          4.9229  -21.6192  -45.6962 C.3       9 UNK        -0.1800 
     29 N           3.7096  -20.7910  -43.7362 N.am      9 UNK        -0.5000 
     30 C           4.4144  -19.8625  -43.0792 C.2       8 UNK         0.5000 
     31 O           5.6212  -19.9617  -42.8505 O.2       8 UNK        -0.5000 
     32 CA          3.6409  -18.5927  -42.6647 C.3       8 UNK         0.1400 
     33 CB          4.5686  -17.4430  -42.2312 C.3       8 UNK        -0.1800 
     34 N           2.8270  -18.1442  -43.7956 N.am      8 UNK        -0.5000 
     35 C           1.5070  -18.3184  -43.9113 C.2       7 UNK         0.5000 
     36 O           0.7851  -18.7281  -43.0011 O.2       7 UNK        -0.5000 
     37 CA          0.9398  -18.0882  -45.3230 C.3       7 UNK         0.1400 
     38 CB          1.3255  -19.2673  -46.2370 C.3       7 UNK        -0.1800 
     39 N          -0.5121  -17.9416  -45.3432 N.am      7 UNK        -0.5000 
     40 C          -1.1826  -16.8524  -44.9486 C.2       6 UNK         0.5000 
     41 O          -0.6327  -15.8235  -44.5474 O.2       6 UNK        -0.5000 
     42 CA         -2.7221  -16.9105  -45.0806 C.3       6 UNK         0.1400 
     43 CB         -3.2985  -18.3456  -45.0319 C.3       6 UNK        -0.1800 
     44 N          -3.4202  -16.0495  -44.1222 N.am      6 UNK        -0.5000 
     45 C          -3.4047  -16.1338  -42.7826 C.2       5 UNK         0.5000 
     46 O          -2.7603  -16.9777  -42.1584 O.2       5 UNK        -0.5000 
     47 CA         -4.3138  -15.1594  -41.9982 C.3       5 UNK         0.1400 
     48 CB         -3.5938  -14.5187  -40.7924 C.3       5 UNK        -0.1800 
     49 N          -4.9918  -14.1568  -42.8340 N.am      5 UNK        -0.5000 
     50 C          -4.4555  -13.0852  -43.4336 C.2       4 UNK         0.5000 
     51 O          -3.2888  -12.7140  -43.2905 O.2       4 UNK        -0.5000 
     52 CA         -5.4022  -12.3004  -44.3647 C.3       4 UNK         0.1400 
     53 CB         -6.0613  -11.1382  -43.6062 C.3       4 UNK        -0.1800 
     54 N          -4.7217  -11.7710  -45.5485 N.am      4 UNK        -0.5000 
     55 C          -4.0517  -12.4999  -46.4522 C.2       3 UNK         0.5000 
     56 O          -3.9865  -13.7325  -46.4172 O.2       3 UNK        -0.5000 
     57 CA         -3.3409  -11.6966  -47.5639 C.3       3 UNK         0.1400 
     58 CB         -2.3386  -10.6908  -46.9696 C.3       3 UNK        -0.1800 
     59 N          -2.6315  -12.5549  -48.5137 N.am      3 UNK        -0.5000 
     60 C          -3.2162  -13.2865  -49.4738 C.2       2 UNK         0.5000 
     61 O          -4.4250  -13.2502  -49.7100 O.2       2 UNK        -0.5000 
     62 CA         -2.3150  -14.1999  -50.3335 C.3       2 UNK         0.1400 
     63 CB         -2.2399  -13.6950  -51.7821 C.3       2 UNK        -0.1800 
     64 N          -0.9531  -14.3449  -49.8171 N.am      2 UNK        -0.5000 
     65 C          -0.6210  -15.1008  -48.7625 C.2       1 UNK         0.5000 
     66 O          -1.4318  -15.7860  -48.1426 O.2       1 UNK        -0.5000 
     67 C          -0.7618  -22.8311  -47.2617 C.2       11 UNK         0.5000 
     68 O          -1.8447  -22.7936  -47.8479 O.2       11 UNK        -0.5000 
     69 N          -0.6074  -22.4896  -45.9712 N.am      12 UNK        -0.5000 
     70 CA         -1.7175  -22.1955  -45.0637 C.3       12 UNK         0.1400 
     71 CB         -1.2077  -21.4165  -43.8457 C.3       12 UNK        -0.1800 
     72 C          -2.4364  -23.4758  -44.6092 C.2       12 UNK         0.5000 
     73 O          -3.6655  -23.4950  -44.5566 O.2       12 UNK        -0.5000 
     74 N          -1.6593  -24.5298  -44.3170 N.am      13 UNK        -0.5000 
     75 CA         -2.1558  -25.8466  -43.9057 C.3       13 UNK         0.1400 
     76 CB         -0.9869  -26.7125  -43.4112 C.3       13 UNK        -0.1800 
     77 C          -2.9438  -26.5619  -45.0191 C.2       13 UNK         0.5000 
     78 O          -3.8835  -27.2995  -44.7202 O.2       13 UNK        -0.5000 
     79 N          -2.6028  -26.2737  -46.2826 N.am      14 UNK        -0.5000 
     80 CA         -3.3191  -26.6722  -47.4977 C.3       14 UNK         0.1400 
     81 CB         -2.3639  -26.5109  -48.6947 C.3       14 UNK        -0.1800 
     82 C          -4.6454  -25.8964  -47.6967 C.2       14 UNK         0.5000 
     83 O          -4.9021  -25.3788  -48.7856 O.2       14 UNK        -0.5000 
     84 N          -5.4504  -25.7965  -46.6271 N.am      15 UNK        -0.5000 
     85 CA         -6.7516  -25.1201  -46.5179 C.3       15 UNK         0.1400 
     86 CB         -7.8168  -25.9086  -47.3072 C.3       15 UNK        -0.1800 
     87 C          -6.7263  -23.6242  -46.9090 C.2       15 UNK         0.5000 
     88 O          -7.7532  -23.0822  -47.3201 O.2       15 UNK        -0.5000 
     89 N          -5.5403  -23.0027  -46.8218 N.am      16 UNK        -0.5000 
     90 CA         -5.1676  -21.6732  -47.3191 C.3       16 UNK         0.1400 
     91 CB         -5.9095  -20.5677  -46.5430 C.3       16 UNK        -0.1800 
     92 C          -5.2975  -21.4925  -48.8481 C.2       16 UNK         0.5000 
     93 O          -5.1050  -20.3784  -49.3356 O.2       16 UNK        -0.5000 
     94 N          -5.5973  -22.5677  -49.5905 N.am      17 UNK        -0.5000 
     95 CA         -5.8768  -22.5353  -51.0237 C.3       17 UNK         0.1400 
     96 CB         -6.5095  -23.8666  -51.4559 C.3       17 UNK        -0.1800 
     97 C          -4.6194  -22.2285  -51.8450 C.2       17 UNK         0.5000 
     98 O          -4.6666  -21.3800  -52.7333 O.2       17 UNK        -0.5000 
     99 N          -3.5054  -22.8854  -51.4956 N.am      18 UNK        -0.5000 
    100 CA        -2.1965  -22.6684  -52.1131 C.3       18 UNK         0.1400 
    101 CB        -1.2333  -23.7684  -51.6468 C.3       18 UNK        -0.1800 
    102 C         -1.6231  -21.2712  -51.8115 C.2       18 UNK         0.5000 
    103 O         -0.9409  -20.6978  -52.6603 O.2       18 UNK        -0.5000 
    104 N         -1.9328  -20.7445  -50.6180 N.am      19 UNK        -0.5000 
    105 CA        -1.5607  -19.4005  -50.1854 C.3       19 UNK         0.1400 
    106 CB        -1.7668  -19.2800  -48.6671 C.3       19 UNK        -0.1800 
    107 C         -2.3511  -18.3281  -50.9548 C.2       19 UNK         0.5000 
    108 O         -1.7461  -17.4162  -51.5166 O.2       19 UNK        -0.5000 
    109 N         -3.6816  -18.4888  -51.0101 N.am      20 UNK        -0.5000 
    110 CA        -4.6068  -17.6048  -51.7224 C.3       20 UNK         0.1400 
    111 CB        -6.0500  -18.0062  -51.3832 C.3       20 UNK        -0.1800 
    112 C         -4.3976  -17.5890  -53.2484 C.2       20 UNK         0.5000 
    113 O         -4.5835  -16.5440  -53.8719 O.2       20 UNK        -0.5000 
    114 N         -4.0088  -18.7367  -53.8207 N.am      21 UNK        -0.5000 
    115 CA        -3.7054  -18.8993  -55.2439 C.3       21 UNK         0.1400 
    116 CB        -3.6879  -20.3971  -55.5880 C.3       21 UNK        -0.1800 
    117 C         -2.3842  -18.2379  -55.6834 C.2       21 UNK         0.5000 
    118 O         -2.1810  -18.0639  -56.8864 O.2       21 UNK        -0.5000 
    119 N         -1.5048  -17.9019  -54.7300 N.am      22 UNK        -0.5000 
    120 CA        -0.2287  -17.2219  -54.9830 C.3       22 UNK         0.1400 
    121 C         -0.4134  -15.7709  -55.5179 C.2       22 UNK         0.5000 
    122 N          0.4205  -15.3339  -56.4522 N.am      22 UNK        -0.7600 
    123 O         -1.2849  -15.0275  -55.0745 O.2       22 UNK        -0.5000 
    124 C124        0.6855  -17.2616  -53.7318 C.3       23 UNK        -0.0398 
    125 S125        2.4478  -17.1501  -54.1940 S.3       23 UNK        -0.2404 
    126 C126        3.0709  -18.7992  -53.7157 C.3       23 UNK        -0.0205 
    127 H127        1.7029  -10.8289  -49.5031 H         1 UNK         0.0600 
    128 H128        3.0584  -11.9609  -49.5362 H         1 UNK         0.0600 
    129 H129        2.7313  -11.0182  -48.0791 H         1 UNK         0.0600 
    130 H130        2.4078  -14.0813  -49.3242 H         1 UNK         0.3000 
    131 H131        0.8221  -15.0521  -47.2107 H         1 UNK         0.0600 
    132 H132        1.7322  -16.3982  -49.8007 H         1 UNK         0.0800 
    133 H133        0.9441  -17.2576  -48.5097 H         1 UNK         0.0800 
    134 H134        5.3215  -17.0711  -48.7358 H         1 UNK         0.0800 
    135 H135        4.4188  -15.9905  -49.7662 H         1 UNK         0.0800 
    136 H136        3.6906  -16.8934  -51.7899 H         1 UNK         0.1150 
    137 H137        3.1530  -21.1136  -52.3251 H         1 UNK         0.1150 
    138 H138        4.2197  -19.5435  -48.4792 H         1 UNK         0.1150 
    139 H139        4.6075  -22.3986  -50.2341 H         1 UNK         0.0800 
    140 H140        3.9331  -21.8964  -48.7064 H         1 UNK         0.0800 
    141 H141        0.2653  -21.7502  -49.5304 H         1 UNK         0.0800 
    142 H142        1.5079  -21.4172  -48.3566 H         1 UNK         0.0800 
    143 H143        0.1411  -24.1429  -48.6657 H         1 UNK         0.0600 
    144 H144        2.3811  -23.3714  -47.0838 H         1 UNK         0.3000 
    145 H145        2.0120  -25.5712  -44.4441 H         1 UNK         0.0600 
    146 H146        4.0439  -26.8103  -45.1276 H         1 UNK         0.0600 
    147 H147        2.6691  -27.3546  -46.0732 H         1 UNK         0.0600 
    148 H148        3.8499  -26.2683  -46.7957 H         1 UNK         0.0600 
    149 H149        4.3931  -24.3810  -45.2348 H         1 UNK         0.3000 
    150 H150        4.9532  -22.4718  -43.6971 H         1 UNK         0.0600 
    151 H151        4.2285  -21.1295  -46.3792 H         1 UNK         0.0600 
    152 H152        5.7589  -20.9393  -45.5318 H         1 UNK         0.0600 
    153 H153        5.3243  -22.4963  -46.2047 H         1 UNK         0.0600 
    154 H154        2.7056  -20.6909  -43.8193 H         1 UNK         0.3000 
    155 H155        3.0125  -18.8597  -41.8127 H         1 UNK         0.0600 
    156 H156        5.2551  -17.1558  -43.0285 H         1 UNK         0.0600 
    157 H157        5.1676  -17.7276  -41.3653 H         1 UNK         0.0600 
    158 H158        3.9939  -16.5602  -41.9504 H         1 UNK         0.0600 
    159 H159        3.3457  -17.8345  -44.6058 H         1 UNK         0.3000 
    160 H160        1.3724  -17.1675  -45.7136 H         1 UNK         0.0600 
    161 H161        0.9861  -20.2196  -45.8318 H         1 UNK         0.0600 
    162 H162        2.4071  -19.3351  -46.3570 H         1 UNK         0.0600 
    163 H163        0.9025  -19.1608  -47.2341 H         1 UNK         0.0600 
    164 H164       -1.0404  -18.7514  -45.6251 H         1 UNK         0.3000 
    165 H165       -2.9554  -16.4986  -46.0631 H         1 UNK         0.0600 
    166 H166       -2.9944  -18.8746  -44.1280 H         1 UNK         0.0600 
    167 H167       -4.3879  -18.3273  -45.0508 H         1 UNK         0.0600 
    168 H168       -2.9781  -18.9371  -45.8894 H         1 UNK         0.0600 
    169 H169       -3.9288  -15.2814  -44.5387 H         1 UNK         0.3000 
    170 H170       -5.1150  -15.7791  -41.5931 H         1 UNK         0.0600 
    171 H171       -3.2817  -15.2806  -40.0774 H         1 UNK         0.0600 
    172 H172       -2.6978  -13.9755  -41.0928 H         1 UNK         0.0600 
    173 H173       -4.2477  -13.8264  -40.2621 H         1 UNK         0.0600 
    174 H174       -5.9648  -14.3595  -43.0201 H         1 UNK         0.3000 
    175 H175       -6.1862  -12.9747  -44.7155 H         1 UNK         0.0600 
    176 H176       -5.3222  -10.4147  -43.2594 H         1 UNK         0.0600 
    177 H177       -6.7791  -10.6111  -44.2351 H         1 UNK         0.0600 
    178 H178       -6.6024  -11.4990  -42.7305 H         1 UNK         0.0600 
    179 H179       -4.7083  -10.7657  -45.6352 H         1 UNK         0.3000 
    180 H180       -4.1033  -11.1377  -48.1104 H         1 UNK         0.0600 
    181 H181       -1.6266  -11.1817  -46.3049 H         1 UNK         0.0600 
    182 H182       -2.8442   -9.9170  -46.3915 H         1 UNK         0.0600 
    183 H183       -1.7720  -10.1854  -47.7521 H         1 UNK         0.0600 
    184 H184       -1.6369  -12.6640  -48.3546 H         1 UNK         0.3000 
    185 H185       -2.7837  -15.1850  -50.3446 H         1 UNK         0.0600 
    186 H186       -1.6661  -14.3819  -52.4047 H         1 UNK         0.0600 
    187 H187       -3.2344  -13.6184  -52.2235 H         1 UNK         0.0600 
    188 H188       -1.7736  -12.7112  -51.8437 H         1 UNK         0.0600 
    189 H189       -0.2329  -13.8009  -50.2686 H         1 UNK         0.3000 
    190 H190        0.3149  -22.5463  -45.5485 H         1 UNK         0.3000 
    191 H191       -2.4390  -21.5625  -45.5809 H         1 UNK         0.0600 
    192 H192       -2.0238  -21.1793  -43.1620 H         1 UNK         0.0600 
    193 H193       -0.7598  -20.4743  -44.1485 H         1 UNK         0.0600 
    194 H194       -0.4610  -21.9776  -43.2831 H         1 UNK         0.0600 
    195 H195       -0.6602  -24.4363  -44.4197 H         1 UNK         0.3000 
    196 H196       -2.8396  -25.6941  -43.0681 H         1 UNK         0.0600 
    197 H197       -0.2806  -26.9396  -44.2092 H         1 UNK         0.0600 
    198 H198       -0.4404  -26.2187  -42.6076 H         1 UNK         0.0600 
    199 H199       -1.3496  -27.6637  -43.0198 H         1 UNK         0.0600 
    200 H200       -1.7747  -25.7062  -46.4189 H         1 UNK         0.3000 
    201 H201       -3.5770  -27.7295  -47.4134 H         1 UNK         0.0600 
    202 H202       -2.0903  -25.4667  -48.8490 H         1 UNK         0.0600 
    203 H203       -2.8224  -26.8710  -49.6165 H         1 UNK         0.0600 
    204 H204       -1.4449  -27.0784  -48.5466 H         1 UNK         0.0600 
    205 H205       -5.1278  -26.2580  -45.7815 H         1 UNK         0.3000 
    206 H206       -7.0251  -25.1519  -45.4624 H         1 UNK         0.0600 
    207 H207       -7.8318  -26.9572  -47.0100 H         1 UNK         0.0600 
    208 H208       -8.8161  -25.5098  -47.1290 H         1 UNK         0.0600 
    209 H209       -7.6338  -25.8672  -48.3816 H         1 UNK         0.0600 
    210 H210       -4.7811  -23.5270  -46.4035 H         1 UNK         0.3000 
    211 H211       -4.1058  -21.5612  -47.1093 H         1 UNK         0.0600 
    212 H212       -5.5560  -19.5785  -46.8356 H         1 UNK         0.0600 
    213 H213       -5.7475  -20.6654  -45.4695 H         1 UNK         0.0600 
    214 H214       -6.9837  -20.5932  -46.7259 H         1 UNK         0.0600 
    215 H215       -5.6511  -23.4737  -49.1383 H         1 UNK         0.3000 
    216 H216       -6.6009  -21.7391  -51.2096 H         1 UNK         0.0600 
    217 H217       -5.8349  -24.7080  -51.2934 H         1 UNK         0.0600 
    218 H218       -6.7651  -23.8503  -52.5161 H         1 UNK         0.0600 
    219 H219       -7.4276  -24.0636  -50.9019 H         1 UNK         0.0600 
    220 H220       -3.5567  -23.5539  -50.7396 H         1 UNK         0.3000 
    221 H221       -2.3116  -22.7508  -53.1959 H         1 UNK         0.0600 
    222 H222       -1.5774  -24.7536  -51.9619 H         1 UNK         0.0600 
    223 H223       -1.1395  -23.7794  -50.5621 H         1 UNK         0.0600 
    224 H224       -0.2363  -23.6219  -52.0645 H         1 UNK         0.0600 
    225 H225       -2.5099  -21.2846  -49.9894 H         1 UNK         0.3000 
    226 H226       -0.4986  -19.2541  -50.3957 H         1 UNK         0.0600 
    227 H227       -2.8155  -19.3753  -48.3871 H         1 UNK         0.0600 
    228 H228       -1.2079  -20.0436  -48.1296 H         1 UNK         0.0600 
    229 H229       -1.4186  -18.3157  -48.3036 H         1 UNK         0.0600 
    230 H230       -4.1068  -19.2595  -50.5006 H         1 UNK         0.3000 
    231 H231       -4.4436  -16.5888  -51.3587 H         1 UNK         0.0600 
    232 H232       -6.2626  -19.0316  -51.6887 H         1 UNK         0.0600 
    233 H233       -6.7670  -17.3560  -51.8860 H         1 UNK         0.0600 
    234 H234       -6.2381  -17.9311  -50.3119 H         1 UNK         0.0600 
    235 H235       -3.9629  -19.5761  -53.2515 H         1 UNK         0.3000 
    236 H236       -4.5070  -18.4306  -55.8183 H         1 UNK         0.0600 
    237 H237       -4.6561  -20.8577  -55.3917 H         1 UNK         0.0600 
    238 H238       -3.4644  -20.5572  -56.6435 H         1 UNK         0.0600 
    239 H239       -2.9354  -20.9320  -55.0074 H         1 UNK         0.0600 
    240 H240       -1.7585  -18.0382  -53.7604 H         1 UNK         0.3000 
    241 H241        0.2576  -17.8038  -55.7691 H         1 UNK         0.0600 
    242 H242        0.3185  -14.3931  -56.7997 H         1 UNK         0.3800 
    243 H243        1.1609  -15.9173  -56.8105 H         1 UNK         0.3800 
    244 H244        0.5310  -18.1894  -53.1780 H         1 UNK         0.0800 
    245 H245        0.4405  -16.4595  -53.0329 H         1 UNK         0.0800 
    246 H246        4.0014  -18.9795  -54.2552 H         1 UNK         0.0800 
    247 H247        2.3651  -19.5573  -54.0598 H         1 UNK         0.0800 
@<TRIPOS>BOND
     1    1    2 1    
     2    1  127 1    
     3    1  128 1    
     4    1  129 1    
     5    2    3 2    
     6    2    4 am   BACKBONE|DICT|INTERRES
     7    4    5 1    
     8    4  130 1    
     9    5    6 1    
    10    5   65 1    
    11    5  131 1    
    12    6    7 1    
    13    6  132 1    
    14    6  133 1    
    15    7    8 1    
    16    8    9 1    
    17    8  134 1    
    18    8  135 1    
    19    9   10 ar   
    20    9   14 ar   
    21   10   11 ar   
    22   10  136 1    
    23   11   12 ar   
    24   11  126 1    
    25   12   13 ar   
    26   12  137 1    
    27   13   14 ar   
    28   13   15 1    
    29   14  138 1    
    30   15   16 1    
    31   15  139 1    
    32   15  140 1    
    33   16   17 1    
    34   17   18 1    
    35   17  141 1    
    36   17  142 1    
    37   18   19 1    
    38   18   67 1    
    39   18  143 1    
    40   19   20 am   BACKBONE|DICT|INTERRES
    41   19  144 1    
    42   20   21 2    
    43   20   22 1    
    44   22   23 1    
    45   22   24 1    
    46   22  145 1    
    47   23  146 1    
    48   23  147 1    
    49   23  148 1    
    50   24   25 am   BACKBONE|DICT|INTERRES
    51   24  149 1    
    52   25   26 2    
    53   25   27 1    
    54   27   28 1    
    55   27   29 1    
    56   27  150 1    
    57   28  151 1    
    58   28  152 1    
    59   28  153 1    
    60   29   30 am   BACKBONE|DICT|INTERRES
    61   29  154 1    
    62   30   31 2    
    63   30   32 1    
    64   32   33 1    
    65   32   34 1    
    66   32  155 1    
    67   33  156 1    
    68   33  157 1    
    69   33  158 1    
    70   34   35 am   BACKBONE|DICT|INTERRES
    71   34  159 1    
    72   35   36 2    
    73   35   37 1    
    74   37   38 1    
    75   37   39 1    
    76   37  160 1    
    77   38  161 1    
    78   38  162 1    
    79   38  163 1    
    80   39   40 am   BACKBONE|DICT|INTERRES
    81   39  164 1    
    82   40   41 2    
    83   40   42 1    
    84   42   43 1    
    85   42   44 1    
    86   42  165 1    
    87   43  166 1    
    88   43  167 1    
    89   43  168 1    
    90   44   45 am   BACKBONE|DICT|INTERRES
    91   44  169 1    
    92   45   46 2    
    93   45   47 1    
    94   47   48 1    
    95   47   49 1    
    96   47  170 1    
    97   48  171 1    
    98   48  172 1    
    99   48  173 1    
   100   49   50 am   BACKBONE|DICT|INTERRES
   101   49  174 1    
   102   50   51 2    
   103   50   52 1    
   104   52   53 1    
   105   52   54 1    
   106   52  175 1    
   107   53  176 1    
   108   53  177 1    
   109   53  178 1    
   110   54   55 am   BACKBONE|DICT|INTERRES
   111   54  179 1    
   112   55   56 2    
   113   55   57 1    
   114   57   58 1    
   115   57   59 1    
   116   57  180 1    
   117   58  181 1    
   118   58  182 1    
   119   58  183 1    
   120   59   60 am   BACKBONE|DICT|INTERRES
   121   59  184 1    
   122   60   61 2    
   123   60   62 1    
   124   62   63 1    
   125   62   64 1    
   126   62  185 1    
   127   63  186 1    
   128   63  187 1    
   129   63  188 1    
   130   64   65 am   BACKBONE|DICT|INTERRES
   131   64  189 1    
   132   65   66 2    
   133   67   68 2    
   134   67   69 am   BACKBONE|DICT|INTERRES
   135   69   70 1    
   136   69  190 1    
   137   70   71 1    
   138   70   72 1    
   139   70  191 1    
   140   71  192 1    
   141   71  193 1    
   142   71  194 1    
   143   72   73 2    
   144   72   74 am   BACKBONE|DICT|INTERRES
   145   74   75 1    
   146   74  195 1    
   147   75   76 1    
   148   75   77 1    
   149   75  196 1    
   150   76  197 1    
   151   76  198 1    
   152   76  199 1    
   153   77   78 2    
   154   77   79 am   BACKBONE|DICT|INTERRES
   155   79   80 1    
   156   79  200 1    
   157   80   81 1    
   158   80   82 1    
   159   80  201 1    
   160   81  202 1    
   161   81  203 1    
   162   81  204 1    
   163   82   83 2    
   164   82   84 am   BACKBONE|DICT|INTERRES
   165   84   85 1    
   166   84  205 1    
   167   85   86 1    
   168   85   87 1    
   169   85  206 1    
   170   86  207 1    
   171   86  208 1    
   172   86  209 1    
   173   87   88 2    
   174   87   89 am   BACKBONE|DICT|INTERRES
   175   89   90 1    
   176   89  210 1    
   177   90   91 1    
   178   90   92 1    
   179   90  211 1    
   180   91  212 1    
   181   91  213 1    
   182   91  214 1    
   183   92   93 2    
   184   92   94 am   BACKBONE|DICT|INTERRES
   185   94   95 1    
   186   94  215 1    
   187   95   96 1    
   188   95   97 1    
   189   95  216 1    
   190   96  217 1    
   191   96  218 1    
   192   96  219 1    
   193   97   98 2    
   194   97   99 am   BACKBONE|DICT|INTERRES
   195   99  100 1    
   196   99  220 1    
   197  100  101 1    
   198  100  102 1    
   199  100  221 1    
   200  101  222 1    
   201  101  223 1    
   202  101  224 1    
   203  102  103 2    
   204  102  104 am   BACKBONE|DICT|INTERRES
   205  104  105 1    
   206  104  225 1    
   207  105  106 1    
   208  105  107 1    
   209  105  226 1    
   210  106  227 1    
   211  106  228 1    
   212  106  229 1    
   213  107  108 2    
   214  107  109 am   BACKBONE|DICT|INTERRES
   215  109  110 1    
   216  109  230 1    
   217  110  111 1    
   218  110  112 1    
   219  110  231 1    
   220  111  232 1    
   221  111  233 1    
   222  111  234 1    
   223  112  113 2    
   224  112  114 am   BACKBONE|DICT|INTERRES
   225  114  115 1    
   226  114  235 1    
   227  115  116 1    
   228  115  117 1    
   229  115  236 1    
   230  116  237 1    
   231  116  238 1    
   232  116  239 1    
   233  117  118 2    
   234  117  119 am   BACKBONE|DICT|INTERRES
   235  119  120 1    
   236  119  240 1    
   237  120  121 1    
   238  120  124 1    
   239  120  241 1    
   240  121  122 am   BACKBONE|DICT|INTERRES
   241  121  123 2    
   242  122  242 1    
   243  122  243 1    
   244  124  125 1    
   245  124  244 1    
   246  124  245 1    
   247  125  126 1    
   248  126  246 1    
   249  126  247 1    
@<TRIPOS>SUBSTRUCTURE
     1 UNK         1 GROUP             0       ****    0 ROOT    
