@<TRIPOS>MOLECULE
3R540
247   249    1
SMALL
USER_CHARGES


@<TRIPOS>ATOM
      1 CA         -0.0388  -15.0057  -51.7770 C.3       0 UNK        -0.1800 
      2 C           0.8297  -13.9213  -51.1590 C.2       0 UNK         0.5000 
      3 O           1.1370  -12.9258  -51.8144 O.2       0 UNK        -0.5000 
      4 N           1.2179  -14.1082  -49.8924 N.am      1 UNK        -0.5000 
      5 CA          2.1270  -13.2552  -49.1127 C.3       1 UNK         0.1400 
      6 C6          2.7812  -14.0431  -47.9444 C.3       23 UNK        -0.0398 
      7 S7          3.6310  -15.5643  -48.4879 S.3       23 UNK        -0.2404 
      8 C8          2.5222  -16.8461  -47.8233 C.3       23 UNK        -0.0205 
      9 C9          2.9070  -18.2193  -48.3480 C.ar      23 UNK        -0.0193 
     10 C10         2.3777  -18.6810  -49.5559 C.ar      23 UNK        -0.1150 
     11 C11         2.7368  -19.9359  -50.0546 C.ar      23 UNK        -0.0193 
     12 C12         3.6222  -20.7356  -49.3256 C.ar      23 UNK        -0.1150 
     13 C13         4.1548  -20.2929  -48.1104 C.ar      23 UNK        -0.0193 
     14 C14         3.7993  -19.0241  -47.6346 C.ar      23 UNK        -0.1150 
     15 C15         5.1272  -21.1972  -47.3515 C.3       23 UNK        -0.0205 
     16 S16         5.0278  -21.0817  -45.5299 S.3       23 UNK        -0.2404 
     17 C17         3.2812  -21.5106  -45.2302 C.3       23 UNK        -0.0398 
     18 CA          3.0709  -22.9058  -44.5989 C.3       11 UNK         0.1400 
     19 N           1.7294  -23.0051  -44.0261 N.am      11 UNK        -0.5000 
     20 C           1.2868  -23.9739  -43.2148 C.2       10 UNK         0.5000 
     21 O           1.9778  -24.9169  -42.8286 O.2       10 UNK        -0.5000 
     22 CA         -0.1701  -23.8526  -42.7342 C.3       10 UNK         0.1400 
     23 CB         -0.2453  -22.9924  -41.4627 C.3       10 UNK        -0.1800 
     24 N          -1.0252  -23.2573  -43.7616 N.am      10 UNK        -0.5000 
     25 C          -1.7580  -23.9582  -44.6375 C.2       9 UNK         0.5000 
     26 O          -1.8590  -25.1850  -44.6178 O.2       9 UNK        -0.5000 
     27 CA         -2.5243  -23.1615  -45.7131 C.3       9 UNK         0.1400 
     28 CB         -3.9648  -22.8978  -45.2479 C.3       9 UNK        -0.1800 
     29 N          -1.9052  -21.8846  -46.0745 N.am      9 UNK        -0.5000 
     30 C          -0.6891  -21.7295  -46.6162 C.2       8 UNK         0.5000 
     31 O           0.0790  -22.6567  -46.8661 O.2       8 UNK        -0.5000 
     32 CA         -0.2184  -20.2811  -46.8394 C.3       8 UNK         0.1400 
     33 CB         -0.7194  -19.7543  -48.1875 C.3       8 UNK        -0.1800 
     34 N          -0.6110  -19.3559  -45.7703 N.am      8 UNK        -0.5000 
     35 C          -0.3282  -19.5186  -44.4670 C.2       7 UNK         0.5000 
     36 O           0.2442  -20.5134  -44.0196 O.2       7 UNK        -0.5000 
     37 CA         -0.7436  -18.4059  -43.4866 C.3       7 UNK         0.1400 
     38 CB          0.4990  -17.6593  -42.9776 C.3       7 UNK        -0.1800 
     39 N          -1.6841  -17.4423  -44.0593 N.am      7 UNK        -0.5000 
     40 C          -2.9952  -17.6728  -44.2259 C.2       6 UNK         0.5000 
     41 O          -3.5453  -18.7261  -43.9045 O.2       6 UNK        -0.5000 
     42 CA         -3.8389  -16.5580  -44.8797 C.3       6 UNK         0.1400 
     43 CB         -4.5692  -15.7316  -43.8118 C.3       6 UNK        -0.1800 
     44 N          -3.0818  -15.6540  -45.7452 N.am      6 UNK        -0.5000 
     45 C          -2.3971  -16.0213  -46.8373 C.2       5 UNK         0.5000 
     46 O          -2.3744  -17.1711  -47.2701 O.2       5 UNK        -0.5000 
     47 CA         -1.5363  -14.9392  -47.5173 C.3       5 UNK         0.1400 
     48 CB         -2.2972  -14.3183  -48.6970 C.3       5 UNK        -0.1800 
     49 N          -1.0745  -13.8797  -46.6085 N.am      5 UNK        -0.5000 
     50 C          -0.3424  -14.0852  -45.4992 C.2       4 UNK         0.5000 
     51 O           0.0294  -15.2045  -45.1477 O.2       4 UNK        -0.5000 
     52 CA          0.0240  -12.8723  -44.6215 C.3       4 UNK         0.1400 
     53 CB          1.5262  -12.8507  -44.2908 C.3       4 UNK        -0.1800 
     54 N          -0.3522  -11.5974  -45.2317 N.am      4 UNK        -0.5000 
     55 C          -1.5094  -10.9556  -45.0176 C.2       3 UNK         0.5000 
     56 O          -2.3895  -11.3752  -44.2657 O.2       3 UNK        -0.5000 
     57 CA         -1.7375   -9.6321  -45.7785 C.3       3 UNK         0.1400 
     58 CB         -1.4354   -8.4317  -44.8686 C.3       3 UNK        -0.1800 
     59 N          -0.9436   -9.5094  -47.0037 N.am      3 UNK        -0.5000 
     60 C          -1.0924  -10.2770  -48.0910 C.2       2 UNK         0.5000 
     61 O          -1.9475  -11.1584  -48.1812 O.2       2 UNK        -0.5000 
     62 CA         -0.0992  -10.0714  -49.2551 C.3       2 UNK         0.1400 
     63 CB          0.8313   -8.8488  -49.0886 C.3       2 UNK        -0.1800 
     64 N           0.6916  -11.2820  -49.4990 N.am      2 UNK        -0.5000 
     65 C           1.4503  -11.9508  -48.6190 C.2       1 UNK         0.5000 
     66 O           1.6076  -11.5808  -47.4541 O.2       1 UNK        -0.5000 
     67 C           3.3572  -24.0420  -45.6040 C.2       11 UNK         0.5000 
     68 O           4.3828  -24.7157  -45.4881 O.2       11 UNK        -0.5000 
     69 N           2.4468  -24.2351  -46.5659 N.am      12 UNK        -0.5000 
     70 CA          2.5106  -25.2972  -47.5661 C.3       12 UNK         0.1400 
     71 CB          1.7665  -24.8252  -48.8245 C.3       12 UNK        -0.1800 
     72 C           1.8914  -26.6005  -47.0317 C.2       12 UNK         0.5000 
     73 O           1.1538  -26.5822  -46.0437 O.2       12 UNK        -0.5000 
     74 N           2.1747  -27.7130  -47.7234 N.am      13 UNK        -0.5000 
     75 CA          1.5915  -29.0303  -47.4450 C.3       13 UNK         0.1400 
     76 CB          2.3441  -30.0984  -48.2533 C.3       13 UNK        -0.1800 
     77 C           0.0790  -29.0904  -47.7419 C.2       13 UNK         0.5000 
     78 O          -0.6505  -29.8043  -47.0525 O.2       13 UNK        -0.5000 
     79 N          -0.3601  -28.3204  -48.7431 N.am      14 UNK        -0.5000 
     80 CA         -1.7517  -28.0858  -49.1003 C.3       14 UNK         0.1400 
     81 CB         -2.2941  -29.2444  -49.9556 C.3       14 UNK        -0.1800 
     82 C          -1.8071  -26.7546  -49.8589 C.2       14 UNK         0.5000 
     83 O          -0.9727  -26.5282  -50.7385 O.2       14 UNK        -0.5000 
     84 N          -2.7748  -25.9066  -49.5041 N.am      15 UNK        -0.5000 
     85 CA         -3.0128  -24.5716  -50.0465 C.3       15 UNK         0.1400 
     86 CB         -1.8212  -23.6402  -49.7479 C.3       15 UNK        -0.1800 
     87 C          -4.2962  -24.0212  -49.4089 C.2       15 UNK         0.5000 
     88 O          -4.7512  -24.5511  -48.3901 O.2       15 UNK        -0.5000 
     89 N          -4.8452  -22.9615  -50.0080 N.am      16 UNK        -0.5000 
     90 CA         -5.9208  -22.1549  -49.4392 C.3       16 UNK         0.1400 
     91 CB         -6.7234  -21.5300  -50.5937 C.3       16 UNK        -0.1800 
     92 C          -5.3408  -21.0653  -48.5167 C.2       16 UNK         0.5000 
     93 O          -4.1210  -20.9363  -48.3902 O.2       16 UNK        -0.5000 
     94 N          -6.2353  -20.2924  -47.8907 N.am      17 UNK        -0.5000 
     95 CA         -5.9017  -19.0970  -47.1181 C.3       17 UNK         0.1400 
     96 CB         -6.9604  -18.9201  -46.0104 C.3       17 UNK        -0.1800 
     97 C          -5.7640  -17.8769  -48.0584 C.2       17 UNK         0.5000 
     98 O          -5.1388  -17.9804  -49.1130 O.2       17 UNK        -0.5000 
     99 N          -6.3721  -16.7380  -47.6959 N.am      18 UNK        -0.5000 
    100 CA        -6.3342  -15.4873  -48.4656 C.3       18 UNK         0.1400 
    101 CB        -7.0061  -14.3773  -47.6445 C.3       18 UNK        -0.1800 
    102 C         -6.9582  -15.5839  -49.8764 C.2       18 UNK         0.5000 
    103 O         -6.6567  -14.7516  -50.7331 O.2       18 UNK        -0.5000 
    104 N         -7.7848  -16.6130  -50.1067 N.am      19 UNK        -0.5000 
    105 CA        -8.3536  -17.0017  -51.3955 C.3       19 UNK         0.1400 
    106 CB        -9.5517  -17.9330  -51.1362 C.3       19 UNK        -0.1800 
    107 C         -7.2973  -17.6412  -52.3261 C.2       19 UNK         0.5000 
    108 O         -7.3733  -18.8330  -52.6252 O.2       19 UNK        -0.5000 
    109 N         -6.3330  -16.8221  -52.7648 N.am      20 UNK        -0.5000 
    110 CA        -5.2808  -17.1043  -53.7502 C.3       20 UNK         0.1400 
    111 CB        -5.8833  -17.5355  -55.1046 C.3       20 UNK        -0.1800 
    112 C         -4.1549  -18.0515  -53.2800 C.2       20 UNK         0.5000 
    113 O         -3.3422  -18.4631  -54.1123 O.2       20 UNK        -0.5000 
    114 N         -4.0736  -18.3329  -51.9698 N.am      21 UNK        -0.5000 
    115 CA        -2.9870  -19.0538  -51.2974 C.3       21 UNK         0.1400 
    116 CB        -1.7501  -18.1320  -51.1963 C.3       21 UNK        -0.1800 
    117 C         -2.6991  -20.4347  -51.9239 C.2       21 UNK         0.5000 
    118 O         -3.5848  -21.2907  -51.9503 O.2       21 UNK        -0.5000 
    119 N         -1.4726  -20.6300  -52.4164 N.am      22 UNK        -0.5000 
    120 CA        -1.0135  -21.8617  -53.0736 C.3       22 UNK         0.1400 
    121 C         -1.4930  -22.0164  -54.5487 C.2       22 UNK         0.5000 
    122 N         -2.1975  -21.0545  -55.1355 N.am      22 UNK        -0.7600 
    123 O         -1.2247  -23.0373  -55.1758 O.2       22 UNK        -0.5000 
    124 C124        0.5243  -22.0352  -52.9595 C.3       23 UNK        -0.0398 
    125 S125        1.1402  -21.8754  -51.2451 S.3       23 UNK        -0.2404 
    126 C126        2.2029  -20.4069  -51.3998 C.3       23 UNK        -0.0205 
    127 H127        0.2711  -15.2011  -52.8036 H         1 UNK         0.0600 
    128 H128       -1.0838  -14.6958  -51.7858 H         1 UNK         0.0600 
    129 H129        0.0427  -15.9377  -51.2189 H         1 UNK         0.0600 
    130 H130        0.9260  -14.9498  -49.4230 H         1 UNK         0.3000 
    131 H131        2.9333  -12.9399  -49.7783 H         1 UNK         0.0600 
    132 H132        3.5231  -13.4221  -47.4393 H         1 UNK         0.0800 
    133 H133        2.0387  -14.2988  -47.1884 H         1 UNK         0.0800 
    134 H134        2.5594  -16.8319  -46.7325 H         1 UNK         0.0800 
    135 H135        1.4901  -16.6270  -48.0973 H         1 UNK         0.0800 
    136 H136        1.6988  -18.0531  -50.1153 H         1 UNK         0.1150 
    137 H137        3.8995  -21.7059  -49.7135 H         1 UNK         0.1150 
    138 H138        4.2168  -18.6566  -46.7082 H         1 UNK         0.1150 
    139 H139        4.9680  -22.2391  -47.6342 H         1 UNK         0.0800 
    140 H140        6.1425  -20.9462  -47.6603 H         1 UNK         0.0800 
    141 H141        2.8942  -20.7422  -44.5597 H         1 UNK         0.0800 
    142 H142        2.7016  -21.4170  -46.1475 H         1 UNK         0.0800 
    143 H143        3.7754  -23.0122  -43.7711 H         1 UNK         0.0600 
    144 H144        1.1023  -22.2342  -44.2309 H         1 UNK         0.3000 
    145 H145       -0.5248  -24.8546  -42.4836 H         1 UNK         0.0600 
    146 H146       -1.2669  -22.9349  -41.0868 H         1 UNK         0.0600 
    147 H147        0.3701  -23.4165  -40.6682 H         1 UNK         0.0600 
    148 H148        0.1040  -21.9745  -41.6405 H         1 UNK         0.0600 
    149 H149       -0.9694  -22.2521  -43.8679 H         1 UNK         0.3000 
    150 H150       -2.5636  -23.7805  -46.6105 H         1 UNK         0.0600 
    151 H151       -4.4660  -23.8289  -44.9804 H         1 UNK         0.0600 
    152 H152       -4.5556  -22.4320  -46.0352 H         1 UNK         0.0600 
    153 H153       -3.9931  -22.2442  -44.3750 H         1 UNK         0.0600 
    154 H154       -2.4588  -21.0556  -45.9142 H         1 UNK         0.3000 
    155 H155        0.8712  -20.2876  -46.8755 H         1 UNK         0.0600 
    156 H156       -0.3152  -18.7637  -48.3929 H         1 UNK         0.0600 
    157 H157       -1.8064  -19.6819  -48.2130 H         1 UNK         0.0600 
    158 H158       -0.4131  -20.4114  -49.0023 H         1 UNK         0.0600 
    159 H159       -1.1172  -18.5280  -46.0604 H         1 UNK         0.3000 
    160 H160       -1.2198  -18.8881  -42.6302 H         1 UNK         0.0600 
    161 H161        1.0696  -17.2202  -43.7965 H         1 UNK         0.0600 
    162 H162        1.1673  -18.3358  -42.4432 H         1 UNK         0.0600 
    163 H163        0.2278  -16.8591  -42.2888 H         1 UNK         0.0600 
    164 H164       -1.2833  -16.5702  -44.3888 H         1 UNK         0.3000 
    165 H165       -4.5882  -17.0469  -45.4980 H         1 UNK         0.0600 
    166 H166       -3.8690  -15.1862  -43.1779 H         1 UNK         0.0600 
    167 H167       -5.2456  -15.0078  -44.2669 H         1 UNK         0.0600 
    168 H168       -5.1694  -16.3720  -43.1640 H         1 UNK         0.0600 
    169 H169       -3.0312  -14.6882  -45.4559 H         1 UNK         0.3000 
    170 H170       -0.6513  -15.4409  -47.9103 H         1 UNK         0.0600 
    171 H171       -2.6492  -15.0862  -49.3875 H         1 UNK         0.0600 
    172 H172       -3.1680  -13.7547  -48.3601 H         1 UNK         0.0600 
    173 H173       -1.6612  -13.6399  -49.2647 H         1 UNK         0.0600 
    174 H174       -1.3454  -12.9332  -46.8449 H         1 UNK         0.3000 
    175 H175       -0.5128  -12.9979  -43.6791 H         1 UNK         0.0600 
    176 H176        2.1412  -12.7724  -45.1863 H         1 UNK         0.0600 
    177 H177        1.7730  -12.0098  -43.6426 H         1 UNK         0.0600 
    178 H178        1.8269  -13.7592  -43.7674 H         1 UNK         0.0600 
    179 H179        0.3038  -11.2248  -45.9111 H         1 UNK         0.3000 
    180 H180       -2.7930   -9.5937  -46.0561 H         1 UNK         0.0600 
    181 H181       -0.3858   -8.4056  -44.5729 H         1 UNK         0.0600 
    182 H182       -2.0325   -8.4721  -43.9566 H         1 UNK         0.0600 
    183 H183       -1.6688   -7.4902  -45.3661 H         1 UNK         0.0600 
    184 H184       -0.2002   -8.8263  -46.9950 H         1 UNK         0.3000 
    185 H185       -0.7049   -9.9093  -50.1477 H         1 UNK         0.0600 
    186 H186        1.4618   -8.7213  -49.9686 H         1 UNK         0.0600 
    187 H187        0.2574   -7.9284  -48.9733 H         1 UNK         0.0600 
    188 H188        1.4914   -8.9439  -48.2257 H         1 UNK         0.0600 
    189 H189        0.6282  -11.6754  -50.4334 H         1 UNK         0.3000 
    190 H190        1.5957  -23.6762  -46.5692 H         1 UNK         0.3000 
    191 H191        3.5534  -25.4861  -47.8298 H         1 UNK         0.0600 
    192 H192        1.8557  -25.5473  -49.6366 H         1 UNK         0.0600 
    193 H193        2.1677  -23.8785  -49.1862 H         1 UNK         0.0600 
    194 H194        0.7037  -24.6836  -48.6287 H         1 UNK         0.0600 
    195 H195        2.7936  -27.6540  -48.5193 H         1 UNK         0.3000 
    196 H196        1.7293  -29.2457  -46.3832 H         1 UNK         0.0600 
    197 H197        1.9467  -31.0935  -48.0490 H         1 UNK         0.0600 
    198 H198        3.4035  -30.1142  -47.9968 H         1 UNK         0.0600 
    199 H199        2.2597  -29.9257  -49.3270 H         1 UNK         0.0600 
    200 H200        0.3015  -27.7557  -49.2595 H         1 UNK         0.3000 
    201 H201       -2.3448  -28.0011  -48.1869 H         1 UNK         0.0600 
    202 H202       -2.2745  -30.1861  -49.4071 H         1 UNK         0.0600 
    203 H203       -1.7112  -29.3762  -50.8680 H         1 UNK         0.0600 
    204 H204       -3.3284  -29.0607  -50.2486 H         1 UNK         0.0600 
    205 H205       -3.4348  -26.1594  -48.7776 H         1 UNK         0.3000 
    206 H206       -3.1649  -24.6445  -51.1252 H         1 UNK         0.0600 
    207 H207       -0.9491  -23.9046  -50.3442 H         1 UNK         0.0600 
    208 H208       -2.0524  -22.5980  -49.9667 H         1 UNK         0.0600 
    209 H209       -1.5339  -23.6931  -48.7003 H         1 UNK         0.0600 
    210 H210       -4.3602  -22.5288  -50.7916 H         1 UNK         0.3000 
    211 H211       -6.5876  -22.7883  -48.8505 H         1 UNK         0.0600 
    212 H212       -6.1227  -20.8161  -51.1587 H         1 UNK         0.0600 
    213 H213       -7.6021  -20.9975  -50.2291 H         1 UNK         0.0600 
    214 H214       -7.0757  -22.2921  -51.2889 H         1 UNK         0.0600 
    215 H215       -7.2174  -20.4584  -48.0529 H         1 UNK         0.3000 
    216 H216       -4.9323  -19.2373  -46.6348 H         1 UNK         0.0600 
    217 H217       -6.7180  -18.0909  -45.3454 H         1 UNK         0.0600 
    218 H218       -7.0176  -19.8122  -45.3861 H         1 UNK         0.0600 
    219 H219       -7.9551  -18.7427  -46.4216 H         1 UNK         0.0600 
    220 H220       -6.9012  -16.7199  -46.8364 H         1 UNK         0.3000 
    221 H221       -5.2846  -15.2197  -48.6020 H         1 UNK         0.0600 
    222 H222       -8.0548  -14.6022  -47.4469 H         1 UNK         0.0600 
    223 H223       -6.5043  -14.2367  -46.6868 H         1 UNK         0.0600 
    224 H224       -6.9682  -13.4230  -48.1716 H         1 UNK         0.0600 
    225 H225       -7.9492  -17.2506  -49.3428 H         1 UNK         0.3000 
    226 H226       -8.7304  -16.1064  -51.8945 H         1 UNK         0.0600 
    227 H227      -10.3135  -17.4373  -50.5343 H         1 UNK         0.0600 
    228 H228      -10.0241  -18.2319  -52.0728 H         1 UNK         0.0600 
    229 H229       -9.2512  -18.8426  -50.6144 H         1 UNK         0.0600 
    230 H230       -6.3305  -15.8815  -52.3818 H         1 UNK         0.3000 
    231 H231       -4.7884  -16.1453  -53.9164 H         1 UNK         0.0600 
    232 H232       -5.1203  -17.5594  -55.8835 H         1 UNK         0.0600 
    233 H233       -6.6560  -16.8406  -55.4334 H         1 UNK         0.0600 
    234 H234       -6.3242  -18.5313  -55.0541 H         1 UNK         0.0600 
    235 H235       -4.7995  -17.9927  -51.3518 H         1 UNK         0.3000 
    236 H236       -3.3164  -19.2635  -50.2817 H         1 UNK         0.0600 
    237 H237       -1.9816  -17.2522  -50.5958 H         1 UNK         0.0600 
    238 H238       -0.9094  -18.6299  -50.7153 H         1 UNK         0.0600 
    239 H239       -1.4137  -17.7880  -52.1748 H         1 UNK         0.0600 
    240 H240       -0.8084  -19.8729  -52.3774 H         1 UNK         0.3000 
    241 H241       -1.4635  -22.7004  -52.5399 H         1 UNK         0.0600 
    242 H242       -2.4587  -20.2098  -54.6369 H         1 UNK         0.3800 
    243 H243       -2.4989  -21.1777  -56.0887 H         1 UNK         0.3800 
    244 H244        0.8184  -23.0219  -53.3213 H         1 UNK         0.0800 
    245 H245        1.0349  -21.3163  -53.6022 H         1 UNK         0.0800 
    246 H246        1.6412  -19.6081  -51.8862 H         1 UNK         0.0800 
    247 H247        3.0432  -20.6392  -52.0556 H         1 UNK         0.0800 
@<TRIPOS>BOND
     1    1    2 1    
     2    1  127 1    
     3    1  128 1    
     4    1  129 1    
     5    2    3 2    
     6    2    4 am   BACKBONE|DICT|INTERRES
     7    4    5 1    
     8    4  130 1    
     9    5    6 1    
    10    5   65 1    
    11    5  131 1    
    12    6    7 1    
    13    6  132 1    
    14    6  133 1    
    15    7    8 1    
    16    8    9 1    
    17    8  134 1    
    18    8  135 1    
    19    9   10 ar   
    20    9   14 ar   
    21   10   11 ar   
    22   10  136 1    
    23   11   12 ar   
    24   11  126 1    
    25   12   13 ar   
    26   12  137 1    
    27   13   14 ar   
    28   13   15 1    
    29   14  138 1    
    30   15   16 1    
    31   15  139 1    
    32   15  140 1    
    33   16   17 1    
    34   17   18 1    
    35   17  141 1    
    36   17  142 1    
    37   18   19 1    
    38   18   67 1    
    39   18  143 1    
    40   19   20 am   BACKBONE|DICT|INTERRES
    41   19  144 1    
    42   20   21 2    
    43   20   22 1    
    44   22   23 1    
    45   22   24 1    
    46   22  145 1    
    47   23  146 1    
    48   23  147 1    
    49   23  148 1    
    50   24   25 am   BACKBONE|DICT|INTERRES
    51   24  149 1    
    52   25   26 2    
    53   25   27 1    
    54   27   28 1    
    55   27   29 1    
    56   27  150 1    
    57   28  151 1    
    58   28  152 1    
    59   28  153 1    
    60   29   30 am   BACKBONE|DICT|INTERRES
    61   29  154 1    
    62   30   31 2    
    63   30   32 1    
    64   32   33 1    
    65   32   34 1    
    66   32  155 1    
    67   33  156 1    
    68   33  157 1    
    69   33  158 1    
    70   34   35 am   BACKBONE|DICT|INTERRES
    71   34  159 1    
    72   35   36 2    
    73   35   37 1    
    74   37   38 1    
    75   37   39 1    
    76   37  160 1    
    77   38  161 1    
    78   38  162 1    
    79   38  163 1    
    80   39   40 am   BACKBONE|DICT|INTERRES
    81   39  164 1    
    82   40   41 2    
    83   40   42 1    
    84   42   43 1    
    85   42   44 1    
    86   42  165 1    
    87   43  166 1    
    88   43  167 1    
    89   43  168 1    
    90   44   45 am   BACKBONE|DICT|INTERRES
    91   44  169 1    
    92   45   46 2    
    93   45   47 1    
    94   47   48 1    
    95   47   49 1    
    96   47  170 1    
    97   48  171 1    
    98   48  172 1    
    99   48  173 1    
   100   49   50 am   BACKBONE|DICT|INTERRES
   101   49  174 1    
   102   50   51 2    
   103   50   52 1    
   104   52   53 1    
   105   52   54 1    
   106   52  175 1    
   107   53  176 1    
   108   53  177 1    
   109   53  178 1    
   110   54   55 am   BACKBONE|DICT|INTERRES
   111   54  179 1    
   112   55   56 2    
   113   55   57 1    
   114   57   58 1    
   115   57   59 1    
   116   57  180 1    
   117   58  181 1    
   118   58  182 1    
   119   58  183 1    
   120   59   60 am   BACKBONE|DICT|INTERRES
   121   59  184 1    
   122   60   61 2    
   123   60   62 1    
   124   62   63 1    
   125   62   64 1    
   126   62  185 1    
   127   63  186 1    
   128   63  187 1    
   129   63  188 1    
   130   64   65 am   BACKBONE|DICT|INTERRES
   131   64  189 1    
   132   65   66 2    
   133   67   68 2    
   134   67   69 am   BACKBONE|DICT|INTERRES
   135   69   70 1    
   136   69  190 1    
   137   70   71 1    
   138   70   72 1    
   139   70  191 1    
   140   71  192 1    
   141   71  193 1    
   142   71  194 1    
   143   72   73 2    
   144   72   74 am   BACKBONE|DICT|INTERRES
   145   74   75 1    
   146   74  195 1    
   147   75   76 1    
   148   75   77 1    
   149   75  196 1    
   150   76  197 1    
   151   76  198 1    
   152   76  199 1    
   153   77   78 2    
   154   77   79 am   BACKBONE|DICT|INTERRES
   155   79   80 1    
   156   79  200 1    
   157   80   81 1    
   158   80   82 1    
   159   80  201 1    
   160   81  202 1    
   161   81  203 1    
   162   81  204 1    
   163   82   83 2    
   164   82   84 am   BACKBONE|DICT|INTERRES
   165   84   85 1    
   166   84  205 1    
   167   85   86 1    
   168   85   87 1    
   169   85  206 1    
   170   86  207 1    
   171   86  208 1    
   172   86  209 1    
   173   87   88 2    
   174   87   89 am   BACKBONE|DICT|INTERRES
   175   89   90 1    
   176   89  210 1    
   177   90   91 1    
   178   90   92 1    
   179   90  211 1    
   180   91  212 1    
   181   91  213 1    
   182   91  214 1    
   183   92   93 2    
   184   92   94 am   BACKBONE|DICT|INTERRES
   185   94   95 1    
   186   94  215 1    
   187   95   96 1    
   188   95   97 1    
   189   95  216 1    
   190   96  217 1    
   191   96  218 1    
   192   96  219 1    
   193   97   98 2    
   194   97   99 am   BACKBONE|DICT|INTERRES
   195   99  100 1    
   196   99  220 1    
   197  100  101 1    
   198  100  102 1    
   199  100  221 1    
   200  101  222 1    
   201  101  223 1    
   202  101  224 1    
   203  102  103 2    
   204  102  104 am   BACKBONE|DICT|INTERRES
   205  104  105 1    
   206  104  225 1    
   207  105  106 1    
   208  105  107 1    
   209  105  226 1    
   210  106  227 1    
   211  106  228 1    
   212  106  229 1    
   213  107  108 2    
   214  107  109 am   BACKBONE|DICT|INTERRES
   215  109  110 1    
   216  109  230 1    
   217  110  111 1    
   218  110  112 1    
   219  110  231 1    
   220  111  232 1    
   221  111  233 1    
   222  111  234 1    
   223  112  113 2    
   224  112  114 am   BACKBONE|DICT|INTERRES
   225  114  115 1    
   226  114  235 1    
   227  115  116 1    
   228  115  117 1    
   229  115  236 1    
   230  116  237 1    
   231  116  238 1    
   232  116  239 1    
   233  117  118 2    
   234  117  119 am   BACKBONE|DICT|INTERRES
   235  119  120 1    
   236  119  240 1    
   237  120  121 1    
   238  120  124 1    
   239  120  241 1    
   240  121  122 am   BACKBONE|DICT|INTERRES
   241  121  123 2    
   242  122  242 1    
   243  122  243 1    
   244  124  125 1    
   245  124  244 1    
   246  124  245 1    
   247  125  126 1    
   248  126  246 1    
   249  126  247 1    
@<TRIPOS>SUBSTRUCTURE
     1 UNK         1 GROUP             0       ****    0 ROOT    
