@<TRIPOS>MOLECULE
3R540
247   249    1
SMALL
USER_CHARGES


@<TRIPOS>ATOM
      1 CA          0.7478  -16.3300  -51.6992 C.3       0 UNK        -0.1800 
      2 C           1.9614  -15.4221  -51.7862 C.2       0 UNK         0.5000 
      3 O           1.8245  -14.2467  -52.1287 O.2       0 UNK        -0.5000 
      4 N           3.1477  -15.9500  -51.4643 N.am      1 UNK        -0.5000 
      5 CA          4.4283  -15.2340  -51.4722 C.3       1 UNK         0.1400 
      6 C6          5.6318  -16.1986  -51.6143 C.3       23 UNK        -0.0398 
      7 S7          5.6271  -17.0779  -53.2141 S.3       23 UNK        -0.2404 
      8 C8          5.5490  -18.8201  -52.6951 C.3       23 UNK        -0.0205 
      9 C9          4.1540  -19.2303  -52.2477 C.ar      23 UNK        -0.0193 
     10 C10         3.1867  -19.5687  -53.1992 C.ar      23 UNK        -0.1150 
     11 C11         1.9207  -20.0055  -52.8001 C.ar      23 UNK        -0.0193 
     12 C12         1.6307  -20.1060  -51.4379 C.ar      23 UNK        -0.1150 
     13 C13         2.5729  -19.7309  -50.4739 C.ar      23 UNK        -0.0193 
     14 C14         3.8380  -19.3034  -50.8873 C.ar      23 UNK        -0.1150 
     15 C15         2.2421  -19.8200  -48.9889 C.3       23 UNK        -0.0205 
     16 S16         0.6040  -19.1225  -48.5974 S.3       23 UNK        -0.2404 
     17 C17         0.3762  -19.6134  -46.8544 C.3       23 UNK        -0.0398 
     18 CA          0.3658  -21.1315  -46.5359 C.3       11 UNK         0.1400 
     19 N           0.1902  -21.3477  -45.0961 N.am      11 UNK        -0.5000 
     20 C           0.2692  -22.5186  -44.4467 C.2       10 UNK         0.5000 
     21 O           0.5164  -23.5928  -44.9958 O.2       10 UNK        -0.5000 
     22 CA         -0.0381  -22.4790  -42.9410 C.3       10 UNK         0.1400 
     23 CB          1.1895  -22.0112  -42.1440 C.3       10 UNK        -0.1800 
     24 N          -1.1687  -21.5899  -42.6659 N.am      10 UNK        -0.5000 
     25 C          -2.4543  -21.9654  -42.7126 C.2       9 UNK         0.5000 
     26 O          -2.8173  -23.1243  -42.9121 O.2       9 UNK        -0.5000 
     27 CA         -3.5198  -20.8691  -42.5106 C.3       9 UNK         0.1400 
     28 CB         -3.9121  -20.7686  -41.0289 C.3       9 UNK        -0.1800 
     29 N          -3.0975  -19.5484  -42.9780 N.am      9 UNK        -0.5000 
     30 C          -2.9236  -19.2077  -44.2622 C.2       8 UNK         0.5000 
     31 O          -3.1199  -19.9701  -45.2077 O.2       8 UNK        -0.5000 
     32 CA         -2.3936  -17.7856  -44.5311 C.3       8 UNK         0.1400 
     33 CB         -3.5551  -16.7896  -44.6481 C.3       8 UNK        -0.1800 
     34 N          -1.4405  -17.2968  -43.5317 N.am      8 UNK        -0.5000 
     35 C          -0.3241  -17.9150  -43.1213 C.2       7 UNK         0.5000 
     36 O           0.0318  -19.0196  -43.5287 O.2       7 UNK        -0.5000 
     37 CA          0.5335  -17.1952  -42.0676 C.3       7 UNK         0.1400 
     38 CB          1.6987  -16.4587  -42.7439 C.3       7 UNK        -0.1800 
     39 N          -0.2401  -16.2473  -41.2637 N.am      7 UNK        -0.5000 
     40 C          -1.0311  -16.5856  -40.2357 C.2       6 UNK         0.5000 
     41 O          -1.1896  -17.7441  -39.8497 O.2       6 UNK        -0.5000 
     42 CA         -1.7724  -15.4373  -39.5230 C.3       6 UNK         0.1400 
     43 CB         -0.9038  -14.8561  -38.3969 C.3       6 UNK        -0.1800 
     44 N          -2.1523  -14.3597  -40.4387 N.am      6 UNK        -0.5000 
     45 C          -3.1778  -14.4283  -41.2991 C.2       5 UNK         0.5000 
     46 O          -3.9569  -15.3794  -41.3556 O.2       5 UNK        -0.5000 
     47 CA         -3.3421  -13.2524  -42.2859 C.3       5 UNK         0.1400 
     48 CB         -4.2799  -12.1863  -41.6999 C.3       5 UNK        -0.1800 
     49 N          -2.0789  -12.6172  -42.6852 N.am      5 UNK        -0.5000 
     50 C          -1.0698  -13.2509  -43.2968 C.2       4 UNK         0.5000 
     51 O          -1.0872  -14.4570  -43.5471 O.2       4 UNK        -0.5000 
     52 CA          0.1865  -12.4185  -43.6183 C.3       4 UNK         0.1400 
     53 CB          0.9502  -12.0842  -42.3261 C.3       4 UNK        -0.1800 
     54 N           1.0907  -13.1455  -44.5102 N.am      4 UNK        -0.5000 
     55 C           0.8846  -13.3410  -45.8175 C.2       3 UNK         0.5000 
     56 O          -0.0205  -12.8047  -46.4616 O.2       3 UNK        -0.5000 
     57 CA          1.8456  -14.3197  -46.5187 C.3       3 UNK         0.1400 
     58 CB          1.1328  -15.6420  -46.8496 C.3       3 UNK        -0.1800 
     59 N           2.3890  -13.7428  -47.7467 N.am      3 UNK        -0.5000 
     60 C           3.2622  -12.7271  -47.7862 C.2       2 UNK         0.5000 
     61 O           3.7473  -12.2107  -46.7772 O.2       2 UNK        -0.5000 
     62 CA          3.6501  -12.2059  -49.1872 C.3       2 UNK         0.1400 
     63 CB          4.9404  -11.3589  -49.1802 C.3       2 UNK        -0.1800 
     64 N           3.7285  -13.2601  -50.2054 N.am      2 UNK        -0.5000 
     65 C           4.5542  -14.3164  -50.2348 C.2       1 UNK         0.5000 
     66 O           5.3659  -14.5809  -49.3461 O.2       1 UNK        -0.5000 
     67 C          -0.6464  -21.9349  -47.3869 C.2       11 UNK         0.5000 
     68 O          -0.3237  -22.3078  -48.5149 O.2       11 UNK        -0.5000 
     69 N          -1.8059  -22.2780  -46.8061 N.am      12 UNK        -0.5000 
     70 CA         -2.8190  -23.1823  -47.3554 C.3       12 UNK         0.1400 
     71 CB         -3.9687  -23.3219  -46.3484 C.3       12 UNK        -0.1800 
     72 C          -2.3030  -24.5696  -47.7875 C.2       12 UNK         0.5000 
     73 O          -2.9190  -25.1847  -48.6587 O.2       12 UNK        -0.5000 
     74 N          -1.1757  -25.0259  -47.2229 N.am      13 UNK        -0.5000 
     75 CA         -0.4799  -26.2412  -47.6500 C.3       13 UNK         0.1400 
     76 CB          0.5941  -26.5973  -46.6117 C.3       13 UNK        -0.1800 
     77 C           0.1484  -26.1213  -49.0551 C.2       13 UNK         0.5000 
     78 O           0.2363  -27.1267  -49.7606 O.2       13 UNK        -0.5000 
     79 N           0.5633  -24.9058  -49.4382 N.am      14 UNK        -0.5000 
     80 CA          1.1429  -24.5905  -50.7448 C.3       14 UNK         0.1400 
     81 CB          2.3134  -23.6153  -50.5552 C.3       14 UNK        -0.1800 
     82 C           0.0931  -23.9894  -51.6936 C.2       14 UNK         0.5000 
     83 O           0.1175  -24.2864  -52.8880 O.2       14 UNK        -0.5000 
     84 N          -0.8246  -23.1757  -51.1498 N.am      15 UNK        -0.5000 
     85 CA         -1.9290  -22.5505  -51.8823 C.3       15 UNK         0.1400 
     86 CB         -2.4507  -21.3403  -51.0900 C.3       15 UNK        -0.1800 
     87 C          -3.0669  -23.5208  -52.2659 C.2       15 UNK         0.5000 
     88 O          -3.9184  -23.1458  -53.0732 O.2       15 UNK        -0.5000 
     89 N          -3.0329  -24.7441  -51.7179 N.am      16 UNK        -0.5000 
     90 CA         -3.9285  -25.8750  -51.9696 C.3       16 UNK         0.1400 
     91 CB         -3.9521  -26.2643  -53.4637 C.3       16 UNK        -0.1800 
     92 C          -5.3269  -25.6535  -51.3667 C.2       16 UNK         0.5000 
     93 O          -6.3213  -25.5921  -52.0920 O.2       16 UNK        -0.5000 
     94 N          -5.3576  -25.5614  -50.0297 N.am      17 UNK        -0.5000 
     95 CA         -6.5417  -25.4535  -49.1700 C.3       17 UNK         0.1400 
     96 CB         -7.4233  -26.7160  -49.2787 C.3       17 UNK        -0.1800 
     97 C          -7.3251  -24.1422  -49.3799 C.2       17 UNK         0.5000 
     98 O          -8.5578  -24.1409  -49.3686 O.2       17 UNK        -0.5000 
     99 N          -6.5838  -23.0443  -49.5493 N.am      18 UNK        -0.5000 
    100 CA        -7.0893  -21.6825  -49.6608 C.3       18 UNK         0.1400 
    101 CB        -7.0665  -21.2605  -51.1360 C.3       18 UNK        -0.1800 
    102 C         -6.1849  -20.7756  -48.8198 C.2       18 UNK         0.5000 
    103 O         -4.9937  -21.0628  -48.6911 O.2       18 UNK        -0.5000 
    104 N         -6.7468  -19.6918  -48.2731 N.am      19 UNK        -0.5000 
    105 CA        -6.0601  -18.7340  -47.4021 C.3       19 UNK         0.1400 
    106 CB        -7.1181  -17.9433  -46.6114 C.3       19 UNK        -0.1800 
    107 C         -5.1015  -17.8176  -48.1915 C.2       19 UNK         0.5000 
    108 O         -5.3823  -16.6317  -48.3670 O.2       19 UNK        -0.5000 
    109 N         -4.0079  -18.4111  -48.6878 N.am      20 UNK        -0.5000 
    110 CA        -2.9312  -17.8207  -49.4946 C.3       20 UNK         0.1400 
    111 CB        -2.2332  -16.6760  -48.7327 C.3       20 UNK        -0.1800 
    112 C         -3.3480  -17.4064  -50.9247 C.2       20 UNK         0.5000 
    113 O         -2.5298  -16.8538  -51.6589 O.2       20 UNK        -0.5000 
    114 N         -4.5914  -17.7024  -51.3213 N.am      21 UNK        -0.5000 
    115 CA        -5.1246  -17.4869  -52.6635 C.3       21 UNK         0.1400 
    116 CB        -6.6239  -17.1572  -52.5513 C.3       21 UNK        -0.1800 
    117 C         -4.8526  -18.7430  -53.5081 C.2       21 UNK         0.5000 
    118 O         -5.7385  -19.5858  -53.6479 O.2       21 UNK        -0.5000 
    119 N         -3.6054  -18.8657  -53.9800 N.am      22 UNK        -0.5000 
    120 CA        -3.0229  -20.0372  -54.6569 C.3       22 UNK         0.1400 
    121 C         -3.8888  -20.6232  -55.8067 C.2       22 UNK         0.5000 
    122 N         -4.3470  -21.8614  -55.6755 N.am      22 UNK        -0.7600 
    123 O         -4.1118  -19.9752  -56.8267 O.2       22 UNK        -0.5000 
    124 C124       -1.5814  -19.7514  -55.1549 C.3       23 UNK        -0.0398 
    125 S125       -0.4793  -19.1351  -53.8366 S.3       23 UNK        -0.2404 
    126 C126        0.8616  -20.3662  -53.8309 C.3       23 UNK        -0.0205 
    127 H127       -0.0223  -15.8589  -51.0910 H         1 UNK         0.0600 
    128 H128        0.3364  -16.4993  -52.6934 H         1 UNK         0.0600 
    129 H129        0.9877  -17.2962  -51.2565 H         1 UNK         0.0600 
    130 H130        3.1963  -16.9260  -51.2067 H         1 UNK         0.3000 
    131 H131        4.4448  -14.5767  -52.3447 H         1 UNK         0.0600 
    132 H132        5.6556  -16.9111  -50.7888 H         1 UNK         0.0800 
    133 H133        6.5703  -15.6439  -51.5595 H         1 UNK         0.0800 
    134 H134        6.2803  -19.0049  -51.9067 H         1 UNK         0.0800 
    135 H135        5.8524  -19.4459  -53.5357 H         1 UNK         0.0800 
    136 H136        3.4254  -19.4986  -54.2512 H         1 UNK         0.1150 
    137 H137        0.6567  -20.4562  -51.1282 H         1 UNK         0.1150 
    138 H138        4.5836  -19.0432  -50.1490 H         1 UNK         0.1150 
    139 H139        2.2818  -20.8684  -48.7003 H         1 UNK         0.0800 
    140 H140        2.9931  -19.3001  -48.3923 H         1 UNK         0.0800 
    141 H141        1.1471  -19.1161  -46.2639 H         1 UNK         0.0800 
    142 H142       -0.5691  -19.1810  -46.5363 H         1 UNK         0.0800 
    143 H143        1.3512  -21.5334  -46.7734 H         1 UNK         0.0600 
    144 H144        0.0243  -20.5112  -44.5402 H         1 UNK         0.3000 
    145 H145       -0.2818  -23.4935  -42.6182 H         1 UNK         0.0600 
    146 H146        0.9858  -22.0121  -41.0731 H         1 UNK         0.0600 
    147 H147        2.0386  -22.6744  -42.3140 H         1 UNK         0.0600 
    148 H148        1.4996  -21.0041  -42.4243 H         1 UNK         0.0600 
    149 H149       -0.9512  -20.6076  -42.5551 H         1 UNK         0.3000 
    150 H150       -4.4046  -21.1624  -43.0799 H         1 UNK         0.0600 
    151 H151       -4.2516  -21.7327  -40.6476 H         1 UNK         0.0600 
    152 H152       -4.7260  -20.0580  -40.8836 H         1 UNK         0.0600 
    153 H153       -3.0720  -20.4477  -40.4113 H         1 UNK         0.0600 
    154 H154       -2.8979  -18.8568  -42.2694 H         1 UNK         0.3000 
    155 H155       -1.8762  -17.7946  -45.4881 H         1 UNK         0.0600 
    156 H156       -4.1162  -16.7140  -43.7165 H         1 UNK         0.0600 
    157 H157       -4.2523  -17.0944  -45.4272 H         1 UNK         0.0600 
    158 H158       -3.1970  -15.7931  -44.9079 H         1 UNK         0.0600 
    159 H159       -1.5795  -16.3419  -43.2181 H         1 UNK         0.3000 
    160 H160        0.9526  -17.9567  -41.4063 H         1 UNK         0.0600 
    161 H161        2.3292  -15.9557  -42.0106 H         1 UNK         0.0600 
    162 H162        1.3426  -15.7130  -43.4527 H         1 UNK         0.0600 
    163 H163        2.3318  -17.1555  -43.2949 H         1 UNK         0.0600 
    164 H164       -0.2236  -15.2845  -41.5660 H         1 UNK         0.3000 
    165 H165       -2.6772  -15.8523  -39.0734 H         1 UNK         0.0600 
    166 H166       -1.4413  -14.0872  -37.8416 H         1 UNK         0.0600 
    167 H167       -0.6194  -15.6313  -37.6840 H         1 UNK         0.0600 
    168 H168        0.0147  -14.4121  -38.7829 H         1 UNK         0.0600 
    169 H169       -1.5730  -13.5334  -40.4433 H         1 UNK         0.3000 
    170 H170       -3.8059  -13.6535  -43.1896 H         1 UNK         0.0600 
    171 H171       -5.2383  -12.6227  -41.4149 H         1 UNK         0.0600 
    172 H172       -3.8538  -11.7204  -40.8105 H         1 UNK         0.0600 
    173 H173       -4.4866  -11.3998  -42.4259 H         1 UNK         0.0600 
    174 H174       -1.9936  -11.6293  -42.4936 H         1 UNK         0.3000 
    175 H175       -0.1241  -11.4904  -44.1026 H         1 UNK         0.0600 
    176 H176        1.2618  -12.9853  -41.7959 H         1 UNK         0.0600 
    177 H177        1.8436  -11.4966  -42.5390 H         1 UNK         0.0600 
    178 H178        0.3366  -11.4963  -41.6426 H         1 UNK         0.0600 
    179 H179        1.8596  -13.6227  -44.0648 H         1 UNK         0.3000 
    180 H180        2.6796  -14.5434  -45.8497 H         1 UNK         0.0600 
    181 H181        0.3102  -15.4901  -47.5488 H         1 UNK         0.0600 
    182 H182        0.7162  -16.0995  -45.9510 H         1 UNK         0.0600 
    183 H183        1.8201  -16.3629  -47.2930 H         1 UNK         0.0600 
    184 H184        2.0195  -14.0944  -48.6168 H         1 UNK         0.3000 
    185 H185        2.8339  -11.5511  -49.4954 H         1 UNK         0.0600 
    186 H186        4.8345  -10.4889  -48.5311 H         1 UNK         0.0600 
    187 H187        5.7981  -11.9297  -48.8234 H         1 UNK         0.0600 
    188 H188        5.1749  -10.9892  -50.1783 H         1 UNK         0.0600 
    189 H189        3.0493  -13.1976  -50.9587 H         1 UNK         0.3000 
    190 H190       -2.0154  -21.8766  -45.9017 H         1 UNK         0.3000 
    191 H191       -3.2113  -22.7174  -48.2545 H         1 UNK         0.0600 
    192 H192       -3.6331  -23.7835  -45.4196 H         1 UNK         0.0600 
    193 H193       -4.7716  -23.9390  -46.7518 H         1 UNK         0.0600 
    194 H194       -4.4001  -22.3502  -46.1063 H         1 UNK         0.0600 
    195 H195       -0.7208  -24.4697  -46.5072 H         1 UNK         0.3000 
    196 H196       -1.2071  -27.0553  -47.6806 H         1 UNK         0.0600 
    197 H197        1.1025  -27.5252  -46.8772 H         1 UNK         0.0600 
    198 H198        0.1566  -26.7370  -45.6230 H         1 UNK         0.0600 
    199 H199        1.3525  -25.8171  -46.5347 H         1 UNK         0.0600 
    200 H200        0.3992  -24.1167  -48.8226 H         1 UNK         0.3000 
    201 H201        1.5352  -25.4965  -51.2115 H         1 UNK         0.0600 
    202 H202        3.0978  -24.0547  -49.9391 H         1 UNK         0.0600 
    203 H203        1.9875  -22.6941  -50.0753 H         1 UNK         0.0600 
    204 H204        2.7608  -23.3453  -51.5128 H         1 UNK         0.0600 
    205 H205       -0.7308  -22.9245  -50.1679 H         1 UNK         0.3000 
    206 H206       -1.5258  -22.1788  -52.8238 H         1 UNK         0.0600 
    207 H207       -3.3411  -20.9083  -51.5481 H         1 UNK         0.0600 
    208 H208       -1.6988  -20.5534  -51.0429 H         1 UNK         0.0600 
    209 H209       -2.7117  -21.6076  -50.0700 H         1 UNK         0.0600 
    210 H210       -2.3150  -24.9137  -51.0272 H         1 UNK         0.3000 
    211 H211       -3.4956  -26.7204  -51.4322 H         1 UNK         0.0600 
    212 H212       -4.4205  -25.4994  -54.0832 H         1 UNK         0.0600 
    213 H213       -4.5134  -27.1872  -53.6125 H         1 UNK         0.0600 
    214 H214       -2.9439  -26.4320  -53.8427 H         1 UNK         0.0600 
    215 H215       -4.4647  -25.5636  -49.5382 H         1 UNK         0.3000 
    216 H216       -6.1649  -25.4147  -48.1474 H         1 UNK         0.0600 
    217 H217       -7.8939  -26.8010  -50.2585 H         1 UNK         0.0600 
    218 H218       -8.2207  -26.7004  -48.5350 H         1 UNK         0.0600 
    219 H219       -6.8395  -27.6203  -49.1069 H         1 UNK         0.0600 
    220 H220       -5.5766  -23.1144  -49.5001 H         1 UNK         0.3000 
    221 H221       -8.1084  -21.6166  -49.2742 H         1 UNK         0.0600 
    222 H222       -6.0579  -21.3087  -51.5498 H         1 UNK         0.0600 
    223 H223       -7.7027  -21.9069  -51.7405 H         1 UNK         0.0600 
    224 H224       -7.4277  -20.2397  -51.2602 H         1 UNK         0.0600 
    225 H225       -7.7234  -19.5060  -48.4508 H         1 UNK         0.3000 
    226 H226       -5.4575  -19.2898  -46.6798 H         1 UNK         0.0600 
    227 H227       -7.7256  -18.6066  -45.9955 H         1 UNK         0.0600 
    228 H228       -6.6506  -17.2206  -45.9419 H         1 UNK         0.0600 
    229 H229       -7.7883  -17.3922  -47.2723 H         1 UNK         0.0600 
    230 H230       -3.9471  -19.4170  -48.5511 H         1 UNK         0.3000 
    231 H231       -2.1975  -18.6163  -49.6240 H         1 UNK         0.0600 
    232 H232       -1.9316  -16.9922  -47.7352 H         1 UNK         0.0600 
    233 H233       -2.8745  -15.8005  -48.6305 H         1 UNK         0.0600 
    234 H234       -1.3301  -16.3579  -49.2515 H         1 UNK         0.0600 
    235 H235       -5.1959  -18.1747  -50.6669 H         1 UNK         0.3000 
    236 H236       -4.6301  -16.6365  -53.1381 H         1 UNK         0.0600 
    237 H237       -7.0660  -17.0156  -53.5382 H         1 UNK         0.0600 
    238 H238       -7.1810  -17.9500  -52.0516 H         1 UNK         0.0600 
    239 H239       -6.7807  -16.2364  -51.9892 H         1 UNK         0.0600 
    240 H240       -2.9454  -18.1315  -53.7601 H         1 UNK         0.3000 
    241 H241       -2.9520  -20.8012  -53.8885 H         1 UNK         0.0600 
    242 H242       -4.9037  -22.2629  -56.4129 H         1 UNK         0.3800 
    243 H243       -4.2203  -22.3758  -54.8067 H         1 UNK         0.3800 
    244 H244       -1.1476  -20.6531  -55.5908 H         1 UNK         0.0800 
    245 H245       -1.5964  -19.0064  -55.9523 H         1 UNK         0.0800 
    246 H246        1.3008  -20.4230  -54.8280 H         1 UNK         0.0800 
    247 H247        0.4639  -21.3562  -53.6095 H         1 UNK         0.0800 
@<TRIPOS>BOND
     1    1    2 1    
     2    1  127 1    
     3    1  128 1    
     4    1  129 1    
     5    2    3 2    
     6    2    4 am   BACKBONE|DICT|INTERRES
     7    4    5 1    
     8    4  130 1    
     9    5    6 1    
    10    5   65 1    
    11    5  131 1    
    12    6    7 1    
    13    6  132 1    
    14    6  133 1    
    15    7    8 1    
    16    8    9 1    
    17    8  134 1    
    18    8  135 1    
    19    9   10 ar   
    20    9   14 ar   
    21   10   11 ar   
    22   10  136 1    
    23   11   12 ar   
    24   11  126 1    
    25   12   13 ar   
    26   12  137 1    
    27   13   14 ar   
    28   13   15 1    
    29   14  138 1    
    30   15   16 1    
    31   15  139 1    
    32   15  140 1    
    33   16   17 1    
    34   17   18 1    
    35   17  141 1    
    36   17  142 1    
    37   18   19 1    
    38   18   67 1    
    39   18  143 1    
    40   19   20 am   BACKBONE|DICT|INTERRES
    41   19  144 1    
    42   20   21 2    
    43   20   22 1    
    44   22   23 1    
    45   22   24 1    
    46   22  145 1    
    47   23  146 1    
    48   23  147 1    
    49   23  148 1    
    50   24   25 am   BACKBONE|DICT|INTERRES
    51   24  149 1    
    52   25   26 2    
    53   25   27 1    
    54   27   28 1    
    55   27   29 1    
    56   27  150 1    
    57   28  151 1    
    58   28  152 1    
    59   28  153 1    
    60   29   30 am   BACKBONE|DICT|INTERRES
    61   29  154 1    
    62   30   31 2    
    63   30   32 1    
    64   32   33 1    
    65   32   34 1    
    66   32  155 1    
    67   33  156 1    
    68   33  157 1    
    69   33  158 1    
    70   34   35 am   BACKBONE|DICT|INTERRES
    71   34  159 1    
    72   35   36 2    
    73   35   37 1    
    74   37   38 1    
    75   37   39 1    
    76   37  160 1    
    77   38  161 1    
    78   38  162 1    
    79   38  163 1    
    80   39   40 am   BACKBONE|DICT|INTERRES
    81   39  164 1    
    82   40   41 2    
    83   40   42 1    
    84   42   43 1    
    85   42   44 1    
    86   42  165 1    
    87   43  166 1    
    88   43  167 1    
    89   43  168 1    
    90   44   45 am   BACKBONE|DICT|INTERRES
    91   44  169 1    
    92   45   46 2    
    93   45   47 1    
    94   47   48 1    
    95   47   49 1    
    96   47  170 1    
    97   48  171 1    
    98   48  172 1    
    99   48  173 1    
   100   49   50 am   BACKBONE|DICT|INTERRES
   101   49  174 1    
   102   50   51 2    
   103   50   52 1    
   104   52   53 1    
   105   52   54 1    
   106   52  175 1    
   107   53  176 1    
   108   53  177 1    
   109   53  178 1    
   110   54   55 am   BACKBONE|DICT|INTERRES
   111   54  179 1    
   112   55   56 2    
   113   55   57 1    
   114   57   58 1    
   115   57   59 1    
   116   57  180 1    
   117   58  181 1    
   118   58  182 1    
   119   58  183 1    
   120   59   60 am   BACKBONE|DICT|INTERRES
   121   59  184 1    
   122   60   61 2    
   123   60   62 1    
   124   62   63 1    
   125   62   64 1    
   126   62  185 1    
   127   63  186 1    
   128   63  187 1    
   129   63  188 1    
   130   64   65 am   BACKBONE|DICT|INTERRES
   131   64  189 1    
   132   65   66 2    
   133   67   68 2    
   134   67   69 am   BACKBONE|DICT|INTERRES
   135   69   70 1    
   136   69  190 1    
   137   70   71 1    
   138   70   72 1    
   139   70  191 1    
   140   71  192 1    
   141   71  193 1    
   142   71  194 1    
   143   72   73 2    
   144   72   74 am   BACKBONE|DICT|INTERRES
   145   74   75 1    
   146   74  195 1    
   147   75   76 1    
   148   75   77 1    
   149   75  196 1    
   150   76  197 1    
   151   76  198 1    
   152   76  199 1    
   153   77   78 2    
   154   77   79 am   BACKBONE|DICT|INTERRES
   155   79   80 1    
   156   79  200 1    
   157   80   81 1    
   158   80   82 1    
   159   80  201 1    
   160   81  202 1    
   161   81  203 1    
   162   81  204 1    
   163   82   83 2    
   164   82   84 am   BACKBONE|DICT|INTERRES
   165   84   85 1    
   166   84  205 1    
   167   85   86 1    
   168   85   87 1    
   169   85  206 1    
   170   86  207 1    
   171   86  208 1    
   172   86  209 1    
   173   87   88 2    
   174   87   89 am   BACKBONE|DICT|INTERRES
   175   89   90 1    
   176   89  210 1    
   177   90   91 1    
   178   90   92 1    
   179   90  211 1    
   180   91  212 1    
   181   91  213 1    
   182   91  214 1    
   183   92   93 2    
   184   92   94 am   BACKBONE|DICT|INTERRES
   185   94   95 1    
   186   94  215 1    
   187   95   96 1    
   188   95   97 1    
   189   95  216 1    
   190   96  217 1    
   191   96  218 1    
   192   96  219 1    
   193   97   98 2    
   194   97   99 am   BACKBONE|DICT|INTERRES
   195   99  100 1    
   196   99  220 1    
   197  100  101 1    
   198  100  102 1    
   199  100  221 1    
   200  101  222 1    
   201  101  223 1    
   202  101  224 1    
   203  102  103 2    
   204  102  104 am   BACKBONE|DICT|INTERRES
   205  104  105 1    
   206  104  225 1    
   207  105  106 1    
   208  105  107 1    
   209  105  226 1    
   210  106  227 1    
   211  106  228 1    
   212  106  229 1    
   213  107  108 2    
   214  107  109 am   BACKBONE|DICT|INTERRES
   215  109  110 1    
   216  109  230 1    
   217  110  111 1    
   218  110  112 1    
   219  110  231 1    
   220  111  232 1    
   221  111  233 1    
   222  111  234 1    
   223  112  113 2    
   224  112  114 am   BACKBONE|DICT|INTERRES
   225  114  115 1    
   226  114  235 1    
   227  115  116 1    
   228  115  117 1    
   229  115  236 1    
   230  116  237 1    
   231  116  238 1    
   232  116  239 1    
   233  117  118 2    
   234  117  119 am   BACKBONE|DICT|INTERRES
   235  119  120 1    
   236  119  240 1    
   237  120  121 1    
   238  120  124 1    
   239  120  241 1    
   240  121  122 am   BACKBONE|DICT|INTERRES
   241  121  123 2    
   242  122  242 1    
   243  122  243 1    
   244  124  125 1    
   245  124  244 1    
   246  124  245 1    
   247  125  126 1    
   248  126  246 1    
   249  126  247 1    
@<TRIPOS>SUBSTRUCTURE
     1 UNK         1 GROUP             0       ****    0 ROOT    
