@<TRIPOS>MOLECULE
3R540
247   249    1
SMALL
USER_CHARGES


@<TRIPOS>ATOM
      1 CA          7.9336  -11.1039  -48.6181 C.3       0 UNK        -0.1800 
      2 C           6.8509  -11.9957  -48.0277 C.2       0 UNK         0.5000 
      3 O           6.3192  -11.6923  -46.9588 O.2       0 UNK        -0.5000 
      4 N           6.5157  -13.0918  -48.7185 N.am      1 UNK        -0.5000 
      5 CA          5.4885  -14.0681  -48.3398 C.3       1 UNK         0.1400 
      6 C6          5.7826  -15.4755  -48.9250 C.3       23 UNK        -0.0398 
      7 S7          6.0229  -15.5143  -50.7377 S.3       23 UNK        -0.2404 
      8 C8          6.0876  -17.3124  -51.0488 C.3       23 UNK        -0.0205 
      9 C9          4.8101  -18.0890  -50.7223 C.ar      23 UNK        -0.0193 
     10 C10         3.5367  -17.5053  -50.7889 C.ar      23 UNK        -0.1150 
     11 C11         2.3929  -18.2581  -50.5075 C.ar      23 UNK        -0.0193 
     12 C12         2.5217  -19.6075  -50.1740 C.ar      23 UNK        -0.1150 
     13 C13         3.7812  -20.2056  -50.1063 C.ar      23 UNK        -0.0193 
     14 C14         4.9185  -19.4415  -50.3807 C.ar      23 UNK        -0.1150 
     15 C15         3.9079  -21.6842  -49.7705 C.3       23 UNK        -0.0205 
     16 S16         4.5101  -21.9834  -48.0763 S.3       23 UNK        -0.2404 
     17 C17         3.2278  -21.2196  -47.0262 C.3       23 UNK        -0.0398 
     18 CA          2.0141  -22.1512  -46.7598 C.3       11 UNK         0.1400 
     19 N           1.5547  -22.0589  -45.3748 N.am      11 UNK        -0.5000 
     20 C           0.8050  -22.9645  -44.7361 C.2       10 UNK         0.5000 
     21 O           0.4290  -24.0140  -45.2572 O.2       10 UNK        -0.5000 
     22 CA          0.3584  -22.6158  -43.2987 C.3       10 UNK         0.1400 
     23 CB          0.2871  -23.8540  -42.3824 C.3       10 UNK        -0.1800 
     24 N           1.1336  -21.5332  -42.6776 N.am      10 UNK        -0.5000 
     25 C           2.4306  -21.5347  -42.3302 C.2       9 UNK         0.5000 
     26 O           3.1673  -22.5142  -42.4471 O.2       9 UNK        -0.5000 
     27 CA          3.0268  -20.2130  -41.7967 C.3       9 UNK         0.1400 
     28 CB          4.0467  -19.6493  -42.7995 C.3       9 UNK        -0.1800 
     29 N           2.0253  -19.1793  -41.5269 N.am      9 UNK        -0.5000 
     30 C           1.2064  -19.1501  -40.4671 C.2       8 UNK         0.5000 
     31 O           1.2534  -19.9625  -39.5431 O.2       8 UNK        -0.5000 
     32 CA          0.1164  -18.0588  -40.4714 C.3       8 UNK         0.1400 
     33 CB          0.6436  -16.7518  -39.8605 C.3       8 UNK        -0.1800 
     34 N          -0.4206  -17.7960  -41.8111 N.am      8 UNK        -0.5000 
     35 C          -1.0876  -18.6972  -42.5474 C.2       7 UNK         0.5000 
     36 O          -1.3549  -19.8332  -42.1574 O.2       7 UNK        -0.5000 
     37 CA         -1.4674  -18.2942  -43.9802 C.3       7 UNK         0.1400 
     38 CB         -2.7536  -17.4563  -43.9945 C.3       7 UNK        -0.1800 
     39 N          -0.3857  -17.5793  -44.6598 N.am      7 UNK        -0.5000 
     40 C           0.7633  -18.1478  -45.0509 C.2       6 UNK         0.5000 
     41 O           0.9760  -19.3565  -44.9773 O.2       6 UNK        -0.5000 
     42 CA          1.8714  -17.2331  -45.6005 C.3       6 UNK         0.1400 
     43 CB          1.7350  -17.0442  -47.1160 C.3       6 UNK        -0.1800 
     44 N           1.9025  -15.9301  -44.9468 N.am      6 UNK        -0.5000 
     45 C           2.2064  -15.7297  -43.6590 C.2       5 UNK         0.5000 
     46 O           2.5292  -16.6297  -42.8845 O.2       5 UNK        -0.5000 
     47 CA          2.0737  -14.2873  -43.1457 C.3       5 UNK         0.1400 
     48 CB          3.3036  -13.4511  -43.5325 C.3       5 UNK        -0.1800 
     49 N           0.8620  -13.6430  -43.6535 N.am      5 UNK        -0.5000 
     50 C          -0.3826  -13.9679  -43.2786 C.2       4 UNK         0.5000 
     51 O          -0.6398  -14.8365  -42.4443 O.2       4 UNK        -0.5000 
     52 CA         -1.5308  -13.2180  -43.9803 C.3       4 UNK         0.1400 
     53 CB         -1.7381  -11.8317  -43.3521 C.3       4 UNK        -0.1800 
     54 N          -1.3164  -13.0719  -45.4221 N.am      4 UNK        -0.5000 
     55 C          -1.3328  -14.0937  -46.2889 C.2       3 UNK         0.5000 
     56 O          -1.5398  -15.2603  -45.9629 O.2       3 UNK        -0.5000 
     57 CA         -1.0200  -13.7738  -47.7626 C.3       3 UNK         0.1400 
     58 CB         -2.2873  -13.3081  -48.4945 C.3       3 UNK        -0.1800 
     59 N           0.0546  -12.7964  -47.9725 N.am      3 UNK        -0.5000 
     60 C           1.2892  -12.8881  -47.4610 C.2       2 UNK         0.5000 
     61 O           1.6192  -13.7155  -46.6100 O.2       2 UNK        -0.5000 
     62 CA          2.3340  -11.8795  -47.9719 C.3       2 UNK         0.1400 
     63 CB          2.3302  -10.6192  -47.0941 C.3       2 UNK        -0.1800 
     64 N           3.6810  -12.4541  -47.9661 N.am      2 UNK        -0.5000 
     65 C           4.0650  -13.5438  -48.6456 C.2       1 UNK         0.5000 
     66 O           3.3495  -14.1092  -49.4744 O.2       1 UNK        -0.5000 
     67 C           0.8501  -21.8507  -47.7226 C.2       11 UNK         0.5000 
     68 O           0.6459  -22.5843  -48.6885 O.2       11 UNK        -0.5000 
     69 N           0.0712  -20.8004  -47.4171 N.am      12 UNK        -0.5000 
     70 CA         -1.1083  -20.4042  -48.1946 C.3       12 UNK         0.1400 
     71 CB         -1.5746  -19.0079  -47.7580 C.3       12 UNK        -0.1800 
     72 C          -2.2632  -21.4153  -48.0719 C.2       12 UNK         0.5000 
     73 O          -3.0574  -21.5434  -49.0042 O.2       12 UNK        -0.5000 
     74 N          -2.3122  -22.1215  -46.9338 N.am      13 UNK        -0.5000 
     75 CA         -3.2579  -23.1981  -46.6440 C.3       13 UNK         0.1400 
     76 CB         -3.2969  -23.4287  -45.1254 C.3       13 UNK        -0.1800 
     77 C          -2.9177  -24.5094  -47.3806 C.2       13 UNK         0.5000 
     78 O          -3.8156  -25.3176  -47.6132 O.2       13 UNK        -0.5000 
     79 N          -1.6387  -24.6984  -47.7376 N.am      14 UNK        -0.5000 
     80 CA         -1.1422  -25.8521  -48.4923 C.3       14 UNK         0.1400 
     81 CB          0.3544  -26.0394  -48.1946 C.3       14 UNK        -0.1800 
     82 C          -1.3882  -25.7305  -50.0102 C.2       14 UNK         0.5000 
     83 O          -1.2318  -26.7210  -50.7265 O.2       14 UNK        -0.5000 
     84 N          -1.7648  -24.5315  -50.4747 N.am      15 UNK        -0.5000 
     85 CA         -2.1802  -24.2431  -51.8463 C.3       15 UNK         0.1400 
     86 CB         -1.9401  -22.7470  -52.1164 C.3       15 UNK        -0.1800 
     87 C          -3.6517  -24.6521  -52.0854 C.2       15 UNK         0.5000 
     88 O          -4.2226  -25.4237  -51.3100 O.2       15 UNK        -0.5000 
     89 N          -4.2669  -24.1114  -53.1457 N.am      16 UNK        -0.5000 
     90 CA         -5.6697  -24.3186  -53.5257 C.3       16 UNK         0.1400 
     91 CB         -5.8383  -23.9370  -55.0076 C.3       16 UNK        -0.1800 
     92 C          -6.6579  -23.5609  -52.6085 C.2       16 UNK         0.5000 
     93 O          -7.5263  -22.8356  -53.0962 O.2       16 UNK        -0.5000 
     94 N          -6.5113  -23.7481  -51.2904 N.am      17 UNK        -0.5000 
     95 CA         -7.1999  -23.0336  -50.2116 C.3       17 UNK         0.1400 
     96 CB         -6.6563  -23.5338  -48.8675 C.3       17 UNK        -0.1800 
     97 C          -8.7376  -23.1143  -50.2459 C.2       17 UNK         0.5000 
     98 O          -9.3996  -22.2187  -49.7208 O.2       17 UNK        -0.5000 
     99 N          -9.2765  -24.1624  -50.8838 N.am      18 UNK        -0.5000 
    100 CA       -10.7034  -24.3326  -51.1597 C.3       18 UNK         0.1400 
    101 CB       -10.9452  -25.7576  -51.6803 C.3       18 UNK        -0.1800 
    102 C        -11.2582  -23.2920  -52.1548 C.2       18 UNK         0.5000 
    103 O        -12.4411  -22.9580  -52.0741 O.2       18 UNK        -0.5000 
    104 N        -10.4040  -22.7938  -53.0602 N.am      19 UNK        -0.5000 
    105 CA       -10.7124  -21.6963  -53.9723 C.3       19 UNK         0.1400 
    106 CB        -9.9734  -21.8996  -55.3059 C.3       19 UNK        -0.1800 
    107 C        -10.3393  -20.3560  -53.3203 C.2       19 UNK         0.5000 
    108 O        -11.1991  -19.4819  -53.2017 O.2       19 UNK        -0.5000 
    109 N         -9.0801  -20.2298  -52.8819 N.am      20 UNK        -0.5000 
    110 CA        -8.5361  -19.0621  -52.1932 C.3       20 UNK         0.1400 
    111 CB        -8.3899  -17.8734  -53.1634 C.3       20 UNK        -0.1800 
    112 C         -7.1699  -19.4227  -51.6000 C.2       20 UNK         0.5000 
    113 O         -6.4290  -20.2014  -52.2042 O.2       20 UNK        -0.5000 
    114 N         -6.8337  -18.8299  -50.4473 N.am      21 UNK        -0.5000 
    115 CA        -5.5248  -18.9651  -49.8033 C.3       21 UNK         0.1400 
    116 CB        -5.5380  -18.2164  -48.4615 C.3       21 UNK        -0.1800 
    117 C         -4.4021  -18.4454  -50.7225 C.2       21 UNK         0.5000 
    118 O         -4.5176  -17.3392  -51.2546 O.2       21 UNK        -0.5000 
    119 N         -3.3666  -19.2701  -50.9135 N.am      22 UNK        -0.5000 
    120 CA        -2.2992  -19.0902  -51.9142 C.3       22 UNK         0.1400 
    121 C         -2.7355  -19.3961  -53.3847 C.2       22 UNK         0.5000 
    122 N         -3.9342  -19.9059  -53.6463 N.am      22 UNK        -0.7600 
    123 O         -1.9607  -19.2039  -54.3168 O.2       22 UNK        -0.5000 
    124 C124       -1.5393  -17.7356  -51.7710 C.3       23 UNK        -0.0398 
    125 S125        0.2362  -17.8773  -52.1793 S.3       23 UNK        -0.2404 
    126 C126        1.0123  -17.6262  -50.5562 C.3       23 UNK        -0.0205 
    127 H127        7.5384  -10.1044  -48.7992 H         1 UNK         0.0600 
    128 H128        8.3121  -11.4967  -49.5621 H         1 UNK         0.0600 
    129 H129        8.7703  -11.0207  -47.9244 H         1 UNK         0.0600 
    130 H130        6.9641  -13.2748  -49.6056 H         1 UNK         0.3000 
    131 H131        5.5276  -14.1847  -47.2542 H         1 UNK         0.0600 
    132 H132        6.6885  -15.8719  -48.4646 H         1 UNK         0.0800 
    133 H133        4.9875  -16.1695  -48.6479 H         1 UNK         0.0800 
    134 H134        6.9267  -17.7231  -50.4849 H         1 UNK         0.0800 
    135 H135        6.3200  -17.4694  -52.1027 H         1 UNK         0.0800 
    136 H136        3.4276  -16.4648  -51.0598 H         1 UNK         0.1150 
    137 H137        1.6361  -20.1939  -49.9780 H         1 UNK         0.1150 
    138 H138        5.8925  -19.9088  -50.3365 H         1 UNK         0.1150 
    139 H139        2.9578  -22.1983  -49.9173 H         1 UNK         0.0800 
    140 H140        4.6043  -22.1473  -50.4710 H         1 UNK         0.0800 
    141 H141        2.9365  -20.2463  -47.4236 H         1 UNK         0.0800 
    142 H142        3.7290  -20.9916  -46.0841 H         1 UNK         0.0800 
    143 H143        2.3200  -23.1866  -46.9267 H         1 UNK         0.0600 
    144 H144        1.7067  -21.1694  -44.9112 H         1 UNK         0.3000 
    145 H145       -0.6566  -22.2288  -43.3954 H         1 UNK         0.0600 
    146 H146       -0.0382  -23.5823  -41.3782 H         1 UNK         0.0600 
    147 H147       -0.4266  -24.5837  -42.7666 H         1 UNK         0.0600 
    148 H148        1.2513  -24.3558  -42.3003 H         1 UNK         0.0600 
    149 H149        0.6139  -20.6772  -42.5285 H         1 UNK         0.3000 
    150 H150        3.5508  -20.4417  -40.8665 H         1 UNK         0.0600 
    151 H151        4.8476  -20.3644  -42.9916 H         1 UNK         0.0600 
    152 H152        4.5101  -18.7379  -42.4210 H         1 UNK         0.0600 
    153 H153        3.5800  -19.4144  -43.7563 H         1 UNK         0.0600 
    154 H154        1.9738  -18.4145  -42.1931 H         1 UNK         0.3000 
    155 H155       -0.7072  -18.4141  -39.8488 H         1 UNK         0.0600 
    156 H156        1.0099  -16.9154  -38.8464 H         1 UNK         0.0600 
    157 H157       -0.1418  -15.9978  -39.8054 H         1 UNK         0.0600 
    158 H158        1.4656  -16.3354  -40.4425 H         1 UNK         0.0600 
    159 H159       -0.2737  -16.8652  -42.1871 H         1 UNK         0.3000 
    160 H160       -1.6650  -19.2178  -44.5270 H         1 UNK         0.0600 
    161 H161       -2.6106  -16.4885  -43.5134 H         1 UNK         0.0600 
    162 H162       -3.5614  -17.9689  -43.4708 H         1 UNK         0.0600 
    163 H163       -3.0931  -17.2765  -45.0146 H         1 UNK         0.0600 
    164 H164       -0.5397  -16.5936  -44.8448 H         1 UNK         0.3000 
    165 H165        2.8267  -17.7254  -45.4090 H         1 UNK         0.0600 
    166 H166        2.5707  -16.4721  -47.5200 H         1 UNK         0.0600 
    167 H167        1.7244  -18.0068  -47.6271 H         1 UNK         0.0600 
    168 H168        0.8176  -16.5154  -47.3745 H         1 UNK         0.0600 
    169 H169        1.6825  -15.1206  -45.5263 H         1 UNK         0.3000 
    170 H170        2.0138  -14.3227  -42.0559 H         1 UNK         0.0600 
    171 H171        4.2173  -13.8999  -43.1410 H         1 UNK         0.0600 
    172 H172        3.4173  -13.3689  -44.6141 H         1 UNK         0.0600 
    173 H173        3.2373  -12.4420  -43.1258 H         1 UNK         0.0600 
    174 H174        0.9837  -12.9821  -44.4071 H         1 UNK         0.3000 
    175 H175       -2.4443  -13.7976  -43.8302 H         1 UNK         0.0600 
    176 H176       -1.9144  -11.9125  -42.2786 H         1 UNK         0.0600 
    177 H177       -0.8689  -11.1885  -43.4948 H         1 UNK         0.0600 
    178 H178       -2.6029  -11.3285  -43.7851 H         1 UNK         0.0600 
    179 H179       -1.1239  -12.1443  -45.7701 H         1 UNK         0.3000 
    180 H180       -0.6923  -14.7063  -48.2265 H         1 UNK         0.0600 
    181 H181       -2.6409  -12.3481  -48.1164 H         1 UNK         0.0600 
    182 H182       -3.0971  -14.0287  -48.3714 H         1 UNK         0.0600 
    183 H183       -2.1094  -13.2035  -49.5650 H         1 UNK         0.0600 
    184 H184       -0.1360  -12.0682  -48.6455 H         1 UNK         0.3000 
    185 H185        2.0876  -11.6032  -48.9989 H         1 UNK         0.0600 
    186 H186        1.3485  -10.1438  -47.0928 H         1 UNK         0.0600 
    187 H187        2.5855  -10.8503  -46.0588 H         1 UNK         0.0600 
    188 H188        3.0465   -9.8826  -47.4588 H         1 UNK         0.0600 
    189 H189        4.3534  -12.0409  -47.3292 H         1 UNK         0.3000 
    190 H190        0.2889  -20.2604  -46.5857 H         1 UNK         0.3000 
    191 H191       -0.8172  -20.3546  -49.2458 H         1 UNK         0.0600 
    192 H192       -2.0428  -19.0245  -46.7754 H         1 UNK         0.0600 
    193 H193       -2.3068  -18.6060  -48.4556 H         1 UNK         0.0600 
    194 H194       -0.7520  -18.2980  -47.7239 H         1 UNK         0.0600 
    195 H195       -1.6111  -21.9382  -46.2333 H         1 UNK         0.3000 
    196 H196       -4.2510  -22.8779  -46.9632 H         1 UNK         0.0600 
    197 H197       -4.0436  -24.1803  -44.8662 H         1 UNK         0.0600 
    198 H198       -3.5584  -22.5147  -44.5917 H         1 UNK         0.0600 
    199 H199       -2.3370  -23.7789  -44.7450 H         1 UNK         0.0600 
    200 H200       -0.9528  -23.9959  -47.4987 H         1 UNK         0.3000 
    201 H201       -1.6663  -26.7464  -48.1490 H         1 UNK         0.0600 
    202 H202        0.5335  -26.1510  -47.1251 H         1 UNK         0.0600 
    203 H203        0.9471  -25.1958  -48.5477 H         1 UNK         0.0600 
    204 H204        0.7399  -26.9353  -48.6828 H         1 UNK         0.0600 
    205 H205       -1.8882  -23.7867  -49.8047 H         1 UNK         0.3000 
    206 H206       -1.5584  -24.8208  -52.5330 H         1 UNK         0.0600 
    207 H207       -0.9401  -22.4425  -51.8056 H         1 UNK         0.0600 
    208 H208       -2.0271  -22.5141  -53.1781 H         1 UNK         0.0600 
    209 H209       -2.6603  -22.1279  -51.5819 H         1 UNK         0.0600 
    210 H210       -3.7518  -23.4569  -53.7161 H         1 UNK         0.3000 
    211 H211       -5.9000  -25.3816  -53.4300 H         1 UNK         0.0600 
    212 H212       -6.8552  -24.1328  -55.3506 H         1 UNK         0.0600 
    213 H213       -5.1672  -24.5144  -55.6436 H         1 UNK         0.0600 
    214 H214       -5.6336  -22.8786  -55.1749 H         1 UNK         0.0600 
    215 H215       -5.7728  -24.3864  -51.0063 H         1 UNK         0.3000 
    216 H216       -6.9329  -21.9818  -50.3018 H         1 UNK         0.0600 
    217 H217       -7.0991  -22.9876  -48.0337 H         1 UNK         0.0600 
    218 H218       -5.5774  -23.3926  -48.8146 H         1 UNK         0.0600 
    219 H219       -6.8627  -24.5943  -48.7182 H         1 UNK         0.0600 
    220 H220       -8.6512  -24.8495  -51.2781 H         1 UNK         0.3000 
    221 H221      -11.2465  -24.2139  -50.2198 H         1 UNK         0.0600 
    222 H222      -10.4092  -25.9419  -52.6122 H         1 UNK         0.0600 
    223 H223      -10.6234  -26.5036  -50.9534 H         1 UNK         0.0600 
    224 H224      -12.0054  -25.9284  -51.8720 H         1 UNK         0.0600 
    225 H225       -9.4280  -23.0723  -53.0215 H         1 UNK         0.3000 
    226 H226      -11.7830  -21.6833  -54.1881 H         1 UNK         0.0600 
    227 H227      -10.2667  -22.8378  -55.7770 H         1 UNK         0.0600 
    228 H228      -10.2087  -21.0967  -56.0054 H         1 UNK         0.0600 
    229 H229       -8.8906  -21.9154  -55.1799 H         1 UNK         0.0600 
    230 H230       -8.4239  -20.9994  -52.9970 H         1 UNK         0.3000 
    231 H231       -9.2114  -18.7911  -51.3791 H         1 UNK         0.0600 
    232 H232       -9.3555  -17.5379  -53.5408 H         1 UNK         0.0600 
    233 H233       -7.7671  -18.1333  -54.0204 H         1 UNK         0.0600 
    234 H234       -7.9256  -17.0193  -52.6686 H         1 UNK         0.0600 
    235 H235       -7.4742  -18.1725  -50.0270 H         1 UNK         0.3000 
    236 H236       -5.3607  -20.0261  -49.6023 H         1 UNK         0.0600 
    237 H237       -4.5957  -18.3465  -47.9297 H         1 UNK         0.0600 
    238 H238       -5.6929  -17.1455  -48.5990 H         1 UNK         0.0600 
    239 H239       -6.3282  -18.5894  -47.8097 H         1 UNK         0.0600 
    240 H240       -3.3639  -20.1607  -50.4260 H         1 UNK         0.3000 
    241 H241       -1.5910  -19.8825  -51.6725 H         1 UNK         0.0600 
    242 H242       -4.1768  -20.0926  -54.6053 H         1 UNK         0.3800 
    243 H243       -4.6389  -20.0429  -52.9281 H         1 UNK         0.3800 
    244 H244       -1.9878  -16.9679  -52.4039 H         1 UNK         0.0800 
    245 H245       -1.6292  -17.3555  -50.7528 H         1 UNK         0.0800 
    246 H246        1.0698  -16.5585  -50.3372 H         1 UNK         0.0800 
    247 H247        0.3905  -18.0698  -49.7797 H         1 UNK         0.0800 
@<TRIPOS>BOND
     1    1    2 1    
     2    1  127 1    
     3    1  128 1    
     4    1  129 1    
     5    2    3 2    
     6    2    4 am   BACKBONE|DICT|INTERRES
     7    4    5 1    
     8    4  130 1    
     9    5    6 1    
    10    5   65 1    
    11    5  131 1    
    12    6    7 1    
    13    6  132 1    
    14    6  133 1    
    15    7    8 1    
    16    8    9 1    
    17    8  134 1    
    18    8  135 1    
    19    9   10 ar   
    20    9   14 ar   
    21   10   11 ar   
    22   10  136 1    
    23   11   12 ar   
    24   11  126 1    
    25   12   13 ar   
    26   12  137 1    
    27   13   14 ar   
    28   13   15 1    
    29   14  138 1    
    30   15   16 1    
    31   15  139 1    
    32   15  140 1    
    33   16   17 1    
    34   17   18 1    
    35   17  141 1    
    36   17  142 1    
    37   18   19 1    
    38   18   67 1    
    39   18  143 1    
    40   19   20 am   BACKBONE|DICT|INTERRES
    41   19  144 1    
    42   20   21 2    
    43   20   22 1    
    44   22   23 1    
    45   22   24 1    
    46   22  145 1    
    47   23  146 1    
    48   23  147 1    
    49   23  148 1    
    50   24   25 am   BACKBONE|DICT|INTERRES
    51   24  149 1    
    52   25   26 2    
    53   25   27 1    
    54   27   28 1    
    55   27   29 1    
    56   27  150 1    
    57   28  151 1    
    58   28  152 1    
    59   28  153 1    
    60   29   30 am   BACKBONE|DICT|INTERRES
    61   29  154 1    
    62   30   31 2    
    63   30   32 1    
    64   32   33 1    
    65   32   34 1    
    66   32  155 1    
    67   33  156 1    
    68   33  157 1    
    69   33  158 1    
    70   34   35 am   BACKBONE|DICT|INTERRES
    71   34  159 1    
    72   35   36 2    
    73   35   37 1    
    74   37   38 1    
    75   37   39 1    
    76   37  160 1    
    77   38  161 1    
    78   38  162 1    
    79   38  163 1    
    80   39   40 am   BACKBONE|DICT|INTERRES
    81   39  164 1    
    82   40   41 2    
    83   40   42 1    
    84   42   43 1    
    85   42   44 1    
    86   42  165 1    
    87   43  166 1    
    88   43  167 1    
    89   43  168 1    
    90   44   45 am   BACKBONE|DICT|INTERRES
    91   44  169 1    
    92   45   46 2    
    93   45   47 1    
    94   47   48 1    
    95   47   49 1    
    96   47  170 1    
    97   48  171 1    
    98   48  172 1    
    99   48  173 1    
   100   49   50 am   BACKBONE|DICT|INTERRES
   101   49  174 1    
   102   50   51 2    
   103   50   52 1    
   104   52   53 1    
   105   52   54 1    
   106   52  175 1    
   107   53  176 1    
   108   53  177 1    
   109   53  178 1    
   110   54   55 am   BACKBONE|DICT|INTERRES
   111   54  179 1    
   112   55   56 2    
   113   55   57 1    
   114   57   58 1    
   115   57   59 1    
   116   57  180 1    
   117   58  181 1    
   118   58  182 1    
   119   58  183 1    
   120   59   60 am   BACKBONE|DICT|INTERRES
   121   59  184 1    
   122   60   61 2    
   123   60   62 1    
   124   62   63 1    
   125   62   64 1    
   126   62  185 1    
   127   63  186 1    
   128   63  187 1    
   129   63  188 1    
   130   64   65 am   BACKBONE|DICT|INTERRES
   131   64  189 1    
   132   65   66 2    
   133   67   68 2    
   134   67   69 am   BACKBONE|DICT|INTERRES
   135   69   70 1    
   136   69  190 1    
   137   70   71 1    
   138   70   72 1    
   139   70  191 1    
   140   71  192 1    
   141   71  193 1    
   142   71  194 1    
   143   72   73 2    
   144   72   74 am   BACKBONE|DICT|INTERRES
   145   74   75 1    
   146   74  195 1    
   147   75   76 1    
   148   75   77 1    
   149   75  196 1    
   150   76  197 1    
   151   76  198 1    
   152   76  199 1    
   153   77   78 2    
   154   77   79 am   BACKBONE|DICT|INTERRES
   155   79   80 1    
   156   79  200 1    
   157   80   81 1    
   158   80   82 1    
   159   80  201 1    
   160   81  202 1    
   161   81  203 1    
   162   81  204 1    
   163   82   83 2    
   164   82   84 am   BACKBONE|DICT|INTERRES
   165   84   85 1    
   166   84  205 1    
   167   85   86 1    
   168   85   87 1    
   169   85  206 1    
   170   86  207 1    
   171   86  208 1    
   172   86  209 1    
   173   87   88 2    
   174   87   89 am   BACKBONE|DICT|INTERRES
   175   89   90 1    
   176   89  210 1    
   177   90   91 1    
   178   90   92 1    
   179   90  211 1    
   180   91  212 1    
   181   91  213 1    
   182   91  214 1    
   183   92   93 2    
   184   92   94 am   BACKBONE|DICT|INTERRES
   185   94   95 1    
   186   94  215 1    
   187   95   96 1    
   188   95   97 1    
   189   95  216 1    
   190   96  217 1    
   191   96  218 1    
   192   96  219 1    
   193   97   98 2    
   194   97   99 am   BACKBONE|DICT|INTERRES
   195   99  100 1    
   196   99  220 1    
   197  100  101 1    
   198  100  102 1    
   199  100  221 1    
   200  101  222 1    
   201  101  223 1    
   202  101  224 1    
   203  102  103 2    
   204  102  104 am   BACKBONE|DICT|INTERRES
   205  104  105 1    
   206  104  225 1    
   207  105  106 1    
   208  105  107 1    
   209  105  226 1    
   210  106  227 1    
   211  106  228 1    
   212  106  229 1    
   213  107  108 2    
   214  107  109 am   BACKBONE|DICT|INTERRES
   215  109  110 1    
   216  109  230 1    
   217  110  111 1    
   218  110  112 1    
   219  110  231 1    
   220  111  232 1    
   221  111  233 1    
   222  111  234 1    
   223  112  113 2    
   224  112  114 am   BACKBONE|DICT|INTERRES
   225  114  115 1    
   226  114  235 1    
   227  115  116 1    
   228  115  117 1    
   229  115  236 1    
   230  116  237 1    
   231  116  238 1    
   232  116  239 1    
   233  117  118 2    
   234  117  119 am   BACKBONE|DICT|INTERRES
   235  119  120 1    
   236  119  240 1    
   237  120  121 1    
   238  120  124 1    
   239  120  241 1    
   240  121  122 am   BACKBONE|DICT|INTERRES
   241  121  123 2    
   242  122  242 1    
   243  122  243 1    
   244  124  125 1    
   245  124  244 1    
   246  124  245 1    
   247  125  126 1    
   248  126  246 1    
   249  126  247 1    
@<TRIPOS>SUBSTRUCTURE
     1 UNK         1 GROUP             0       ****    0 ROOT    
