@<TRIPOS>MOLECULE
3R540
247   249    1
SMALL
USER_CHARGES


@<TRIPOS>ATOM
      1 CA         -0.0516  -12.4347  -52.2909 C.3       0 UNK        -0.1800 
      2 C           1.4345  -12.1606  -52.1080 C.2       0 UNK         0.5000 
      3 O           1.9156  -11.0950  -52.4955 O.2       0 UNK        -0.5000 
      4 N           2.1612  -13.1236  -51.5302 N.am      1 UNK        -0.5000 
      5 CA          3.5912  -13.0332  -51.2135 C.3       1 UNK         0.1400 
      6 C6          4.2011  -14.4263  -50.9000 C.3       23 UNK        -0.0398 
      7 S7          3.8270  -15.6799  -52.1762 S.3       23 UNK        -0.2404 
      8 C8          3.5526  -17.1864  -51.1813 C.3       23 UNK        -0.0205 
      9 C9          2.4651  -17.0358  -50.1225 C.ar      23 UNK        -0.0193 
     10 C10         1.1736  -16.6304  -50.4747 C.ar      23 UNK        -0.1150 
     11 C11         0.1803  -16.4974  -49.5002 C.ar      23 UNK        -0.0193 
     12 C12         0.4851  -16.7759  -48.1650 C.ar      23 UNK        -0.1150 
     13 C13         1.7651  -17.2029  -47.8020 C.ar      23 UNK        -0.0193 
     14 C14         2.7518  -17.3229  -48.7839 C.ar      23 UNK        -0.1150 
     15 C15         2.0833  -17.5292  -46.3496 C.3       23 UNK        -0.0205 
     16 S16         2.1538  -19.3209  -46.0261 S.3       23 UNK        -0.2404 
     17 C17         0.4344  -19.8518  -46.3292 C.3       23 UNK        -0.0398 
     18 CA          0.3602  -21.3558  -46.6800 C.3       11 UNK         0.1400 
     19 N           0.7656  -22.2159  -45.5636 N.am      11 UNK        -0.5000 
     20 C           1.1124  -23.5047  -45.6924 C.2       10 UNK         0.5000 
     21 O           1.1154  -24.1059  -46.7666 O.2       10 UNK        -0.5000 
     22 CA          1.4749  -24.2654  -44.4021 C.3       10 UNK         0.1400 
     23 CB          2.9684  -24.1015  -44.0847 C.3       10 UNK        -0.1800 
     24 N           0.6868  -23.8554  -43.2384 N.am      10 UNK        -0.5000 
     25 C          -0.6469  -23.9369  -43.1437 C.2       9 UNK         0.5000 
     26 O          -1.3639  -24.3901  -44.0378 O.2       9 UNK        -0.5000 
     27 CA         -1.3089  -23.3732  -41.8683 C.3       9 UNK         0.1400 
     28 CB         -0.3135  -22.9996  -40.7466 C.3       9 UNK        -0.1800 
     29 N          -2.1786  -22.2331  -42.1803 N.am      9 UNK        -0.5000 
     30 C          -1.8247  -21.1030  -42.8107 C.2       8 UNK         0.5000 
     31 O          -0.6808  -20.8795  -43.2153 O.2       8 UNK        -0.5000 
     32 CA         -2.9565  -20.0940  -43.0937 C.3       8 UNK         0.1400 
     33 CB         -3.9206  -19.8960  -41.9033 C.3       8 UNK        -0.1800 
     34 N          -2.4491  -18.8211  -43.6100 N.am      8 UNK        -0.5000 
     35 C          -1.7870  -17.8656  -42.9452 C.2       7 UNK         0.5000 
     36 O          -1.6268  -17.8536  -41.7214 O.2       7 UNK        -0.5000 
     37 CA         -1.2449  -16.7131  -43.8184 C.3       7 UNK         0.1400 
     38 CB         -2.3966  -15.8698  -44.3925 C.3       7 UNK        -0.1800 
     39 N          -0.3258  -15.8237  -43.1026 N.am      7 UNK        -0.5000 
     40 C           0.8736  -16.1695  -42.6133 C.2       6 UNK         0.5000 
     41 O           1.3997  -17.2659  -42.8091 O.2       6 UNK        -0.5000 
     42 CA          1.6008  -15.0920  -41.7848 C.3       6 UNK         0.1400 
     43 CB          3.0300  -15.5048  -41.3876 C.3       6 UNK        -0.1800 
     44 N           1.6686  -13.8561  -42.5572 N.am      6 UNK        -0.5000 
     45 C           1.0806  -12.6916  -42.2505 C.2       5 UNK         0.5000 
     46 O           0.4452  -12.4997  -41.2135 O.2       5 UNK        -0.5000 
     47 CA          1.1978  -11.5517  -43.2887 C.3       5 UNK         0.1400 
     48 CB          2.3320  -10.5892  -42.9055 C.3       5 UNK        -0.1800 
     49 N           1.4339  -12.0421  -44.6484 N.am      5 UNK        -0.5000 
     50 C           0.5669  -12.7854  -45.3498 C.2       4 UNK         0.5000 
     51 O          -0.6044  -12.9497  -45.0106 O.2       4 UNK        -0.5000 
     52 CA          1.1009  -13.5184  -46.5982 C.3       4 UNK         0.1400 
     53 CB          0.3973  -13.0262  -47.8718 C.3       4 UNK        -0.1800 
     54 N           2.5608  -13.4618  -46.7731 N.am      4 UNK        -0.5000 
     55 C           3.4505  -14.0471  -45.9523 C.2       3 UNK         0.5000 
     56 O           3.1158  -14.6421  -44.9287 O.2       3 UNK        -0.5000 
     57 CA          4.9539  -13.9630  -46.2915 C.3       3 UNK         0.1400 
     58 CB          5.4946  -15.3506  -46.6705 C.3       3 UNK        -0.1800 
     59 N           5.2749  -13.0334  -47.3713 N.am      3 UNK        -0.5000 
     60 C           5.2690  -11.6962  -47.2859 C.2       2 UNK         0.5000 
     61 O           5.0415  -11.0777  -46.2459 O.2       2 UNK        -0.5000 
     62 CA          5.5124  -10.9291  -48.6061 C.3       2 UNK         0.1400 
     63 CB          6.9951  -10.5526  -48.7448 C.3       2 UNK        -0.1800 
     64 N           5.0899  -11.6781  -49.8001 N.am      2 UNK        -0.5000 
     65 C           3.8304  -12.0817  -50.0208 C.2       1 UNK         0.5000 
     66 O           2.9019  -11.7980  -49.2620 O.2       1 UNK        -0.5000 
     67 C          -1.0324  -21.7344  -47.2213 C.2       11 UNK         0.5000 
     68 O          -1.2717  -21.5681  -48.4171 O.2       11 UNK        -0.5000 
     69 N          -1.9075  -22.2776  -46.3606 N.am      12 UNK        -0.5000 
     70 CA         -3.1690  -22.8807  -46.7839 C.3       12 UNK         0.1400 
     71 CB         -4.1502  -22.9982  -45.6071 C.3       12 UNK        -0.1800 
     72 C          -2.9197  -24.2508  -47.4253 C.2       12 UNK         0.5000 
     73 O          -3.3813  -24.4822  -48.5411 O.2       12 UNK        -0.5000 
     74 N          -2.1708  -25.1173  -46.7274 N.am      13 UNK        -0.5000 
     75 CA         -1.8704  -26.4946  -47.1296 C.3       13 UNK         0.1400 
     76 CB         -0.9964  -27.1618  -46.0583 C.3       13 UNK        -0.1800 
     77 C          -1.2129  -26.6157  -48.5166 C.2       13 UNK         0.5000 
     78 O          -1.5820  -27.5067  -49.2817 O.2       13 UNK        -0.5000 
     79 N          -0.3025  -25.6861  -48.8387 N.am      14 UNK        -0.5000 
     80 CA          0.3733  -25.5811  -50.1351 C.3       14 UNK         0.1400 
     81 CB          1.4447  -24.4834  -50.0481 C.3       14 UNK        -0.1800 
     82 C          -0.5710  -25.3091  -51.3257 C.2       14 UNK         0.5000 
     83 O          -0.2385  -25.6785  -52.4525 O.2       14 UNK        -0.5000 
     84 N          -1.7211  -24.6779  -51.0596 N.am      15 UNK        -0.5000 
     85 CA         -2.7487  -24.3389  -52.0450 C.3       15 UNK         0.1400 
     86 CB         -3.1344  -22.8641  -51.8305 C.3       15 UNK        -0.1800 
     87 C          -3.9980  -25.2331  -51.9221 C.2       15 UNK         0.5000 
     88 O          -4.9591  -25.0197  -52.6624 O.2       15 UNK        -0.5000 
     89 N          -4.0112  -26.1540  -50.9426 N.am      16 UNK        -0.5000 
     90 CA         -5.1842  -26.8925  -50.4475 C.3       16 UNK         0.1400 
     91 CB         -5.6162  -27.9653  -51.4672 C.3       16 UNK        -0.1800 
     92 C          -6.3415  -25.9455  -50.0453 C.2       16 UNK         0.5000 
     93 O          -7.5141  -26.2619  -50.2572 O.2       16 UNK        -0.5000 
     94 N          -5.9635  -24.7613  -49.5404 N.am      17 UNK        -0.5000 
     95 CA         -6.7242  -23.5230  -49.3712 C.3       17 UNK         0.1400 
     96 CB         -7.8450  -23.6836  -48.3280 C.3       17 UNK        -0.1800 
     97 C          -7.2536  -22.9437  -50.6992 C.2       17 UNK         0.5000 
     98 O          -6.9040  -21.8186  -51.0577 O.2       17 UNK        -0.5000 
     99 N          -8.0890  -23.7213  -51.3950 N.am      18 UNK        -0.5000 
    100 CA        -8.9315  -23.3263  -52.5225 C.3       18 UNK         0.1400 
    101 CB        -9.7771  -24.5373  -52.9453 C.3       18 UNK        -0.1800 
    102 C         -8.2107  -22.7303  -53.7458 C.2       18 UNK         0.5000 
    103 O         -8.8229  -21.9276  -54.4521 O.2       18 UNK        -0.5000 
    104 N         -6.9530  -23.1209  -54.0007 N.am      19 UNK        -0.5000 
    105 CA        -6.2125  -22.6839  -55.1890 C.3       19 UNK         0.1400 
    106 CB        -5.0535  -23.6524  -55.4720 C.3       19 UNK        -0.1800 
    107 C         -5.6924  -21.2352  -55.1127 C.2       19 UNK         0.5000 
    108 O         -5.3322  -20.6881  -56.1566 O.2       19 UNK        -0.5000 
    109 N         -5.6360  -20.6430  -53.9101 N.am      20 UNK        -0.5000 
    110 CA        -5.0613  -19.3096  -53.7005 C.3       20 UNK         0.1400 
    111 CB        -3.5590  -19.4481  -53.3991 C.3       20 UNK        -0.1800 
    112 C         -5.7599  -18.4789  -52.6103 C.2       20 UNK         0.5000 
    113 O         -5.5902  -17.2594  -52.6083 O.2       20 UNK        -0.5000 
    114 N         -6.5090  -19.1239  -51.7009 N.am      21 UNK        -0.5000 
    115 CA        -7.1512  -18.5376  -50.5148 C.3       21 UNK         0.1400 
    116 CB        -8.2270  -17.5022  -50.9052 C.3       21 UNK        -0.1800 
    117 C         -6.1366  -18.0039  -49.4770 C.2       21 UNK         0.5000 
    118 O         -6.4517  -17.0906  -48.7128 O.2       21 UNK        -0.5000 
    119 N         -4.9398  -18.6037  -49.4607 N.am      22 UNK        -0.5000 
    120 CA        -3.8124  -18.2655  -48.5758 C.3       22 UNK         0.1400 
    121 C         -3.8664  -18.9430  -47.1747 C.2       22 UNK         0.5000 
    122 N         -4.9262  -19.6591  -46.8206 N.am      22 UNK        -0.7600 
    123 O         -2.9366  -18.8017  -46.3841 O.2       22 UNK        -0.5000 
    124 C124       -2.4580  -18.5241  -49.2816 C.3       23 UNK        -0.0398 
    125 S125       -2.1748  -17.3869  -50.6794 S.3       23 UNK        -0.2404 
    126 C126       -1.2214  -16.0511  -49.8890 C.3       23 UNK        -0.0205 
    127 H127       -0.6349  -11.7920  -51.6316 H         1 UNK         0.0600 
    128 H128       -0.3488  -12.2314  -53.3197 H         1 UNK         0.0600 
    129 H129       -0.3010  -13.4717  -52.0667 H         1 UNK         0.0600 
    130 H130        1.7091  -13.9741  -51.2301 H         1 UNK         0.3000 
    131 H131        4.1045  -12.6187  -52.0837 H         1 UNK         0.0600 
    132 H132        3.8491  -14.7801  -49.9301 H         1 UNK         0.0800 
    133 H133        5.2870  -14.3585  -50.8183 H         1 UNK         0.0800 
    134 H134        3.2771  -18.0025  -51.8504 H         1 UNK         0.0800 
    135 H135        4.5001  -17.4741  -50.7230 H         1 UNK         0.0800 
    136 H136        0.9398  -16.4229  -51.5096 H         1 UNK         0.1150 
    137 H137       -0.2808  -16.6764  -47.4085 H         1 UNK         0.1150 
    138 H138        3.7416  -17.6535  -48.5022 H         1 UNK         0.1150 
    139 H139        3.0514  -17.1015  -46.0907 H         1 UNK         0.0800 
    140 H140        1.3635  -17.0624  -45.6782 H         1 UNK         0.0800 
    141 H141       -0.1737  -19.6170  -45.4555 H         1 UNK         0.0800 
    142 H142        0.0292  -19.2631  -47.1502 H         1 UNK         0.0800 
    143 H143        1.0601  -21.5336  -47.5001 H         1 UNK         0.0600 
    144 H144        0.7312  -21.7987  -44.6406 H         1 UNK         0.3000 
    145 H145        1.2801  -25.3248  -44.5752 H         1 UNK         0.0600 
    146 H146        3.2580  -24.7041  -43.2236 H         1 UNK         0.0600 
    147 H147        3.5835  -24.4227  -44.9263 H         1 UNK         0.0600 
    148 H148        3.2226  -23.0626  -43.8700 H         1 UNK         0.0600 
    149 H149        1.1955  -23.4387  -42.4724 H         1 UNK         0.3000 
    150 H150       -1.9547  -24.1656  -41.4873 H         1 UNK         0.0600 
    151 H151        0.2995  -23.8556  -40.4614 H         1 UNK         0.0600 
    152 H152       -0.8449  -22.6771  -39.8511 H         1 UNK         0.0600 
    153 H153        0.3558  -22.1892  -41.0376 H         1 UNK         0.0600 
    154 H154       -3.1474  -22.3498  -41.9202 H         1 UNK         0.3000 
    155 H155       -3.5356  -20.5125  -43.9139 H         1 UNK         0.0600 
    156 H156       -4.6336  -19.0959  -42.1029 H         1 UNK         0.0600 
    157 H157       -3.3888  -19.6488  -40.9840 H         1 UNK         0.0600 
    158 H158       -4.5016  -20.7980  -41.7101 H         1 UNK         0.0600 
    159 H159       -2.5374  -18.7243  -44.6210 H         1 UNK         0.3000 
    160 H160       -0.7028  -17.1648  -44.6502 H         1 UNK         0.0600 
    161 H161       -2.9234  -15.3233  -43.6095 H         1 UNK         0.0600 
    162 H162       -3.1312  -16.4880  -44.9091 H         1 UNK         0.0600 
    163 H163       -2.0291  -15.1475  -45.1202 H         1 UNK         0.0600 
    164 H164       -0.6711  -14.8963  -42.9030 H         1 UNK         0.3000 
    165 H165        1.0222  -14.9473  -40.8704 H         1 UNK         0.0600 
    166 H166        3.6519  -15.6910  -42.2644 H         1 UNK         0.0600 
    167 H167        3.5126  -14.7283  -40.7941 H         1 UNK         0.0600 
    168 H168        3.0227  -16.4153  -40.7874 H         1 UNK         0.0600 
    169 H169        2.1479  -13.9462  -43.4498 H         1 UNK         0.3000 
    170 H170        0.2566  -10.9981  -43.2831 H         1 UNK         0.0600 
    171 H171        2.1783  -10.1826  -41.9051 H         1 UNK         0.0600 
    172 H172        3.3021  -11.0881  -42.9125 H         1 UNK         0.0600 
    173 H173        2.3835   -9.7457  -43.5942 H         1 UNK         0.0600 
    174 H174        2.3715  -11.9422  -45.0098 H         1 UNK         0.3000 
    175 H175        0.8370  -14.5678  -46.4620 H         1 UNK         0.0600 
    176 H176        0.5641  -11.9614  -48.0361 H         1 UNK         0.0600 
    177 H177        0.7492  -13.5644  -48.7520 H         1 UNK         0.0600 
    178 H178       -0.6803  -13.1819  -47.8080 H         1 UNK         0.0600 
    179 H179        2.8885  -12.9437  -47.5811 H         1 UNK         0.3000 
    180 H180        5.4696  -13.6311  -45.3880 H         1 UNK         0.0600 
    181 H181        5.0196  -15.7337  -47.5739 H         1 UNK         0.0600 
    182 H182        5.3178  -16.0731  -45.8726 H         1 UNK         0.0600 
    183 H183        6.5705  -15.3211  -46.8435 H         1 UNK         0.0600 
    184 H184        5.4920  -13.4458  -48.2652 H         1 UNK         0.3000 
    185 H185        4.9268  -10.0084  -48.5626 H         1 UNK         0.0600 
    186 H186        7.3332   -9.9745  -47.8837 H         1 UNK         0.0600 
    187 H187        7.6304  -11.4363  -48.8167 H         1 UNK         0.0600 
    188 H188        7.1662   -9.9416  -49.6313 H         1 UNK         0.0600 
    189 H189        5.8170  -11.9284  -50.4553 H         1 UNK         0.3000 
    190 H190       -1.6096  -22.4482  -45.4106 H         1 UNK         0.3000 
    191 H191       -3.6333  -22.2413  -47.5382 H         1 UNK         0.0600 
    192 H192       -5.0484  -23.5411  -45.9048 H         1 UNK         0.0600 
    193 H193       -4.4761  -22.0192  -45.2657 H         1 UNK         0.0600 
    194 H194       -3.7182  -23.5258  -44.7575 H         1 UNK         0.0600 
    195 H195       -1.8375  -24.8373  -45.8083 H         1 UNK         0.3000 
    196 H196       -2.8216  -27.0289  -47.1715 H         1 UNK         0.0600 
    197 H197       -0.8222  -28.2121  -46.2955 H         1 UNK         0.0600 
    198 H198       -1.4716  -27.1236  -45.0779 H         1 UNK         0.0600 
    199 H199       -0.0231  -26.6784  -45.9797 H         1 UNK         0.0600 
    200 H200       -0.0219  -25.0153  -48.1290 H         1 UNK         0.3000 
    201 H201        0.8725  -26.5330  -50.3267 H         1 UNK         0.0600 
    202 H202        2.1895  -24.7194  -49.2879 H         1 UNK         0.0600 
    203 H203        1.0068  -23.5157  -49.7985 H         1 UNK         0.0600 
    204 H204        1.9734  -24.3725  -50.9957 H         1 UNK         0.0600 
    205 H205       -1.9330  -24.4335  -50.0990 H         1 UNK         0.3000 
    206 H206       -2.3657  -24.4515  -53.0610 H         1 UNK         0.0600 
    207 H207       -2.2694  -22.2112  -51.9480 H         1 UNK         0.0600 
    208 H208       -3.8845  -22.5402  -52.5517 H         1 UNK         0.0600 
    209 H209       -3.5456  -22.6958  -50.8340 H         1 UNK         0.0600 
    210 H210       -3.1700  -26.2585  -50.3903 H         1 UNK         0.3000 
    211 H211       -4.8689  -27.4008  -49.5352 H         1 UNK         0.0600 
    212 H212       -5.9962  -27.5195  -52.3870 H         1 UNK         0.0600 
    213 H213       -6.4056  -28.5976  -51.0593 H         1 UNK         0.0600 
    214 H214       -4.7825  -28.6165  -51.7296 H         1 UNK         0.0600 
    215 H215       -4.9657  -24.6559  -49.3640 H         1 UNK         0.3000 
    216 H216       -6.0143  -22.7947  -48.9757 H         1 UNK         0.0600 
    217 H217       -8.5956  -24.4115  -48.6369 H         1 UNK         0.0600 
    218 H218       -8.3591  -22.7362  -48.1619 H         1 UNK         0.0600 
    219 H219       -7.4420  -24.0072  -47.3683 H         1 UNK         0.0600 
    220 H220       -8.2174  -24.6676  -51.0473 H         1 UNK         0.3000 
    221 H221       -9.6097  -22.5553  -52.1517 H         1 UNK         0.0600 
    222 H222       -9.1495  -25.3661  -53.2758 H         1 UNK         0.0600 
    223 H223      -10.3964  -24.8936  -52.1218 H         1 UNK         0.0600 
    224 H224      -10.4474  -24.2828  -53.7675 H         1 UNK         0.0600 
    225 H225       -6.4903  -23.7836  -53.3861 H         1 UNK         0.3000 
    226 H226       -6.8900  -22.7354  -56.0442 H         1 UNK         0.0600 
    227 H227       -5.3929  -24.6883  -55.4852 H         1 UNK         0.0600 
    228 H228       -4.6050  -23.4456  -56.4443 H         1 UNK         0.0600 
    229 H229       -4.2620  -23.5635  -54.7289 H         1 UNK         0.0600 
    230 H230       -5.9678  -21.1517  -53.1019 H         1 UNK         0.3000 
    231 H231       -5.1675  -18.7251  -54.6170 H         1 UNK         0.0600 
    232 H232       -3.3850  -19.9514  -52.4479 H         1 UNK         0.0600 
    233 H233       -3.0448  -20.0117  -54.1777 H         1 UNK         0.0600 
    234 H234       -3.0829  -18.4688  -53.3448 H         1 UNK         0.0600 
    235 H235       -6.5953  -20.1352  -51.7431 H         1 UNK         0.3000 
    236 H236       -7.6675  -19.3620  -50.0213 H         1 UNK         0.0600 
    237 H237       -8.9178  -17.9109  -51.6426 H         1 UNK         0.0600 
    238 H238       -8.8177  -17.2083  -50.0370 H         1 UNK         0.0600 
    239 H239       -7.7891  -16.5945  -51.3206 H         1 UNK         0.0600 
    240 H240       -4.7759  -19.3484  -50.1206 H         1 UNK         0.3000 
    241 H241       -3.8639  -17.1967  -48.3606 H         1 UNK         0.0600 
    242 H242       -5.7096  -19.7502  -47.4452 H         1 UNK         0.3800 
    243 H243       -4.9711  -20.0565  -45.8989 H         1 UNK         0.3800 
    244 H244       -1.6241  -18.4406  -48.5880 H         1 UNK         0.0800 
    245 H245       -2.4210  -19.5454  -49.6624 H         1 UNK         0.0800 
    246 H246       -1.7663  -15.6803  -49.0195 H         1 UNK         0.0800 
    247 H247       -1.1524  -15.2127  -50.5823 H         1 UNK         0.0800 
@<TRIPOS>BOND
     1    1    2 1    
     2    1  127 1    
     3    1  128 1    
     4    1  129 1    
     5    2    3 2    
     6    2    4 am   BACKBONE|DICT|INTERRES
     7    4    5 1    
     8    4  130 1    
     9    5    6 1    
    10    5   65 1    
    11    5  131 1    
    12    6    7 1    
    13    6  132 1    
    14    6  133 1    
    15    7    8 1    
    16    8    9 1    
    17    8  134 1    
    18    8  135 1    
    19    9   10 ar   
    20    9   14 ar   
    21   10   11 ar   
    22   10  136 1    
    23   11   12 ar   
    24   11  126 1    
    25   12   13 ar   
    26   12  137 1    
    27   13   14 ar   
    28   13   15 1    
    29   14  138 1    
    30   15   16 1    
    31   15  139 1    
    32   15  140 1    
    33   16   17 1    
    34   17   18 1    
    35   17  141 1    
    36   17  142 1    
    37   18   19 1    
    38   18   67 1    
    39   18  143 1    
    40   19   20 am   BACKBONE|DICT|INTERRES
    41   19  144 1    
    42   20   21 2    
    43   20   22 1    
    44   22   23 1    
    45   22   24 1    
    46   22  145 1    
    47   23  146 1    
    48   23  147 1    
    49   23  148 1    
    50   24   25 am   BACKBONE|DICT|INTERRES
    51   24  149 1    
    52   25   26 2    
    53   25   27 1    
    54   27   28 1    
    55   27   29 1    
    56   27  150 1    
    57   28  151 1    
    58   28  152 1    
    59   28  153 1    
    60   29   30 am   BACKBONE|DICT|INTERRES
    61   29  154 1    
    62   30   31 2    
    63   30   32 1    
    64   32   33 1    
    65   32   34 1    
    66   32  155 1    
    67   33  156 1    
    68   33  157 1    
    69   33  158 1    
    70   34   35 am   BACKBONE|DICT|INTERRES
    71   34  159 1    
    72   35   36 2    
    73   35   37 1    
    74   37   38 1    
    75   37   39 1    
    76   37  160 1    
    77   38  161 1    
    78   38  162 1    
    79   38  163 1    
    80   39   40 am   BACKBONE|DICT|INTERRES
    81   39  164 1    
    82   40   41 2    
    83   40   42 1    
    84   42   43 1    
    85   42   44 1    
    86   42  165 1    
    87   43  166 1    
    88   43  167 1    
    89   43  168 1    
    90   44   45 am   BACKBONE|DICT|INTERRES
    91   44  169 1    
    92   45   46 2    
    93   45   47 1    
    94   47   48 1    
    95   47   49 1    
    96   47  170 1    
    97   48  171 1    
    98   48  172 1    
    99   48  173 1    
   100   49   50 am   BACKBONE|DICT|INTERRES
   101   49  174 1    
   102   50   51 2    
   103   50   52 1    
   104   52   53 1    
   105   52   54 1    
   106   52  175 1    
   107   53  176 1    
   108   53  177 1    
   109   53  178 1    
   110   54   55 am   BACKBONE|DICT|INTERRES
   111   54  179 1    
   112   55   56 2    
   113   55   57 1    
   114   57   58 1    
   115   57   59 1    
   116   57  180 1    
   117   58  181 1    
   118   58  182 1    
   119   58  183 1    
   120   59   60 am   BACKBONE|DICT|INTERRES
   121   59  184 1    
   122   60   61 2    
   123   60   62 1    
   124   62   63 1    
   125   62   64 1    
   126   62  185 1    
   127   63  186 1    
   128   63  187 1    
   129   63  188 1    
   130   64   65 am   BACKBONE|DICT|INTERRES
   131   64  189 1    
   132   65   66 2    
   133   67   68 2    
   134   67   69 am   BACKBONE|DICT|INTERRES
   135   69   70 1    
   136   69  190 1    
   137   70   71 1    
   138   70   72 1    
   139   70  191 1    
   140   71  192 1    
   141   71  193 1    
   142   71  194 1    
   143   72   73 2    
   144   72   74 am   BACKBONE|DICT|INTERRES
   145   74   75 1    
   146   74  195 1    
   147   75   76 1    
   148   75   77 1    
   149   75  196 1    
   150   76  197 1    
   151   76  198 1    
   152   76  199 1    
   153   77   78 2    
   154   77   79 am   BACKBONE|DICT|INTERRES
   155   79   80 1    
   156   79  200 1    
   157   80   81 1    
   158   80   82 1    
   159   80  201 1    
   160   81  202 1    
   161   81  203 1    
   162   81  204 1    
   163   82   83 2    
   164   82   84 am   BACKBONE|DICT|INTERRES
   165   84   85 1    
   166   84  205 1    
   167   85   86 1    
   168   85   87 1    
   169   85  206 1    
   170   86  207 1    
   171   86  208 1    
   172   86  209 1    
   173   87   88 2    
   174   87   89 am   BACKBONE|DICT|INTERRES
   175   89   90 1    
   176   89  210 1    
   177   90   91 1    
   178   90   92 1    
   179   90  211 1    
   180   91  212 1    
   181   91  213 1    
   182   91  214 1    
   183   92   93 2    
   184   92   94 am   BACKBONE|DICT|INTERRES
   185   94   95 1    
   186   94  215 1    
   187   95   96 1    
   188   95   97 1    
   189   95  216 1    
   190   96  217 1    
   191   96  218 1    
   192   96  219 1    
   193   97   98 2    
   194   97   99 am   BACKBONE|DICT|INTERRES
   195   99  100 1    
   196   99  220 1    
   197  100  101 1    
   198  100  102 1    
   199  100  221 1    
   200  101  222 1    
   201  101  223 1    
   202  101  224 1    
   203  102  103 2    
   204  102  104 am   BACKBONE|DICT|INTERRES
   205  104  105 1    
   206  104  225 1    
   207  105  106 1    
   208  105  107 1    
   209  105  226 1    
   210  106  227 1    
   211  106  228 1    
   212  106  229 1    
   213  107  108 2    
   214  107  109 am   BACKBONE|DICT|INTERRES
   215  109  110 1    
   216  109  230 1    
   217  110  111 1    
   218  110  112 1    
   219  110  231 1    
   220  111  232 1    
   221  111  233 1    
   222  111  234 1    
   223  112  113 2    
   224  112  114 am   BACKBONE|DICT|INTERRES
   225  114  115 1    
   226  114  235 1    
   227  115  116 1    
   228  115  117 1    
   229  115  236 1    
   230  116  237 1    
   231  116  238 1    
   232  116  239 1    
   233  117  118 2    
   234  117  119 am   BACKBONE|DICT|INTERRES
   235  119  120 1    
   236  119  240 1    
   237  120  121 1    
   238  120  124 1    
   239  120  241 1    
   240  121  122 am   BACKBONE|DICT|INTERRES
   241  121  123 2    
   242  122  242 1    
   243  122  243 1    
   244  124  125 1    
   245  124  244 1    
   246  124  245 1    
   247  125  126 1    
   248  126  246 1    
   249  126  247 1    
@<TRIPOS>SUBSTRUCTURE
     1 UNK         1 GROUP             0       ****    0 ROOT    
