@<TRIPOS>MOLECULE
3R540
247   249    1
SMALL
USER_CHARGES


@<TRIPOS>ATOM
      1 CA         -0.1454  -15.1502  -50.5899 C.3       0 UNK        -0.1800 
      2 C           1.0578  -14.2272  -50.5108 C.2       0 UNK         0.5000 
      3 O           1.0225  -13.1279  -51.0638 O.2       0 UNK        -0.5000 
      4 N           2.1248  -14.6744  -49.8395 N.am      1 UNK        -0.5000 
      5 CA          3.3466  -13.8978  -49.6311 C.3       1 UNK         0.1400 
      6 C6          4.5787  -14.8138  -49.4240 C.3       23 UNK        -0.0398 
      7 S7          4.5676  -15.8000  -47.8830 S.3       23 UNK        -0.2404 
      8 C8          4.7481  -17.5033  -48.4952 C.3       23 UNK        -0.0205 
      9 C9          3.4227  -18.2470  -48.4921 C.ar      23 UNK        -0.0193 
     10 C10         2.6095  -18.2720  -49.6278 C.ar      23 UNK        -0.1150 
     11 C11         1.4125  -18.9984  -49.6390 C.ar      23 UNK        -0.0193 
     12 C12         1.0414  -19.7118  -48.4884 C.ar      23 UNK        -0.1150 
     13 C13         1.8366  -19.6746  -47.3396 C.ar      23 UNK        -0.0193 
     14 C14         3.0233  -18.9397  -47.3488 C.ar      23 UNK        -0.1150 
     15 C15         1.4185  -20.4031  -46.0727 C.3       23 UNK        -0.0205 
     16 S16         2.4430  -21.8778  -45.7673 S.3       23 UNK        -0.2404 
     17 C17         1.4631  -23.2186  -46.5252 C.3       23 UNK        -0.0398 
     18 CA          0.7298  -24.0483  -45.4414 C.3       11 UNK         0.1400 
     19 N          -0.2880  -23.2438  -44.7588 N.am      11 UNK        -0.5000 
     20 C          -0.9653  -23.5881  -43.6565 C.2       10 UNK         0.5000 
     21 O          -0.8059  -24.6565  -43.0640 O.2       10 UNK        -0.5000 
     22 CA         -1.9640  -22.5536  -43.0976 C.3       10 UNK         0.1400 
     23 CB         -1.5466  -22.1090  -41.6858 C.3       10 UNK        -0.1800 
     24 N          -2.0673  -21.3565  -43.9369 N.am      10 UNK        -0.5000 
     25 C          -3.0348  -21.1023  -44.8249 C.2       9 UNK         0.5000 
     26 O          -3.9700  -21.8714  -45.0478 O.2       9 UNK        -0.5000 
     27 CA         -2.9383  -19.7490  -45.5679 C.3       9 UNK         0.1400 
     28 CB         -4.1185  -19.5047  -46.5229 C.3       9 UNK        -0.1800 
     29 N          -2.8538  -18.6143  -44.6487 N.am      9 UNK        -0.5000 
     30 C          -1.7862  -18.2403  -43.9361 C.2       8 UNK         0.5000 
     31 O          -0.7067  -18.8334  -43.9803 O.2       8 UNK        -0.5000 
     32 CA         -1.9735  -17.0125  -43.0216 C.3       8 UNK         0.1400 
     33 CB         -0.7160  -16.6935  -42.1943 C.3       8 UNK        -0.1800 
     34 N          -2.3691  -15.8194  -43.7745 N.am      8 UNK        -0.5000 
     35 C          -3.6096  -15.5600  -44.2122 C.2       7 UNK         0.5000 
     36 O          -4.5543  -16.3349  -44.0517 O.2       7 UNK        -0.5000 
     37 CA         -3.8502  -14.2354  -44.9513 C.3       7 UNK         0.1400 
     38 CB         -4.1225  -13.0978  -43.9536 C.3       7 UNK        -0.1800 
     39 N          -2.7297  -13.8616  -45.8128 N.am      7 UNK        -0.5000 
     40 C          -2.8576  -13.3310  -47.0382 C.2       6 UNK         0.5000 
     41 O          -3.9445  -13.1651  -47.5971 O.2       6 UNK        -0.5000 
     42 CA         -1.5533  -12.8832  -47.7431 C.3       6 UNK         0.1400 
     43 CB         -1.7955  -11.8804  -48.8884 C.3       6 UNK        -0.1800 
     44 N          -0.5384  -12.3661  -46.8196 N.am      6 UNK        -0.5000 
     45 C          -0.6872  -11.4031  -45.8954 C.2       5 UNK         0.5000 
     46 O          -1.6737  -10.6686  -45.8248 O.2       5 UNK        -0.5000 
     47 CA          0.4402  -11.2694  -44.8454 C.3       5 UNK         0.1400 
     48 CB         -0.1045  -10.8778  -43.4567 C.3       5 UNK        -0.1800 
     49 N           1.2960  -12.4587  -44.7313 N.am      5 UNK        -0.5000 
     50 C           0.9307  -13.7198  -44.4461 C.2       4 UNK         0.5000 
     51 O          -0.2317  -14.0492  -44.2034 O.2       4 UNK        -0.5000 
     52 CA          2.0221  -14.8081  -44.5113 C.3       4 UNK         0.1400 
     53 CB          1.6306  -15.9058  -45.5169 C.3       4 UNK        -0.1800 
     54 N           3.3198  -14.2592  -44.9059 N.am      4 UNK        -0.5000 
     55 C           4.2811  -13.8598  -44.0627 C.2       3 UNK         0.5000 
     56 O           4.2203  -13.9950  -42.8406 O.2       3 UNK        -0.5000 
     57 CA          5.5014  -13.1526  -44.6879 C.3       3 UNK         0.1400 
     58 CB          6.6396  -14.1523  -44.9424 C.3       3 UNK        -0.1800 
     59 N           5.1832  -12.4500  -45.9355 N.am      3 UNK        -0.5000 
     60 C           4.4032  -11.3617  -46.0170 C.2       2 UNK         0.5000 
     61 O           3.8958  -10.8152  -45.0383 O.2       2 UNK        -0.5000 
     62 CA          4.0861  -10.8245  -47.4261 C.3       2 UNK         0.1400 
     63 CB          5.1040   -9.7492  -47.8337 C.3       2 UNK        -0.1800 
     64 N           4.0456  -11.8664  -48.4557 N.am      2 UNK        -0.5000 
     65 C           3.1693  -12.8799  -48.4843 C.2       1 UNK         0.5000 
     66 O           2.2915  -13.0473  -47.6315 O.2       1 UNK        -0.5000 
     67 C           0.1416  -25.3489  -46.0304 C.2       11 UNK         0.5000 
     68 O          -1.0276  -25.3831  -46.4149 O.2       11 UNK        -0.5000 
     69 N           0.9665  -26.4016  -46.0950 N.am      12 UNK        -0.5000 
     70 CA          0.5605  -27.7290  -46.5646 C.3       12 UNK         0.1400 
     71 CB          1.5681  -28.7696  -46.0529 C.3       12 UNK        -0.1800 
     72 C           0.4229  -27.8297  -48.0954 C.2       12 UNK         0.5000 
     73 O          -0.3595  -28.6543  -48.5690 O.2       12 UNK        -0.5000 
     74 N           1.1872  -27.0060  -48.8297 N.am      13 UNK        -0.5000 
     75 CA          1.3166  -26.9825  -50.2911 C.3       13 UNK         0.1400 
     76 CB          2.3238  -25.8853  -50.6750 C.3       13 UNK        -0.1800 
     77 C          -0.0301  -26.7836  -51.0128 C.2       13 UNK         0.5000 
     78 O          -0.4922  -25.6485  -51.1450 O.2       13 UNK        -0.5000 
     79 N          -0.6612  -27.9010  -51.4035 N.am      14 UNK        -0.5000 
     80 CA         -2.0136  -28.0011  -51.9678 C.3       14 UNK         0.1400 
     81 CB         -2.0426  -27.4285  -53.4002 C.3       14 UNK        -0.1800 
     82 C          -3.0910  -27.3856  -51.0461 C.2       14 UNK         0.5000 
     83 O          -4.0313  -26.7550  -51.5327 O.2       14 UNK        -0.5000 
     84 N          -2.8957  -27.5373  -49.7251 N.am      15 UNK        -0.5000 
     85 CA         -3.6579  -26.9018  -48.6427 C.3       15 UNK         0.1400 
     86 CB         -5.0869  -27.4795  -48.5689 C.3       15 UNK        -0.1800 
     87 C          -3.6322  -25.3615  -48.7479 C.2       15 UNK         0.5000 
     88 O          -4.6756  -24.7156  -48.6503 O.2       15 UNK        -0.5000 
     89 N          -2.4333  -24.8195  -49.0081 N.am      16 UNK        -0.5000 
     90 CA         -2.1270  -23.4179  -49.3005 C.3       16 UNK         0.1400 
     91 CB         -2.3654  -22.5307  -48.0641 C.3       16 UNK        -0.1800 
     92 C          -2.8783  -22.9422  -50.5564 C.2       16 UNK         0.5000 
     93 O          -3.5842  -21.9345  -50.5133 O.2       16 UNK        -0.5000 
     94 N          -2.7397  -23.7287  -51.6352 N.am      17 UNK        -0.5000 
     95 CA         -3.3860  -23.5636  -52.9410 C.3       17 UNK         0.1400 
     96 CB         -2.7095  -22.4149  -53.7128 C.3       17 UNK        -0.1800 
     97 C          -4.9210  -23.4254  -52.8302 C.2       17 UNK         0.5000 
     98 O          -5.5007  -22.4505  -53.3132 O.2       17 UNK        -0.5000 
     99 N          -5.5360  -24.4031  -52.1468 N.am      18 UNK        -0.5000 
    100 CA        -6.9546  -24.4727  -51.7747 C.3       18 UNK         0.1400 
    101 CB        -7.8409  -24.6541  -53.0244 C.3       18 UNK        -0.1800 
    102 C         -7.4031  -23.2941  -50.8810 C.2       18 UNK         0.5000 
    103 O         -8.5319  -22.8137  -51.0038 O.2       18 UNK        -0.5000 
    104 N         -6.4936  -22.8499  -50.0043 N.am      19 UNK        -0.5000 
    105 CA        -6.5538  -21.7489  -49.0394 C.3       19 UNK         0.1400 
    106 CB        -7.6275  -22.0074  -47.9671 C.3       19 UNK        -0.1800 
    107 C         -6.7065  -20.3439  -49.6530 C.2       19 UNK         0.5000 
    108 O         -5.9690  -19.4350  -49.2728 O.2       19 UNK        -0.5000 
    109 N         -7.6736  -20.1780  -50.5623 N.am      20 UNK        -0.5000 
    110 CA        -8.1163  -18.9001  -51.1181 C.3       20 UNK         0.1400 
    111 CB        -9.3348  -19.1410  -52.0220 C.3       20 UNK        -0.1800 
    112 C         -7.0248  -18.1259  -51.8760 C.2       20 UNK         0.5000 
    113 O         -6.9254  -16.9084  -51.7155 O.2       20 UNK        -0.5000 
    114 N         -6.2149  -18.8368  -52.6722 N.am      21 UNK        -0.5000 
    115 CA        -5.1656  -18.2405  -53.5030 C.3       21 UNK         0.1400 
    116 CB        -4.7143  -19.2549  -54.5606 C.3       21 UNK        -0.1800 
    117 C         -3.9675  -17.6949  -52.7004 C.2       21 UNK         0.5000 
    118 O         -3.2702  -16.8118  -53.2016 O.2       21 UNK        -0.5000 
    119 N         -3.7679  -18.1945  -51.4740 N.am      22 UNK        -0.5000 
    120 CA        -2.7827  -17.6745  -50.5125 C.3       22 UNK         0.1400 
    121 C         -3.3765  -16.6338  -49.5164 C.2       22 UNK         0.5000 
    122 N         -4.6179  -16.1855  -49.6629 N.am      22 UNK        -0.7600 
    123 O         -2.6854  -16.2028  -48.5989 O.2       22 UNK        -0.5000 
    124 C124       -2.0248  -18.8057  -49.7738 C.3       23 UNK        -0.0398 
    125 S125       -1.0246  -19.8490  -50.8919 S.3       23 UNK        -0.2404 
    126 C126        0.5826  -18.9819  -50.9262 C.3       23 UNK        -0.0205 
    127 H127       -0.0977  -15.9363  -49.8356 H         1 UNK         0.0600 
    128 H128       -1.0664  -14.5880  -50.4376 H         1 UNK         0.0600 
    129 H129       -0.1920  -15.6119  -51.5758 H         1 UNK         0.0600 
    130 H130        2.0882  -15.5622  -49.3595 H         1 UNK         0.3000 
    131 H131        3.5337  -13.3208  -50.5395 H         1 UNK         0.0600 
    132 H132        4.6737  -15.4745  -50.2860 H         1 UNK         0.0800 
    133 H133        5.4918  -14.2166  -49.4249 H         1 UNK         0.0800 
    134 H134        5.1957  -17.5207  -49.4895 H         1 UNK         0.0800 
    135 H135        5.4557  -18.0241  -47.8482 H         1 UNK         0.0800 
    136 H136        2.9176  -17.7335  -50.5134 H         1 UNK         0.1150 
    137 H137        0.1328  -20.2936  -48.4712 H         1 UNK         0.1150 
    138 H138        3.6431  -18.9159  -46.4633 H         1 UNK         0.1150 
    139 H139        1.5328  -19.7237  -45.2267 H         1 UNK         0.0800 
    140 H140        0.3616  -20.6673  -46.1035 H         1 UNK         0.0800 
    141 H141        2.1597  -23.8443  -47.0859 H         1 UNK         0.0800 
    142 H142        0.7644  -22.8120  -47.2584 H         1 UNK         0.0800 
    143 H143        1.4599  -24.3434  -44.6844 H         1 UNK         0.0600 
    144 H144       -0.5021  -22.3518  -45.1722 H         1 UNK         0.3000 
    145 H145       -2.9355  -23.0467  -43.0262 H         1 UNK         0.0600 
    146 H146       -0.5689  -21.6251  -41.6895 H         1 UNK         0.0600 
    147 H147       -2.2664  -21.4061  -41.2659 H         1 UNK         0.0600 
    148 H148       -1.4908  -22.9593  -41.0048 H         1 UNK         0.0600 
    149 H149       -1.3602  -20.6391  -43.7987 H         1 UNK         0.3000 
    150 H150       -2.0275  -19.7738  -46.1694 H         1 UNK         0.0600 
    151 H151       -4.1832  -20.2888  -47.2759 H         1 UNK         0.0600 
    152 H152       -4.0086  -18.5594  -47.0550 H         1 UNK         0.0600 
    153 H153       -5.0708  -19.4794  -45.9920 H         1 UNK         0.0600 
    154 H154       -3.6959  -18.0577  -44.5397 H         1 UNK         0.3000 
    155 H155       -2.7696  -17.2586  -42.3158 H         1 UNK         0.0600 
    156 H156       -0.4503  -17.5323  -41.5499 H         1 UNK         0.0600 
    157 H157       -0.8735  -15.8268  -41.5522 H         1 UNK         0.0600 
    158 H158        0.1429  -16.4872  -42.8311 H         1 UNK         0.0600 
    159 H159       -1.6285  -15.1410  -43.9374 H         1 UNK         0.3000 
    160 H160       -4.7483  -14.3815  -45.5551 H         1 UNK         0.0600 
    161 H161       -3.2494  -12.8925  -43.3326 H         1 UNK         0.0600 
    162 H162       -4.9508  -13.3473  -43.2892 H         1 UNK         0.0600 
    163 H163       -4.3862  -12.1756  -44.4719 H         1 UNK         0.0600 
    164 H164       -1.8013  -13.9485  -45.4135 H         1 UNK         0.3000 
    165 H165       -1.1270  -13.7881  -48.1756 H         1 UNK         0.0600 
    166 H166       -0.8598  -11.6109  -49.3785 H         1 UNK         0.0600 
    167 H167       -2.4477  -12.3074  -49.6511 H         1 UNK         0.0600 
    168 H168       -2.2638  -10.9636  -48.5291 H         1 UNK         0.0600 
    169 H169        0.3541  -12.8482  -46.8409 H         1 UNK         0.3000 
    170 H170        1.0838  -10.4606  -45.1932 H         1 UNK         0.0600 
    171 H171       -0.8119  -11.6162  -43.0777 H         1 UNK         0.0600 
    172 H172        0.7024  -10.7821  -42.7302 H         1 UNK         0.0600 
    173 H173       -0.6213   -9.9181  -43.4924 H         1 UNK         0.0600 
    174 H174        2.2745  -12.2921  -44.9258 H         1 UNK         0.3000 
    175 H175        2.0944  -15.2601  -43.5207 H         1 UNK         0.0600 
    176 H176        0.6820  -16.3735  -45.2505 H         1 UNK         0.0600 
    177 H177        1.5277  -15.5104  -46.5282 H         1 UNK         0.0600 
    178 H178        2.3805  -16.6960  -45.5437 H         1 UNK         0.0600 
    179 H179        3.4436  -14.0963  -45.8968 H         1 UNK         0.3000 
    180 H180        5.8561  -12.4132  -43.9667 H         1 UNK         0.0600 
    181 H181        7.5282  -13.6502  -45.3253 H         1 UNK         0.0600 
    182 H182        6.3517  -14.9203  -45.6602 H         1 UNK         0.0600 
    183 H183        6.9259  -14.6589  -44.0199 H         1 UNK         0.0600 
    184 H184        5.5555  -12.8437  -46.7870 H         1 UNK         0.3000 
    185 H185        3.0979  -10.3611  -47.3840 H         1 UNK         0.0600 
    186 H186        6.1109  -10.1593  -47.9204 H         1 UNK         0.0600 
    187 H187        4.8404   -9.2984  -48.7906 H         1 UNK         0.0600 
    188 H188        5.1392   -8.9455  -47.0968 H         1 UNK         0.0600 
    189 H189        4.7362  -11.7922  -49.1888 H         1 UNK         0.3000 
    190 H190        1.9129  -26.3148  -45.7525 H         1 UNK         0.3000 
    191 H191       -0.4147  -27.9659  -46.1332 H         1 UNK         0.0600 
    192 H192        1.2819  -29.7760  -46.3621 H         1 UNK         0.0600 
    193 H193        1.6173  -28.7686  -44.9638 H         1 UNK         0.0600 
    194 H194        2.5722  -28.5820  -46.4355 H         1 UNK         0.0600 
    195 H195        1.7794  -26.3611  -48.3295 H         1 UNK         0.3000 
    196 H196        1.7334  -27.9419  -50.6039 H         1 UNK         0.0600 
    197 H197        2.4431  -25.8261  -51.7577 H         1 UNK         0.0600 
    198 H198        3.3080  -26.0867  -50.2517 H         1 UNK         0.0600 
    199 H199        2.0036  -24.9024  -50.3264 H         1 UNK         0.0600 
    200 H200       -0.2204  -28.7854  -51.1896 H         1 UNK         0.3000 
    201 H201       -2.2471  -29.0646  -52.0323 H         1 UNK         0.0600 
    202 H202       -1.3251  -27.9417  -54.0402 H         1 UNK         0.0600 
    203 H203       -1.8006  -26.3665  -53.4175 H         1 UNK         0.0600 
    204 H204       -3.0258  -27.5510  -53.8559 H         1 UNK         0.0600 
    205 H205       -2.0748  -28.0577  -49.4292 H         1 UNK         0.3000 
    206 H206       -3.1472  -27.1544  -47.7121 H         1 UNK         0.0600 
    207 H207       -5.0686  -28.5657  -48.4815 H         1 UNK         0.0600 
    208 H208       -5.6181  -27.0927  -47.6984 H         1 UNK         0.0600 
    209 H209       -5.6760  -27.2234  -49.4500 H         1 UNK         0.0600 
    210 H210       -1.6519  -25.4507  -49.1117 H         1 UNK         0.3000 
    211 H211       -1.0632  -23.3715  -49.5380 H         1 UNK         0.0600 
    212 H212       -1.8022  -22.8923  -47.2059 H         1 UNK         0.0600 
    213 H213       -3.4171  -22.5078  -47.7813 H         1 UNK         0.0600 
    214 H214       -2.0500  -21.5055  -48.2529 H         1 UNK         0.0600 
    215 H215       -2.1233  -24.5307  -51.5447 H         1 UNK         0.3000 
    216 H216       -3.2091  -24.4821  -53.5006 H         1 UNK         0.0600 
    217 H217       -3.1779  -22.2599  -54.6853 H         1 UNK         0.0600 
    218 H218       -1.6570  -22.6339  -53.8918 H         1 UNK         0.0600 
    219 H219       -2.7587  -21.4770  -53.1595 H         1 UNK         0.0600 
    220 H220       -4.9630  -25.1762  -51.8115 H         1 UNK         0.3000 
    221 H221       -7.0596  -25.3701  -51.1633 H         1 UNK         0.0600 
    222 H222       -7.8360  -23.7665  -53.6575 H         1 UNK         0.0600 
    223 H223       -7.5048  -25.4983  -53.6264 H         1 UNK         0.0600 
    224 H224       -8.8765  -24.8489  -52.7438 H         1 UNK         0.0600 
    225 H225       -5.6048  -23.3380  -49.9913 H         1 UNK         0.3000 
    226 H226       -5.5872  -21.7624  -48.5358 H         1 UNK         0.0600 
    227 H227       -8.6323  -22.0247  -48.3900 H         1 UNK         0.0600 
    228 H228       -7.4571  -22.9599  -47.4649 H         1 UNK         0.0600 
    229 H229       -7.6071  -21.2293  -47.2031 H         1 UNK         0.0600 
    230 H230       -8.2024  -21.0063  -50.8256 H         1 UNK         0.3000 
    231 H231       -8.4344  -18.2762  -50.2804 H         1 UNK         0.0600 
    232 H232       -9.7027  -18.2041  -52.4423 H         1 UNK         0.0600 
    233 H233      -10.1563  -19.5912  -51.4642 H         1 UNK         0.0600 
    234 H234       -9.0929  -19.8035  -52.8542 H         1 UNK         0.0600 
    235 H235       -6.3300  -19.8402  -52.7245 H         1 UNK         0.3000 
    236 H236       -5.6025  -17.3906  -54.0318 H         1 UNK         0.0600 
    237 H237       -4.3305  -20.1592  -54.0964 H         1 UNK         0.0600 
    238 H238       -5.5398  -19.5395  -55.2131 H         1 UNK         0.0600 
    239 H239       -3.9246  -18.8448  -55.1913 H         1 UNK         0.0600 
    240 H240       -4.3975  -18.9039  -51.1226 H         1 UNK         0.3000 
    241 H241       -2.0284  -17.1171  -51.0658 H         1 UNK         0.0600 
    242 H242       -4.9622  -15.4967  -49.0131 H         1 UNK         0.3800 
    243 H243       -5.2186  -16.5231  -50.4030 H         1 UNK         0.3800 
    244 H244       -2.7388  -19.4472  -49.2562 H         1 UNK         0.0800 
    245 H245       -1.3694  -18.3975  -49.0037 H         1 UNK         0.0800 
    246 H246        0.4117  -17.9507  -51.2328 H         1 UNK         0.0800 
    247 H247        1.1814  -19.4362  -51.7166 H         1 UNK         0.0800 
@<TRIPOS>BOND
     1    1    2 1    
     2    1  127 1    
     3    1  128 1    
     4    1  129 1    
     5    2    3 2    
     6    2    4 am   BACKBONE|DICT|INTERRES
     7    4    5 1    
     8    4  130 1    
     9    5    6 1    
    10    5   65 1    
    11    5  131 1    
    12    6    7 1    
    13    6  132 1    
    14    6  133 1    
    15    7    8 1    
    16    8    9 1    
    17    8  134 1    
    18    8  135 1    
    19    9   10 ar   
    20    9   14 ar   
    21   10   11 ar   
    22   10  136 1    
    23   11   12 ar   
    24   11  126 1    
    25   12   13 ar   
    26   12  137 1    
    27   13   14 ar   
    28   13   15 1    
    29   14  138 1    
    30   15   16 1    
    31   15  139 1    
    32   15  140 1    
    33   16   17 1    
    34   17   18 1    
    35   17  141 1    
    36   17  142 1    
    37   18   19 1    
    38   18   67 1    
    39   18  143 1    
    40   19   20 am   BACKBONE|DICT|INTERRES
    41   19  144 1    
    42   20   21 2    
    43   20   22 1    
    44   22   23 1    
    45   22   24 1    
    46   22  145 1    
    47   23  146 1    
    48   23  147 1    
    49   23  148 1    
    50   24   25 am   BACKBONE|DICT|INTERRES
    51   24  149 1    
    52   25   26 2    
    53   25   27 1    
    54   27   28 1    
    55   27   29 1    
    56   27  150 1    
    57   28  151 1    
    58   28  152 1    
    59   28  153 1    
    60   29   30 am   BACKBONE|DICT|INTERRES
    61   29  154 1    
    62   30   31 2    
    63   30   32 1    
    64   32   33 1    
    65   32   34 1    
    66   32  155 1    
    67   33  156 1    
    68   33  157 1    
    69   33  158 1    
    70   34   35 am   BACKBONE|DICT|INTERRES
    71   34  159 1    
    72   35   36 2    
    73   35   37 1    
    74   37   38 1    
    75   37   39 1    
    76   37  160 1    
    77   38  161 1    
    78   38  162 1    
    79   38  163 1    
    80   39   40 am   BACKBONE|DICT|INTERRES
    81   39  164 1    
    82   40   41 2    
    83   40   42 1    
    84   42   43 1    
    85   42   44 1    
    86   42  165 1    
    87   43  166 1    
    88   43  167 1    
    89   43  168 1    
    90   44   45 am   BACKBONE|DICT|INTERRES
    91   44  169 1    
    92   45   46 2    
    93   45   47 1    
    94   47   48 1    
    95   47   49 1    
    96   47  170 1    
    97   48  171 1    
    98   48  172 1    
    99   48  173 1    
   100   49   50 am   BACKBONE|DICT|INTERRES
   101   49  174 1    
   102   50   51 2    
   103   50   52 1    
   104   52   53 1    
   105   52   54 1    
   106   52  175 1    
   107   53  176 1    
   108   53  177 1    
   109   53  178 1    
   110   54   55 am   BACKBONE|DICT|INTERRES
   111   54  179 1    
   112   55   56 2    
   113   55   57 1    
   114   57   58 1    
   115   57   59 1    
   116   57  180 1    
   117   58  181 1    
   118   58  182 1    
   119   58  183 1    
   120   59   60 am   BACKBONE|DICT|INTERRES
   121   59  184 1    
   122   60   61 2    
   123   60   62 1    
   124   62   63 1    
   125   62   64 1    
   126   62  185 1    
   127   63  186 1    
   128   63  187 1    
   129   63  188 1    
   130   64   65 am   BACKBONE|DICT|INTERRES
   131   64  189 1    
   132   65   66 2    
   133   67   68 2    
   134   67   69 am   BACKBONE|DICT|INTERRES
   135   69   70 1    
   136   69  190 1    
   137   70   71 1    
   138   70   72 1    
   139   70  191 1    
   140   71  192 1    
   141   71  193 1    
   142   71  194 1    
   143   72   73 2    
   144   72   74 am   BACKBONE|DICT|INTERRES
   145   74   75 1    
   146   74  195 1    
   147   75   76 1    
   148   75   77 1    
   149   75  196 1    
   150   76  197 1    
   151   76  198 1    
   152   76  199 1    
   153   77   78 2    
   154   77   79 am   BACKBONE|DICT|INTERRES
   155   79   80 1    
   156   79  200 1    
   157   80   81 1    
   158   80   82 1    
   159   80  201 1    
   160   81  202 1    
   161   81  203 1    
   162   81  204 1    
   163   82   83 2    
   164   82   84 am   BACKBONE|DICT|INTERRES
   165   84   85 1    
   166   84  205 1    
   167   85   86 1    
   168   85   87 1    
   169   85  206 1    
   170   86  207 1    
   171   86  208 1    
   172   86  209 1    
   173   87   88 2    
   174   87   89 am   BACKBONE|DICT|INTERRES
   175   89   90 1    
   176   89  210 1    
   177   90   91 1    
   178   90   92 1    
   179   90  211 1    
   180   91  212 1    
   181   91  213 1    
   182   91  214 1    
   183   92   93 2    
   184   92   94 am   BACKBONE|DICT|INTERRES
   185   94   95 1    
   186   94  215 1    
   187   95   96 1    
   188   95   97 1    
   189   95  216 1    
   190   96  217 1    
   191   96  218 1    
   192   96  219 1    
   193   97   98 2    
   194   97   99 am   BACKBONE|DICT|INTERRES
   195   99  100 1    
   196   99  220 1    
   197  100  101 1    
   198  100  102 1    
   199  100  221 1    
   200  101  222 1    
   201  101  223 1    
   202  101  224 1    
   203  102  103 2    
   204  102  104 am   BACKBONE|DICT|INTERRES
   205  104  105 1    
   206  104  225 1    
   207  105  106 1    
   208  105  107 1    
   209  105  226 1    
   210  106  227 1    
   211  106  228 1    
   212  106  229 1    
   213  107  108 2    
   214  107  109 am   BACKBONE|DICT|INTERRES
   215  109  110 1    
   216  109  230 1    
   217  110  111 1    
   218  110  112 1    
   219  110  231 1    
   220  111  232 1    
   221  111  233 1    
   222  111  234 1    
   223  112  113 2    
   224  112  114 am   BACKBONE|DICT|INTERRES
   225  114  115 1    
   226  114  235 1    
   227  115  116 1    
   228  115  117 1    
   229  115  236 1    
   230  116  237 1    
   231  116  238 1    
   232  116  239 1    
   233  117  118 2    
   234  117  119 am   BACKBONE|DICT|INTERRES
   235  119  120 1    
   236  119  240 1    
   237  120  121 1    
   238  120  124 1    
   239  120  241 1    
   240  121  122 am   BACKBONE|DICT|INTERRES
   241  121  123 2    
   242  122  242 1    
   243  122  243 1    
   244  124  125 1    
   245  124  244 1    
   246  124  245 1    
   247  125  126 1    
   248  126  246 1    
   249  126  247 1    
@<TRIPOS>SUBSTRUCTURE
     1 UNK         1 GROUP             0       ****    0 ROOT    
