@<TRIPOS>MOLECULE
3R540
247   249    1
SMALL
USER_CHARGES


@<TRIPOS>ATOM
      1 CA         -1.0034  -13.5483  -48.8650 C.3       0 UNK        -0.1800 
      2 C           0.4519  -13.1098  -48.8399 C.2       0 UNK         0.5000 
      3 O           0.7510  -11.9900  -48.4209 O.2       0 UNK        -0.5000 
      4 N           1.3593  -13.9859  -49.2883 N.am      1 UNK        -0.5000 
      5 CA          2.8085  -13.7597  -49.2601 C.3       1 UNK         0.1400 
      6 C6          3.5781  -14.7978  -50.1056 C.3       23 UNK        -0.0398 
      7 S7          3.4016  -14.4532  -51.8873 S.3       23 UNK        -0.2404 
      8 C8          4.2920  -15.8598  -52.6190 C.3       23 UNK        -0.0205 
      9 C9          3.4983  -17.1487  -52.4878 C.ar      23 UNK        -0.0193 
     10 C10         2.5191  -17.4715  -53.4318 C.ar      23 UNK        -0.1150 
     11 C11         1.7756  -18.6478  -53.3048 C.ar      23 UNK        -0.0193 
     12 C12         2.0194  -19.5034  -52.2262 C.ar      23 UNK        -0.1150 
     13 C13         2.9820  -19.1802  -51.2669 C.ar      23 UNK        -0.0193 
     14 C14         3.7329  -18.0122  -51.4149 C.ar      23 UNK        -0.1150 
     15 C15         3.2053  -20.0775  -50.0606 C.3       23 UNK        -0.0205 
     16 S16         2.3848  -19.4142  -48.5753 S.3       23 UNK        -0.2404 
     17 C17         0.6426  -19.8675  -48.8796 C.3       23 UNK        -0.0398 
     18 CA          0.2876  -21.2111  -48.2020 C.3       11 UNK         0.1400 
     19 N           0.2833  -21.1205  -46.7382 N.am      11 UNK        -0.5000 
     20 C           0.2513  -22.1770  -45.9143 C.2       10 UNK         0.5000 
     21 O           0.2710  -23.3448  -46.3022 O.2       10 UNK        -0.5000 
     22 CA          0.1155  -21.8832  -44.4090 C.3       10 UNK         0.1400 
     23 CB          1.4794  -21.5556  -43.7836 C.3       10 UNK        -0.1800 
     24 N          -0.8402  -20.8078  -44.1339 N.am      10 UNK        -0.5000 
     25 C          -2.1518  -20.8876  -44.4006 C.2       9 UNK         0.5000 
     26 O          -2.6903  -21.8990  -44.8461 O.2       9 UNK        -0.5000 
     27 CA         -3.0056  -19.6277  -44.1780 C.3       9 UNK         0.1400 
     28 CB         -3.4546  -19.5330  -42.7129 C.3       9 UNK        -0.1800 
     29 N          -2.3248  -18.3946  -44.5726 N.am      9 UNK        -0.5000 
     30 C          -1.9486  -18.0945  -45.8246 C.2       8 UNK         0.5000 
     31 O          -2.1713  -18.8194  -46.7948 O.2       8 UNK        -0.5000 
     32 CA         -1.1302  -16.8003  -46.0109 C.3       8 UNK         0.1400 
     33 CB         -2.0288  -15.5551  -45.9780 C.3       8 UNK        -0.1800 
     34 N          -0.0816  -16.6592  -45.0010 N.am      8 UNK        -0.5000 
     35 C           0.9282  -17.5240  -44.8315 C.2       7 UNK         0.5000 
     36 O           1.1030  -18.5193  -45.5330 O.2       7 UNK        -0.5000 
     37 CA          1.8515  -17.2737  -43.6283 C.3       7 UNK         0.1400 
     38 CB          2.8827  -16.1784  -43.9353 C.3       7 UNK        -0.1800 
     39 N           1.0888  -16.9216  -42.4300 N.am      7 UNK        -0.5000 
     40 C           0.3181  -17.7842  -41.7516 C.2       6 UNK         0.5000 
     41 O           0.2039  -18.9734  -42.0447 O.2       6 UNK        -0.5000 
     42 CA         -0.4884  -17.2168  -40.5692 C.3       6 UNK         0.1400 
     43 CB          0.3747  -17.1671  -39.2997 C.3       6 UNK        -0.1800 
     44 N          -1.0282  -15.8844  -40.8403 N.am      6 UNK        -0.5000 
     45 C          -1.9595  -15.6147  -41.7664 C.2       5 UNK         0.5000 
     46 O          -2.4935  -16.4703  -42.4687 O.2       5 UNK        -0.5000 
     47 CA         -2.3156  -14.1329  -41.9797 C.3       5 UNK         0.1400 
     48 CB         -3.4441  -13.7053  -41.0301 C.3       5 UNK        -0.1800 
     49 N          -1.1671  -13.2407  -41.8063 N.am      5 UNK        -0.5000 
     50 C          -0.0695  -13.2628  -42.5731 C.2       4 UNK         0.5000 
     51 O           0.1005  -14.0524  -43.5057 O.2       4 UNK        -0.5000 
     52 CA          1.0483  -12.2808  -42.1850 C.3       4 UNK         0.1400 
     53 CB          2.1406  -13.0080  -41.3855 C.3       4 UNK        -0.1800 
     54 N           1.6578  -11.6483  -43.3505 N.am      4 UNK        -0.5000 
     55 C           1.0437  -10.8210  -44.2025 C.2       3 UNK         0.5000 
     56 O          -0.1317  -10.4725  -44.0800 O.2       3 UNK        -0.5000 
     57 CA          1.8675  -10.2642  -45.3823 C.3       3 UNK         0.1400 
     58 CB          2.4832   -8.8991  -45.0211 C.3       3 UNK        -0.1800 
     59 N           2.8854  -11.1642  -45.9446 N.am      3 UNK        -0.5000 
     60 C           4.0078  -11.6523  -45.3922 C.2       2 UNK         0.5000 
     61 O           4.3345  -11.4499  -44.2222 O.2       2 UNK        -0.5000 
     62 CA          4.9394  -12.4843  -46.3024 C.3       2 UNK         0.1400 
     63 CB          5.5399  -13.7067  -45.5776 C.3       2 UNK        -0.1800 
     64 N           4.3368  -12.8539  -47.5909 N.am      2 UNK        -0.5000 
     65 C           3.3355  -13.7186  -47.8113 C.2       1 UNK         0.5000 
     66 O           2.8260  -14.4319  -46.9455 O.2       1 UNK        -0.5000 
     67 C          -1.0277  -21.7971  -48.7578 C.2       11 UNK         0.5000 
     68 O          -0.9802  -22.5368  -49.7404 O.2       11 UNK        -0.5000 
     69 N          -2.1668  -21.5099  -48.1083 N.am      12 UNK        -0.5000 
     70 CA         -3.4494  -22.1544  -48.3959 C.3       12 UNK         0.1400 
     71 CB         -4.5957  -21.4148  -47.6904 C.3       12 UNK        -0.1800 
     72 C          -3.4367  -23.6443  -48.0121 C.2       12 UNK         0.5000 
     73 O          -3.7513  -24.4899  -48.8494 O.2       12 UNK        -0.5000 
     74 N          -3.0361  -23.9418  -46.7683 N.am      13 UNK        -0.5000 
     75 CA         -2.9775  -25.2866  -46.1867 C.3       13 UNK         0.1400 
     76 CB         -2.5993  -25.1801  -44.7022 C.3       13 UNK        -0.1800 
     77 C          -2.0270  -26.2565  -46.9137 C.2       13 UNK         0.5000 
     78 O          -2.2561  -27.4650  -46.8699 O.2       13 UNK        -0.5000 
     79 N          -1.0014  -25.7196  -47.5885 N.am      14 UNK        -0.5000 
     80 CA         -0.0864  -26.4653  -48.4535 C.3       14 UNK         0.1400 
     81 CB          1.0502  -25.5367  -48.9077 C.3       14 UNK        -0.1800 
     82 C          -0.7859  -27.1030  -49.6717 C.2       14 UNK         0.5000 
     83 O          -0.3835  -28.1869  -50.0966 O.2       14 UNK        -0.5000 
     84 N          -1.8220  -26.4343  -50.1970 N.am      15 UNK        -0.5000 
     85 CA         -2.6771  -26.9460  -51.2684 C.3       15 UNK         0.1400 
     86 CB         -3.1055  -25.7808  -52.1709 C.3       15 UNK        -0.1800 
     87 C          -3.9150  -27.6660  -50.7077 C.2       15 UNK         0.5000 
     88 O          -4.3202  -28.6870  -51.2628 O.2       15 UNK        -0.5000 
     89 N          -4.4852  -27.1087  -49.6286 N.am      16 UNK        -0.5000 
     90 CA         -5.6996  -27.5297  -48.9224 C.3       16 UNK         0.1400 
     91 CB         -5.4427  -28.8487  -48.1644 C.3       16 UNK        -0.1800 
     92 C          -6.9385  -27.6023  -49.8497 C.2       16 UNK         0.5000 
     93 O          -7.4482  -28.6953  -50.0962 O.2       16 UNK        -0.5000 
     94 N          -7.4360  -26.4810  -50.3923 N.am      17 UNK        -0.5000 
     95 CA         -7.0060  -25.0935  -50.1914 C.3       17 UNK         0.1400 
     96 CB         -7.8534  -24.4404  -49.0850 C.3       17 UNK        -0.1800 
     97 C          -7.0443  -24.3166  -51.5199 C.2       17 UNK         0.5000 
     98 O          -7.2849  -23.1087  -51.5220 O.2       17 UNK        -0.5000 
     99 N          -6.7888  -25.0247  -52.6314 N.am      18 UNK        -0.5000 
    100 CA        -6.8655  -24.5381  -54.0163 C.3       18 UNK         0.1400 
    101 CB        -6.5738  -25.7115  -54.9645 C.3       18 UNK        -0.1800 
    102 C         -5.9524  -23.3394  -54.3511 C.2       18 UNK         0.5000 
    103 O         -6.2217  -22.6266  -55.3183 O.2       18 UNK        -0.5000 
    104 N         -4.9078  -23.1272  -53.5399 N.am      19 UNK        -0.5000 
    105 CA        -4.0214  -21.9637  -53.5830 C.3       19 UNK         0.1400 
    106 CB        -2.8323  -22.2200  -52.6437 C.3       19 UNK        -0.1800 
    107 C         -4.7254  -20.6391  -53.2215 C.2       19 UNK         0.5000 
    108 O         -4.2818  -19.5839  -53.6714 O.2       19 UNK        -0.5000 
    109 N         -5.8040  -20.7134  -52.4238 N.am      20 UNK        -0.5000 
    110 CA        -6.6688  -19.6019  -52.0085 C.3       20 UNK         0.1400 
    111 CB        -7.4739  -19.0707  -53.2129 C.3       20 UNK        -0.1800 
    112 C         -5.9301  -18.4839  -51.2377 C.2       20 UNK         0.5000 
    113 O         -6.2977  -17.3132  -51.3501 O.2       20 UNK        -0.5000 
    114 N         -4.9122  -18.8794  -50.4572 N.am      21 UNK        -0.5000 
    115 CA        -4.0693  -18.0346  -49.6023 C.3       21 UNK         0.1400 
    116 CB        -4.9042  -17.4295  -48.4520 C.3       21 UNK        -0.1800 
    117 C         -3.2700  -16.9763  -50.3931 C.2       21 UNK         0.5000 
    118 O         -3.2453  -15.8048  -50.0125 O.2       21 UNK        -0.5000 
    119 N         -2.6491  -17.4118  -51.4962 N.am      22 UNK        -0.5000 
    120 CA        -1.7771  -16.6020  -52.3607 C.3       22 UNK         0.1400 
    121 C         -0.4709  -16.0840  -51.6885 C.2       22 UNK         0.5000 
    122 N          0.1833  -15.1096  -52.3075 N.am      22 UNK        -0.7600 
    123 O         -0.0399  -16.5403  -50.6314 O.2       22 UNK        -0.5000 
    124 C124       -1.5055  -17.3018  -53.7225 C.3       23 UNK        -0.0398 
    125 S125       -0.9521  -19.0405  -53.6046 S.3       23 UNK        -0.2404 
    126 C126        0.7155  -19.0080  -54.3323 C.3       23 UNK        -0.0205 
    127 H127       -1.4790  -13.2277  -49.7917 H         1 UNK         0.0600 
    128 H128       -1.5496  -13.1117  -48.0290 H         1 UNK         0.0600 
    129 H129       -1.0877  -14.6328  -48.7933 H         1 UNK         0.0600 
    130 H130        1.0521  -14.9017  -49.5969 H         1 UNK         0.3000 
    131 H131        2.9864  -12.7721  -49.6926 H         1 UNK         0.0600 
    132 H132        4.6457  -14.7852  -49.8771 H         1 UNK         0.0800 
    133 H133        3.2223  -15.8034  -49.8781 H         1 UNK         0.0800 
    134 H134        5.2730  -15.9604  -52.1519 H         1 UNK         0.0800 
    135 H135        4.4771  -15.6502  -53.6736 H         1 UNK         0.0800 
    136 H136        2.3308  -16.8003  -54.2579 H         1 UNK         0.1150 
    137 H137        1.4399  -20.4103  -52.1247 H         1 UNK         0.1150 
    138 H138        4.4814  -17.7627  -50.6761 H         1 UNK         0.1150 
    139 H139        2.8531  -21.0913  -50.2574 H         1 UNK         0.0800 
    140 H140        4.2753  -20.1593  -49.8644 H         1 UNK         0.0800 
    141 H141        0.4661  -19.9066  -49.9548 H         1 UNK         0.0800 
    142 H142        0.0048  -19.0658  -48.5035 H         1 UNK         0.0800 
    143 H143        1.0657  -21.9290  -48.4719 H         1 UNK         0.0600 
    144 H144        0.3277  -20.1872  -46.3391 H         1 UNK         0.3000 
    145 H145       -0.2599  -22.7889  -43.9289 H         1 UNK         0.0600 
    146 H146        1.3956  -21.4191  -42.7055 H         1 UNK         0.0600 
    147 H147        2.1897  -22.3653  -43.9544 H         1 UNK         0.0600 
    148 H148        1.9119  -20.6480  -44.2033 H         1 UNK         0.0600 
    149 H149       -0.4699  -19.9622  -43.7138 H         1 UNK         0.3000 
    150 H150       -3.8988  -19.7228  -44.7989 H         1 UNK         0.0600 
    151 H151       -3.9721  -20.4416  -42.4027 H         1 UNK         0.0600 
    152 H152       -4.1432  -18.7011  -42.5651 H         1 UNK         0.0600 
    153 H153       -2.6076  -19.3909  -42.0413 H         1 UNK         0.0600 
    154 H154       -2.1528  -17.7195  -43.8318 H         1 UNK         0.3000 
    155 H155       -0.6429  -16.8452  -46.9875 H         1 UNK         0.0600 
    156 H156       -2.7043  -15.5378  -46.8324 H         1 UNK         0.0600 
    157 H157       -1.4361  -14.6410  -46.0187 H         1 UNK         0.0600 
    158 H158       -2.6361  -15.5157  -45.0736 H         1 UNK         0.0600 
    159 H159       -0.1293  -15.8438  -44.3979 H         1 UNK         0.3000 
    160 H160        2.3959  -18.1988  -43.4266 H         1 UNK         0.0600 
    161 H161        2.4092  -15.2216  -44.1575 H         1 UNK         0.0600 
    162 H162        3.4833  -16.4504  -44.8042 H         1 UNK         0.0600 
    163 H163        3.5664  -16.0306  -43.0995 H         1 UNK         0.0600 
    164 H164        1.0817  -15.9482  -42.1654 H         1 UNK         0.3000 
    165 H165       -1.3279  -17.8906  -40.3853 H         1 UNK         0.0600 
    166 H166       -0.2092  -16.8417  -38.4385 H         1 UNK         0.0600 
    167 H167        0.7777  -18.1530  -39.0638 H         1 UNK         0.0600 
    168 H168        1.2187  -16.4852  -39.4110 H         1 UNK         0.0600 
    169 H169       -0.6463  -15.1185  -40.3057 H         1 UNK         0.3000 
    170 H170       -2.6721  -14.0233  -43.0060 H         1 UNK         0.0600 
    171 H171       -4.3202  -14.3435  -41.1537 H         1 UNK         0.0600 
    172 H172       -3.1380  -13.7667  -39.9850 H         1 UNK         0.0600 
    173 H173       -3.7599  -12.6809  -41.2287 H         1 UNK         0.0600 
    174 H174       -1.2302  -12.5671  -41.0565 H         1 UNK         0.3000 
    175 H175        0.6267  -11.4912  -41.5596 H         1 UNK         0.0600 
    176 H176        2.6261  -13.7826  -41.9803 H         1 UNK         0.0600 
    177 H177        2.9115  -12.3134  -41.0514 H         1 UNK         0.0600 
    178 H178        1.7267  -13.4853  -40.4963 H         1 UNK         0.0600 
    179 H179        2.6404  -11.8401  -43.5202 H         1 UNK         0.3000 
    180 H180        1.1567  -10.0958  -46.1930 H         1 UNK         0.0600 
    181 H181        3.2038   -8.9802  -44.2068 H         1 UNK         0.0600 
    182 H182        1.7120   -8.1962  -44.7033 H         1 UNK         0.0600 
    183 H183        2.9920   -8.4566  -45.8775 H         1 UNK         0.0600 
    184 H184        2.6918  -11.4505  -46.8947 H         1 UNK         0.3000 
    185 H185        5.7695  -11.8212  -46.5498 H         1 UNK         0.0600 
    186 H186        6.1550  -13.3953  -44.7327 H         1 UNK         0.0600 
    187 H187        4.7673  -14.3666  -45.1860 H         1 UNK         0.0600 
    188 H188        6.1762  -14.2895  -46.2435 H         1 UNK         0.0600 
    189 H189        4.6830  -12.3230  -48.3789 H         1 UNK         0.3000 
    190 H190       -2.1389  -20.8492  -47.3394 H         1 UNK         0.3000 
    191 H191       -3.6270  -22.0856  -49.4694 H         1 UNK         0.0600 
    192 H192       -4.5473  -21.5134  -46.6069 H         1 UNK         0.0600 
    193 H193       -5.5625  -21.8068  -48.0083 H         1 UNK         0.0600 
    194 H194       -4.5831  -20.3527  -47.9216 H         1 UNK         0.0600 
    195 H195       -2.8086  -23.1757  -46.1367 H         1 UNK         0.3000 
    196 H196       -3.9811  -25.7116  -46.2521 H         1 UNK         0.0600 
    197 H197       -2.5828  -26.1630  -44.2296 H         1 UNK         0.0600 
    198 H198       -3.3166  -24.5686  -44.1546 H         1 UNK         0.0600 
    199 H199       -1.6120  -24.7362  -44.5733 H         1 UNK         0.0600 
    200 H200       -0.8276  -24.7263  -47.4860 H         1 UNK         0.3000 
    201 H201        0.3483  -27.2727  -47.8608 H         1 UNK         0.0600 
    202 H202        1.5966  -25.1345  -48.0545 H         1 UNK         0.0600 
    203 H203        0.6736  -24.6959  -49.4909 H         1 UNK         0.0600 
    204 H204        1.7678  -26.0729  -49.5299 H         1 UNK         0.0600 
    205 H205       -2.1021  -25.5610  -49.7678 H         1 UNK         0.3000 
    206 H206       -2.1223  -27.6585  -51.8827 H         1 UNK         0.0600 
    207 H207       -2.2383  -25.3151  -52.6381 H         1 UNK         0.0600 
    208 H208       -3.7602  -26.1248  -52.9725 H         1 UNK         0.0600 
    209 H209       -3.6396  -25.0151  -51.6086 H         1 UNK         0.0600 
    210 H210       -4.0855  -26.2357  -49.2935 H         1 UNK         0.3000 
    211 H211       -5.9073  -26.7670  -48.1710 H         1 UNK         0.0600 
    212 H212       -5.2077  -29.6702  -48.8418 H         1 UNK         0.0600 
    213 H213       -6.3182  -29.1423  -47.5842 H         1 UNK         0.0600 
    214 H214       -4.6123  -28.7454  -47.4665 H         1 UNK         0.0600 
    215 H215       -8.2350  -26.5791  -51.0031 H         1 UNK         0.3000 
    216 H216       -5.9683  -25.0486  -49.8793 H         1 UNK         0.0600 
    217 H217       -7.5236  -23.4199  -48.8861 H         1 UNK         0.0600 
    218 H218       -7.7744  -24.9909  -48.1477 H         1 UNK         0.0600 
    219 H219       -8.9075  -24.3989  -49.3613 H         1 UNK         0.0600 
    220 H220       -6.5920  -26.0093  -52.5229 H         1 UNK         0.3000 
    221 H221       -7.8927  -24.2096  -54.1863 H         1 UNK         0.0600 
    222 H222       -5.5677  -26.1063  -54.8181 H         1 UNK         0.0600 
    223 H223       -7.2809  -26.5274  -54.8136 H         1 UNK         0.0600 
    224 H224       -6.6562  -25.4030  -56.0076 H         1 UNK         0.0600 
    225 H225       -4.7654  -23.7750  -52.7818 H         1 UNK         0.3000 
    226 H226       -3.6394  -21.8579  -54.6005 H         1 UNK         0.0600 
    227 H227       -2.1662  -22.9777  -53.0545 H         1 UNK         0.0600 
    228 H228       -2.2351  -21.3226  -52.4910 H         1 UNK         0.0600 
    229 H229       -3.1576  -22.5579  -51.6611 H         1 UNK         0.0600 
    230 H230       -6.1214  -21.6312  -52.1252 H         1 UNK         0.3000 
    231 H231       -7.3832  -20.0279  -51.3025 H         1 UNK         0.0600 
    232 H232       -8.2278  -18.3498  -52.8947 H         1 UNK         0.0600 
    233 H233       -7.9960  -19.8796  -53.7241 H         1 UNK         0.0600 
    234 H234       -6.8316  -18.5737  -53.9406 H         1 UNK         0.0600 
    235 H235       -4.6882  -19.8629  -50.4624 H         1 UNK         0.3000 
    236 H236       -3.3259  -18.6981  -49.1599 H         1 UNK         0.0600 
    237 H237       -4.2606  -16.9541  -47.7143 H         1 UNK         0.0600 
    238 H238       -5.6027  -16.6731  -48.8108 H         1 UNK         0.0600 
    239 H239       -5.4805  -18.1918  -47.9293 H         1 UNK         0.0600 
    240 H240       -2.7413  -18.3805  -51.7652 H         1 UNK         0.3000 
    241 H241       -2.3521  -15.7013  -52.5849 H         1 UNK         0.0600 
    242 H242       -0.1555  -14.7048  -53.1654 H         1 UNK         0.3800 
    243 H243        1.0641  -14.7928  -51.9312 H         1 UNK         0.3800 
    244 H244       -0.8041  -16.7281  -54.3296 H         1 UNK         0.0800 
    245 H245       -2.4331  -17.3126  -54.2965 H         1 UNK         0.0800 
    246 H246        0.7393  -18.3297  -55.1864 H         1 UNK         0.0800 
    247 H247        0.9395  -19.9998  -54.7274 H         1 UNK         0.0800 
@<TRIPOS>BOND
     1    1    2 1    
     2    1  127 1    
     3    1  128 1    
     4    1  129 1    
     5    2    3 2    
     6    2    4 am   BACKBONE|DICT|INTERRES
     7    4    5 1    
     8    4  130 1    
     9    5    6 1    
    10    5   65 1    
    11    5  131 1    
    12    6    7 1    
    13    6  132 1    
    14    6  133 1    
    15    7    8 1    
    16    8    9 1    
    17    8  134 1    
    18    8  135 1    
    19    9   10 ar   
    20    9   14 ar   
    21   10   11 ar   
    22   10  136 1    
    23   11   12 ar   
    24   11  126 1    
    25   12   13 ar   
    26   12  137 1    
    27   13   14 ar   
    28   13   15 1    
    29   14  138 1    
    30   15   16 1    
    31   15  139 1    
    32   15  140 1    
    33   16   17 1    
    34   17   18 1    
    35   17  141 1    
    36   17  142 1    
    37   18   19 1    
    38   18   67 1    
    39   18  143 1    
    40   19   20 am   BACKBONE|DICT|INTERRES
    41   19  144 1    
    42   20   21 2    
    43   20   22 1    
    44   22   23 1    
    45   22   24 1    
    46   22  145 1    
    47   23  146 1    
    48   23  147 1    
    49   23  148 1    
    50   24   25 am   BACKBONE|DICT|INTERRES
    51   24  149 1    
    52   25   26 2    
    53   25   27 1    
    54   27   28 1    
    55   27   29 1    
    56   27  150 1    
    57   28  151 1    
    58   28  152 1    
    59   28  153 1    
    60   29   30 am   BACKBONE|DICT|INTERRES
    61   29  154 1    
    62   30   31 2    
    63   30   32 1    
    64   32   33 1    
    65   32   34 1    
    66   32  155 1    
    67   33  156 1    
    68   33  157 1    
    69   33  158 1    
    70   34   35 am   BACKBONE|DICT|INTERRES
    71   34  159 1    
    72   35   36 2    
    73   35   37 1    
    74   37   38 1    
    75   37   39 1    
    76   37  160 1    
    77   38  161 1    
    78   38  162 1    
    79   38  163 1    
    80   39   40 am   BACKBONE|DICT|INTERRES
    81   39  164 1    
    82   40   41 2    
    83   40   42 1    
    84   42   43 1    
    85   42   44 1    
    86   42  165 1    
    87   43  166 1    
    88   43  167 1    
    89   43  168 1    
    90   44   45 am   BACKBONE|DICT|INTERRES
    91   44  169 1    
    92   45   46 2    
    93   45   47 1    
    94   47   48 1    
    95   47   49 1    
    96   47  170 1    
    97   48  171 1    
    98   48  172 1    
    99   48  173 1    
   100   49   50 am   BACKBONE|DICT|INTERRES
   101   49  174 1    
   102   50   51 2    
   103   50   52 1    
   104   52   53 1    
   105   52   54 1    
   106   52  175 1    
   107   53  176 1    
   108   53  177 1    
   109   53  178 1    
   110   54   55 am   BACKBONE|DICT|INTERRES
   111   54  179 1    
   112   55   56 2    
   113   55   57 1    
   114   57   58 1    
   115   57   59 1    
   116   57  180 1    
   117   58  181 1    
   118   58  182 1    
   119   58  183 1    
   120   59   60 am   BACKBONE|DICT|INTERRES
   121   59  184 1    
   122   60   61 2    
   123   60   62 1    
   124   62   63 1    
   125   62   64 1    
   126   62  185 1    
   127   63  186 1    
   128   63  187 1    
   129   63  188 1    
   130   64   65 am   BACKBONE|DICT|INTERRES
   131   64  189 1    
   132   65   66 2    
   133   67   68 2    
   134   67   69 am   BACKBONE|DICT|INTERRES
   135   69   70 1    
   136   69  190 1    
   137   70   71 1    
   138   70   72 1    
   139   70  191 1    
   140   71  192 1    
   141   71  193 1    
   142   71  194 1    
   143   72   73 2    
   144   72   74 am   BACKBONE|DICT|INTERRES
   145   74   75 1    
   146   74  195 1    
   147   75   76 1    
   148   75   77 1    
   149   75  196 1    
   150   76  197 1    
   151   76  198 1    
   152   76  199 1    
   153   77   78 2    
   154   77   79 am   BACKBONE|DICT|INTERRES
   155   79   80 1    
   156   79  200 1    
   157   80   81 1    
   158   80   82 1    
   159   80  201 1    
   160   81  202 1    
   161   81  203 1    
   162   81  204 1    
   163   82   83 2    
   164   82   84 am   BACKBONE|DICT|INTERRES
   165   84   85 1    
   166   84  205 1    
   167   85   86 1    
   168   85   87 1    
   169   85  206 1    
   170   86  207 1    
   171   86  208 1    
   172   86  209 1    
   173   87   88 2    
   174   87   89 am   BACKBONE|DICT|INTERRES
   175   89   90 1    
   176   89  210 1    
   177   90   91 1    
   178   90   92 1    
   179   90  211 1    
   180   91  212 1    
   181   91  213 1    
   182   91  214 1    
   183   92   93 2    
   184   92   94 am   BACKBONE|DICT|INTERRES
   185   94   95 1    
   186   94  215 1    
   187   95   96 1    
   188   95   97 1    
   189   95  216 1    
   190   96  217 1    
   191   96  218 1    
   192   96  219 1    
   193   97   98 2    
   194   97   99 am   BACKBONE|DICT|INTERRES
   195   99  100 1    
   196   99  220 1    
   197  100  101 1    
   198  100  102 1    
   199  100  221 1    
   200  101  222 1    
   201  101  223 1    
   202  101  224 1    
   203  102  103 2    
   204  102  104 am   BACKBONE|DICT|INTERRES
   205  104  105 1    
   206  104  225 1    
   207  105  106 1    
   208  105  107 1    
   209  105  226 1    
   210  106  227 1    
   211  106  228 1    
   212  106  229 1    
   213  107  108 2    
   214  107  109 am   BACKBONE|DICT|INTERRES
   215  109  110 1    
   216  109  230 1    
   217  110  111 1    
   218  110  112 1    
   219  110  231 1    
   220  111  232 1    
   221  111  233 1    
   222  111  234 1    
   223  112  113 2    
   224  112  114 am   BACKBONE|DICT|INTERRES
   225  114  115 1    
   226  114  235 1    
   227  115  116 1    
   228  115  117 1    
   229  115  236 1    
   230  116  237 1    
   231  116  238 1    
   232  116  239 1    
   233  117  118 2    
   234  117  119 am   BACKBONE|DICT|INTERRES
   235  119  120 1    
   236  119  240 1    
   237  120  121 1    
   238  120  124 1    
   239  120  241 1    
   240  121  122 am   BACKBONE|DICT|INTERRES
   241  121  123 2    
   242  122  242 1    
   243  122  243 1    
   244  124  125 1    
   245  124  244 1    
   246  124  245 1    
   247  125  126 1    
   248  126  246 1    
   249  126  247 1    
@<TRIPOS>SUBSTRUCTURE
     1 UNK         1 GROUP             0       ****    0 ROOT    
