@<TRIPOS>MOLECULE
3R540
247   249    1
SMALL
USER_CHARGES


@<TRIPOS>ATOM
      1 CA          6.6337  -14.8175  -46.2352 C.3       0 UNK        -0.1800 
      2 C           5.3001  -14.0908  -46.3204 C.2       0 UNK         0.5000 
      3 O           4.6800  -13.8265  -45.2909 O.2       0 UNK        -0.5000 
      4 N           4.8676  -13.7437  -47.5409 N.am      1 UNK        -0.5000 
      5 CA          3.5719  -13.1208  -47.8606 C.3       1 UNK         0.1400 
      6 C6          3.2940  -13.0943  -49.3845 C.3       23 UNK        -0.0398 
      7 S7          3.3492  -14.7472  -50.1576 S.3       23 UNK        -0.2404 
      8 C8          1.6165  -15.2760  -49.9720 C.3       23 UNK        -0.0205 
      9 C9          1.3489  -16.5965  -50.6810 C.ar      23 UNK        -0.0193 
     10 C10         0.5122  -16.6412  -51.8007 C.ar      23 UNK        -0.1150 
     11 C11         0.2453  -17.8565  -52.4384 C.ar      23 UNK        -0.0193 
     12 C12         0.8217  -19.0330  -51.9529 C.ar      23 UNK        -0.1150 
     13 C13         1.6679  -19.0016  -50.8424 C.ar      23 UNK        -0.0193 
     14 C14         1.9255  -17.7801  -50.2097 C.ar      23 UNK        -0.1150 
     15 C15         2.3326  -20.2803  -50.3537 C.3       23 UNK        -0.0205 
     16 S16         1.9565  -20.6339  -48.6114 S.3       23 UNK        -0.2404 
     17 C17         0.2479  -21.2802  -48.6843 C.3       23 UNK        -0.0398 
     18 CA          0.0924  -22.4439  -47.6783 C.3       11 UNK         0.1400 
     19 N           0.2077  -21.9939  -46.2885 N.am      11 UNK        -0.5000 
     20 C           0.4403  -22.8023  -45.2480 C.2       10 UNK         0.5000 
     21 O           0.5554  -24.0223  -45.3482 O.2       10 UNK        -0.5000 
     22 CA          0.5285  -22.1479  -43.8591 C.3       10 UNK         0.1400 
     23 CB          1.8802  -21.4430  -43.6709 C.3       10 UNK        -0.1800 
     24 N          -0.5605  -21.2052  -43.6086 N.am      10 UNK        -0.5000 
     25 C          -1.8562  -21.5424  -43.5439 C.2       9 UNK         0.5000 
     26 O          -2.2720  -22.6949  -43.6715 O.2       9 UNK        -0.5000 
     27 CA         -2.8609  -20.3924  -43.3450 C.3       9 UNK         0.1400 
     28 CB         -2.8889  -19.9331  -41.8796 C.3       9 UNK        -0.1800 
     29 N          -2.5921  -19.2468  -44.2151 N.am      9 UNK        -0.5000 
     30 C          -2.6170  -19.2975  -45.5550 C.2       8 UNK         0.5000 
     31 O          -2.8905  -20.3096  -46.1977 O.2       8 UNK        -0.5000 
     32 CA         -2.2185  -18.0177  -46.3074 C.3       8 UNK         0.1400 
     33 CB         -3.3672  -16.9976  -46.2913 C.3       8 UNK        -0.1800 
     34 N          -0.9977  -17.4079  -45.7818 N.am      8 UNK        -0.5000 
     35 C           0.1929  -18.0227  -45.7246 C.2       7 UNK         0.5000 
     36 O           0.3898  -19.1674  -46.1238 O.2       7 UNK        -0.5000 
     37 CA          1.3419  -17.2615  -45.0460 C.3       7 UNK         0.1400 
     38 CB          1.8944  -16.1615  -45.9630 C.3       7 UNK        -0.1800 
     39 N           0.9384  -16.6847  -43.7659 N.am      7 UNK        -0.5000 
     40 C           0.5096  -17.3889  -42.7087 C.2       6 UNK         0.5000 
     41 O           0.4483  -18.6178  -42.6763 O.2       6 UNK        -0.5000 
     42 CA          0.0188  -16.5760  -41.5010 C.3       6 UNK         0.1400 
     43 CB          1.1997  -16.0877  -40.6483 C.3       6 UNK        -0.1800 
     44 N          -0.7963  -15.4353  -41.9158 N.am      6 UNK        -0.5000 
     45 C          -2.0254  -15.5371  -42.4399 C.2       5 UNK         0.5000 
     46 O          -2.6160  -16.6058  -42.6030 O.2       5 UNK        -0.5000 
     47 CA         -2.6895  -14.2218  -42.8863 C.3       5 UNK         0.1400 
     48 CB         -3.3129  -13.4924  -41.6869 C.3       5 UNK        -0.1800 
     49 N          -1.7616  -13.3220  -43.5756 N.am      5 UNK        -0.5000 
     50 C          -1.2208  -13.5813  -44.7737 C.2       4 UNK         0.5000 
     51 O          -1.4365  -14.6089  -45.4129 O.2       4 UNK        -0.5000 
     52 CA         -0.2536  -12.5337  -45.3490 C.3       4 UNK         0.1400 
     53 CB         -1.0377  -11.3836  -45.9991 C.3       4 UNK        -0.1800 
     54 N           0.7146  -11.9817  -44.3973 N.am      4 UNK        -0.5000 
     55 C           1.5351  -12.6816  -43.6012 C.2       3 UNK         0.5000 
     56 O           1.4573  -13.8988  -43.4323 O.2       3 UNK        -0.5000 
     57 CA          2.6718  -11.8776  -42.9474 C.3       3 UNK         0.1400 
     58 CB          3.5098  -12.7198  -41.9689 C.3       3 UNK        -0.1800 
     59 N           3.5396  -11.3903  -44.0162 N.am      3 UNK        -0.5000 
     60 C           3.5193  -10.1534  -44.5323 C.2       2 UNK         0.5000 
     61 O           2.8543   -9.2295  -44.0629 O.2       2 UNK        -0.5000 
     62 CA          4.3344   -9.9220  -45.8231 C.3       2 UNK         0.1400 
     63 CB          5.7569   -9.4502  -45.4869 C.3       2 UNK        -0.1800 
     64 N           4.4118  -11.1194  -46.6636 N.am      2 UNK        -0.5000 
     65 C           3.3617  -11.7153  -47.2481 C.2       1 UNK         0.5000 
     66 O           2.2409  -11.2086  -47.2905 O.2       1 UNK        -0.5000 
     67 C          -1.1844  -23.2738  -47.9141 C.2       11 UNK         0.5000 
     68 O          -1.1301  -24.2520  -48.6611 O.2       11 UNK        -0.5000 
     69 N          -2.2883  -22.9380  -47.2309 N.am      12 UNK        -0.5000 
     70 CA         -3.5036  -23.7518  -47.1978 C.3       12 UNK         0.1400 
     71 CB         -4.6378  -22.9854  -46.5029 C.3       12 UNK        -0.1800 
     72 C          -3.2699  -25.1244  -46.5399 C.2       12 UNK         0.5000 
     73 O          -3.6592  -26.1403  -47.1164 O.2       12 UNK        -0.5000 
     74 N          -2.5940  -25.1386  -45.3811 N.am      13 UNK        -0.5000 
     75 CA         -2.2211  -26.3548  -44.6510 C.3       13 UNK         0.1400 
     76 CB         -1.6510  -25.9745  -43.2763 C.3       13 UNK        -0.1800 
     77 C          -1.2341  -27.2536  -45.4232 C.2       13 UNK         0.5000 
     78 O          -1.3544  -28.4778  -45.3671 O.2       13 UNK        -0.5000 
     79 N          -0.3017  -26.6320  -46.1571 N.am      14 UNK        -0.5000 
     80 CA          0.6719  -27.2909  -47.0320 C.3       14 UNK         0.1400 
     81 CB          1.8222  -26.3113  -47.3150 C.3       14 UNK        -0.1800 
     82 C           0.0750  -27.8090  -48.3581 C.2       14 UNK         0.5000 
     83 O           0.7874  -28.4760  -49.1094 O.2       14 UNK        -0.5000 
     84 N          -1.1974  -27.4841  -48.6332 N.am      15 UNK        -0.5000 
     85 CA         -1.9638  -27.8115  -49.8406 C.3       15 UNK         0.1400 
     86 CB         -2.1019  -29.3370  -50.0291 C.3       15 UNK        -0.1800 
     87 C          -1.4655  -27.0855  -51.1096 C.2       15 UNK         0.5000 
     88 O          -1.7397  -27.5366  -52.2229 O.2       15 UNK        -0.5000 
     89 N          -0.7906  -25.9427  -50.9242 N.am      16 UNK        -0.5000 
     90 CA         -0.4757  -24.9744  -51.9779 C.3       16 UNK         0.1400 
     91 CB          0.7848  -24.1909  -51.5780 C.3       16 UNK        -0.1800 
     92 C          -1.6595  -24.0206  -52.2493 C.2       16 UNK         0.5000 
     93 O          -1.6672  -23.3509  -53.2830 O.2       16 UNK        -0.5000 
     94 N          -2.6343  -24.0059  -51.3262 N.am      17 UNK        -0.5000 
     95 CA         -3.8803  -23.2368  -51.3048 C.3       17 UNK         0.1400 
     96 CB         -4.7106  -23.4756  -52.5829 C.3       17 UNK        -0.1800 
     97 C          -3.6696  -21.7370  -51.0272 C.2       17 UNK         0.5000 
     98 O          -2.5543  -21.2227  -51.1282 O.2       17 UNK        -0.5000 
     99 N          -4.7699  -21.0729  -50.6644 N.am      18 UNK        -0.5000 
    100 CA        -4.8832  -19.6357  -50.4606 C.3       18 UNK         0.1400 
    101 CB        -4.1699  -19.2118  -49.1642 C.3       18 UNK        -0.1800 
    102 C         -6.3740  -19.2713  -50.4075 C.2       18 UNK         0.5000 
    103 O         -7.2071  -20.1420  -50.1403 O.2       18 UNK        -0.5000 
    104 N         -6.6731  -17.9853  -50.6400 N.am      19 UNK        -0.5000 
    105 CA        -7.9862  -17.3307  -50.5204 C.3       19 UNK         0.1400 
    106 CB        -8.4940  -17.3948  -49.0644 C.3       19 UNK        -0.1800 
    107 C         -9.0627  -17.7925  -51.5305 C.2       19 UNK         0.5000 
    108 O        -10.2218  -17.3947  -51.4003 O.2       19 UNK        -0.5000 
    109 N         -8.6728  -18.5841  -52.5338 N.am      20 UNK        -0.5000 
    110 CA        -9.5164  -19.0624  -53.6232 C.3       20 UNK         0.1400 
    111 CB       -10.3961  -20.2406  -53.1516 C.3       20 UNK        -0.1800 
    112 C         -8.5679  -19.4092  -54.7750 C.2       20 UNK         0.5000 
    113 O         -8.1898  -18.5196  -55.5390 O.2       20 UNK        -0.5000 
    114 N         -8.1285  -20.6721  -54.8242 N.am      21 UNK        -0.5000 
    115 CA        -6.9329  -21.0932  -55.5524 C.3       21 UNK         0.1400 
    116 CB        -6.9438  -22.6250  -55.6766 C.3       21 UNK        -0.1800 
    117 C         -5.6690  -20.6141  -54.8111 C.2       21 UNK         0.5000 
    118 O         -5.7363  -20.3197  -53.6148 O.2       21 UNK        -0.5000 
    119 N         -4.5410  -20.5534  -55.5215 N.am      22 UNK        -0.5000 
    120 CA        -3.2458  -20.1455  -54.9710 C.3       22 UNK         0.1400 
    121 C         -2.1206  -20.6510  -55.9065 C.2       22 UNK         0.5000 
    122 N         -1.3348  -21.6348  -55.4947 N.am      22 UNK        -0.7600 
    123 O         -1.9556  -20.1521  -57.0171 O.2       22 UNK        -0.5000 
    124 C124       -3.1710  -18.6076  -54.7200 C.3       23 UNK        -0.0398 
    125 S125       -2.3840  -18.2052  -53.1300 S.3       23 UNK        -0.2404 
    126 C126       -0.6709  -17.9081  -53.6481 C.3       23 UNK        -0.0205 
    127 H127        7.0757  -14.9713  -47.2199 H         1 UNK         0.0600 
    128 H128        6.4980  -15.7924  -45.7670 H         1 UNK         0.0600 
    129 H129        7.3361  -14.2428  -45.6317 H         1 UNK         0.0600 
    130 H130        5.4306  -13.9868  -48.3439 H         1 UNK         0.3000 
    131 H131        2.8070  -13.7504  -47.4026 H         1 UNK         0.0600 
    132 H132        4.0287  -12.4643  -49.8887 H         1 UNK         0.0800 
    133 H133        2.3214  -12.6456  -49.5960 H         1 UNK         0.0800 
    134 H134        1.3783  -15.3808  -48.9131 H         1 UNK         0.0800 
    135 H135        0.9583  -14.4977  -50.3613 H         1 UNK         0.0800 
    136 H136        0.0595  -15.7328  -52.1727 H         1 UNK         0.1150 
    137 H137        0.6107  -19.9726  -52.4447 H         1 UNK         0.1150 
    138 H138        2.5796  -17.7500  -49.3495 H         1 UNK         0.1150 
    139 H139        2.0518  -21.1367  -50.9688 H         1 UNK         0.0800 
    140 H140        3.4124  -20.1693  -50.4597 H         1 UNK         0.0800 
    141 H141        0.0274  -21.6061  -49.7020 H         1 UNK         0.0800 
    142 H142       -0.4538  -20.4739  -48.4631 H         1 UNK         0.0800 
    143 H143        0.9217  -23.1311  -47.8575 H         1 UNK         0.0600 
    144 H144        0.1674  -20.9869  -46.1382 H         1 UNK         0.3000 
    145 H145        0.4562  -22.9431  -43.1144 H         1 UNK         0.0600 
    146 H146        1.9840  -21.0557  -42.6573 H         1 UNK         0.0600 
    147 H147        2.7079  -22.1321  -43.8433 H         1 UNK         0.0600 
    148 H148        1.9987  -20.6069  -44.3609 H         1 UNK         0.0600 
    149 H149       -0.2967  -20.2332  -43.4717 H         1 UNK         0.3000 
    150 H150       -3.8520  -20.7739  -43.5988 H         1 UNK         0.0600 
    151 H151       -3.6627  -19.1824  -41.7175 H         1 UNK         0.0600 
    152 H152       -1.9361  -19.5004  -41.5735 H         1 UNK         0.0600 
    153 H153       -3.1009  -20.7691  -41.2119 H         1 UNK         0.0600 
    154 H154       -2.3694  -18.3687  -43.7593 H         1 UNK         0.3000 
    155 H155       -2.0210  -18.2931  -47.3447 H         1 UNK         0.0600 
    156 H156       -4.3004  -17.4482  -46.6310 H         1 UNK         0.0600 
    157 H157       -3.5408  -16.6029  -45.2898 H         1 UNK         0.0600 
    158 H158       -3.1538  -16.1561  -46.9504 H         1 UNK         0.0600 
    159 H159       -1.0771  -16.4465  -45.4594 H         1 UNK         0.3000 
    160 H160        2.1454  -17.9739  -44.8484 H         1 UNK         0.0600 
    161 H161        2.7273  -15.6438  -45.4894 H         1 UNK         0.0600 
    162 H162        1.1356  -15.4180  -46.2068 H         1 UNK         0.0600 
    163 H163        2.2612  -16.5823  -46.8999 H         1 UNK         0.0600 
    164 H164        0.9915  -15.6715  -43.6846 H         1 UNK         0.3000 
    165 H165       -0.5985  -17.2317  -40.8830 H         1 UNK         0.0600 
    166 H166        0.8537  -15.5436  -39.7694 H         1 UNK         0.0600 
    167 H167        1.7975  -16.9291  -40.2958 H         1 UNK         0.0600 
    168 H168        1.8620  -15.4300  -41.2116 H         1 UNK         0.0600 
    169 H169       -0.3528  -14.5284  -41.8923 H         1 UNK         0.3000 
    170 H170       -3.4920  -14.4771  -43.5818 H         1 UNK         0.0600 
    171 H171       -2.5568  -13.1806  -40.9653 H         1 UNK         0.0600 
    172 H172       -3.8590  -12.6045  -42.0061 H         1 UNK         0.0600 
    173 H173       -4.0205  -14.1370  -41.1635 H         1 UNK         0.0600 
    174 H174       -1.5210  -12.4590  -43.1107 H         1 UNK         0.3000 
    175 H175        0.3246  -13.0282  -46.1318 H         1 UNK         0.0600 
    176 H176       -0.3718  -10.6967  -46.5217 H         1 UNK         0.0600 
    177 H177       -1.5983  -10.8098  -45.2603 H         1 UNK         0.0600 
    178 H178       -1.7508  -11.7617  -46.7329 H         1 UNK         0.0600 
    179 H179        0.8798  -10.9880  -44.4736 H         1 UNK         0.3000 
    180 H180        2.2275  -11.0494  -42.3918 H         1 UNK         0.0600 
    181 H181        3.9685  -13.5774  -42.4635 H         1 UNK         0.0600 
    182 H182        2.8929  -13.0991  -41.1536 H         1 UNK         0.0600 
    183 H183        4.3079  -12.1256  -41.5240 H         1 UNK         0.0600 
    184 H184        4.0640  -12.1125  -44.5029 H         1 UNK         0.3000 
    185 H185        3.8365   -9.1368  -46.3958 H         1 UNK         0.0600 
    186 H186        6.3107  -10.2066  -44.9292 H         1 UNK         0.0600 
    187 H187        6.3202   -9.2191  -46.3911 H         1 UNK         0.0600 
    188 H188        5.7340   -8.5449  -44.8788 H         1 UNK         0.0600 
    189 H189        5.2960  -11.6061  -46.6782 H         1 UNK         0.3000 
    190 H190       -2.2938  -22.0892  -46.6713 H         1 UNK         0.3000 
    191 H191       -3.8099  -23.9332  -48.2285 H         1 UNK         0.0600 
    192 H192       -4.8760  -22.0670  -47.0400 H         1 UNK         0.0600 
    193 H193       -5.5486  -23.5839  -46.4635 H         1 UNK         0.0600 
    194 H194       -4.3757  -22.7156  -45.4796 H         1 UNK         0.0600 
    195 H195       -2.3261  -24.2558  -44.9563 H         1 UNK         0.3000 
    196 H196       -3.1323  -26.9342  -44.4888 H         1 UNK         0.0600 
    197 H197       -1.3869  -26.8635  -42.7024 H         1 UNK         0.0600 
    198 H198       -2.3788  -25.4131  -42.6902 H         1 UNK         0.0600 
    199 H199       -0.7532  -25.3627  -43.3671 H         1 UNK         0.0600 
    200 H200       -0.2166  -25.6227  -46.0701 H         1 UNK         0.3000 
    201 H201        1.0816  -28.1530  -46.5020 H         1 UNK         0.0600 
    202 H202        2.2832  -25.9639  -46.3902 H         1 UNK         0.0600 
    203 H203        1.4753  -25.4381  -47.8674 H         1 UNK         0.0600 
    204 H204        2.6056  -26.7841  -47.9085 H         1 UNK         0.0600 
    205 H205       -1.6927  -26.9229  -47.9514 H         1 UNK         0.3000 
    206 H206       -2.9661  -27.4211  -49.6588 H         1 UNK         0.0600 
    207 H207       -2.4516  -29.8170  -49.1151 H         1 UNK         0.0600 
    208 H208       -2.8244  -29.5693  -50.8123 H         1 UNK         0.0600 
    209 H209       -1.1570  -29.8004  -50.3130 H         1 UNK         0.0600 
    210 H210       -0.6572  -25.6147  -49.9721 H         1 UNK         0.3000 
    211 H211       -0.2631  -25.5058  -52.9078 H         1 UNK         0.0600 
    212 H212        0.6534  -23.6693  -50.6312 H         1 UNK         0.0600 
    213 H213        1.0393  -23.4450  -52.3321 H         1 UNK         0.0600 
    214 H214        1.6425  -24.8554  -51.4745 H         1 UNK         0.0600 
    215 H215       -2.4433  -24.5281  -50.4823 H         1 UNK         0.3000 
    216 H216       -4.4530  -23.6356  -50.4671 H         1 UNK         0.0600 
    217 H217       -5.7071  -23.0435  -52.4872 H         1 UNK         0.0600 
    218 H218       -4.8377  -24.5400  -52.7801 H         1 UNK         0.0600 
    219 H219       -4.2486  -23.0241  -53.4608 H         1 UNK         0.0600 
    220 H220       -5.6624  -21.5489  -50.6158 H         1 UNK         0.3000 
    221 H221       -4.4349  -19.1280  -51.3148 H         1 UNK         0.0600 
    222 H222       -4.6066  -19.6982  -48.2913 H         1 UNK         0.0600 
    223 H223       -3.1094  -19.4612  -49.1894 H         1 UNK         0.0600 
    224 H224       -4.2419  -18.1345  -49.0146 H         1 UNK         0.0600 
    225 H225       -5.9136  -17.3634  -50.8806 H         1 UNK         0.3000 
    226 H226       -7.8082  -16.2796  -50.7515 H         1 UNK         0.0600 
    227 H227       -7.7382  -17.0348  -48.3663 H         1 UNK         0.0600 
    228 H228       -9.3794  -16.7725  -48.9288 H         1 UNK         0.0600 
    229 H229       -8.7637  -18.4103  -48.7734 H         1 UNK         0.0600 
    230 H230       -7.6991  -18.8558  -52.5853 H         1 UNK         0.3000 
    231 H231      -10.1643  -18.2534  -53.9671 H         1 UNK         0.0600 
    232 H232       -9.8102  -21.0241  -52.6696 H         1 UNK         0.0600 
    233 H233      -10.9348  -20.6883  -53.9878 H         1 UNK         0.0600 
    234 H234      -11.1433  -19.9046  -52.4327 H         1 UNK         0.0600 
    235 H235       -8.4690  -21.3162  -54.1259 H         1 UNK         0.3000 
    236 H236       -6.9454  -20.6541  -56.5522 H         1 UNK         0.0600 
    237 H237       -6.9391  -23.1096  -54.6997 H         1 UNK         0.0600 
    238 H238       -7.8263  -22.9693  -56.2162 H         1 UNK         0.0600 
    239 H239       -6.0703  -22.9819  -56.2236 H         1 UNK         0.0600 
    240 H240       -4.5329  -20.8211  -56.4964 H         1 UNK         0.3000 
    241 H241       -3.1355  -20.6675  -54.0170 H         1 UNK         0.0600 
    242 H242       -0.6042  -21.9619  -56.1061 H         1 UNK         0.3800 
    243 H243       -1.4908  -22.1205  -54.6113 H         1 UNK         0.3800 
    244 H244       -2.6742  -18.0727  -55.5314 H         1 UNK         0.0800 
    245 H245       -4.1713  -18.1758  -54.6737 H         1 UNK         0.0800 
    246 H246       -0.6146  -16.9755  -54.2116 H         1 UNK         0.0800 
    247 H247       -0.3459  -18.7012  -54.3233 H         1 UNK         0.0800 
@<TRIPOS>BOND
     1    1    2 1    
     2    1  127 1    
     3    1  128 1    
     4    1  129 1    
     5    2    3 2    
     6    2    4 am   BACKBONE|DICT|INTERRES
     7    4    5 1    
     8    4  130 1    
     9    5    6 1    
    10    5   65 1    
    11    5  131 1    
    12    6    7 1    
    13    6  132 1    
    14    6  133 1    
    15    7    8 1    
    16    8    9 1    
    17    8  134 1    
    18    8  135 1    
    19    9   10 ar   
    20    9   14 ar   
    21   10   11 ar   
    22   10  136 1    
    23   11   12 ar   
    24   11  126 1    
    25   12   13 ar   
    26   12  137 1    
    27   13   14 ar   
    28   13   15 1    
    29   14  138 1    
    30   15   16 1    
    31   15  139 1    
    32   15  140 1    
    33   16   17 1    
    34   17   18 1    
    35   17  141 1    
    36   17  142 1    
    37   18   19 1    
    38   18   67 1    
    39   18  143 1    
    40   19   20 am   BACKBONE|DICT|INTERRES
    41   19  144 1    
    42   20   21 2    
    43   20   22 1    
    44   22   23 1    
    45   22   24 1    
    46   22  145 1    
    47   23  146 1    
    48   23  147 1    
    49   23  148 1    
    50   24   25 am   BACKBONE|DICT|INTERRES
    51   24  149 1    
    52   25   26 2    
    53   25   27 1    
    54   27   28 1    
    55   27   29 1    
    56   27  150 1    
    57   28  151 1    
    58   28  152 1    
    59   28  153 1    
    60   29   30 am   BACKBONE|DICT|INTERRES
    61   29  154 1    
    62   30   31 2    
    63   30   32 1    
    64   32   33 1    
    65   32   34 1    
    66   32  155 1    
    67   33  156 1    
    68   33  157 1    
    69   33  158 1    
    70   34   35 am   BACKBONE|DICT|INTERRES
    71   34  159 1    
    72   35   36 2    
    73   35   37 1    
    74   37   38 1    
    75   37   39 1    
    76   37  160 1    
    77   38  161 1    
    78   38  162 1    
    79   38  163 1    
    80   39   40 am   BACKBONE|DICT|INTERRES
    81   39  164 1    
    82   40   41 2    
    83   40   42 1    
    84   42   43 1    
    85   42   44 1    
    86   42  165 1    
    87   43  166 1    
    88   43  167 1    
    89   43  168 1    
    90   44   45 am   BACKBONE|DICT|INTERRES
    91   44  169 1    
    92   45   46 2    
    93   45   47 1    
    94   47   48 1    
    95   47   49 1    
    96   47  170 1    
    97   48  171 1    
    98   48  172 1    
    99   48  173 1    
   100   49   50 am   BACKBONE|DICT|INTERRES
   101   49  174 1    
   102   50   51 2    
   103   50   52 1    
   104   52   53 1    
   105   52   54 1    
   106   52  175 1    
   107   53  176 1    
   108   53  177 1    
   109   53  178 1    
   110   54   55 am   BACKBONE|DICT|INTERRES
   111   54  179 1    
   112   55   56 2    
   113   55   57 1    
   114   57   58 1    
   115   57   59 1    
   116   57  180 1    
   117   58  181 1    
   118   58  182 1    
   119   58  183 1    
   120   59   60 am   BACKBONE|DICT|INTERRES
   121   59  184 1    
   122   60   61 2    
   123   60   62 1    
   124   62   63 1    
   125   62   64 1    
   126   62  185 1    
   127   63  186 1    
   128   63  187 1    
   129   63  188 1    
   130   64   65 am   BACKBONE|DICT|INTERRES
   131   64  189 1    
   132   65   66 2    
   133   67   68 2    
   134   67   69 am   BACKBONE|DICT|INTERRES
   135   69   70 1    
   136   69  190 1    
   137   70   71 1    
   138   70   72 1    
   139   70  191 1    
   140   71  192 1    
   141   71  193 1    
   142   71  194 1    
   143   72   73 2    
   144   72   74 am   BACKBONE|DICT|INTERRES
   145   74   75 1    
   146   74  195 1    
   147   75   76 1    
   148   75   77 1    
   149   75  196 1    
   150   76  197 1    
   151   76  198 1    
   152   76  199 1    
   153   77   78 2    
   154   77   79 am   BACKBONE|DICT|INTERRES
   155   79   80 1    
   156   79  200 1    
   157   80   81 1    
   158   80   82 1    
   159   80  201 1    
   160   81  202 1    
   161   81  203 1    
   162   81  204 1    
   163   82   83 2    
   164   82   84 am   BACKBONE|DICT|INTERRES
   165   84   85 1    
   166   84  205 1    
   167   85   86 1    
   168   85   87 1    
   169   85  206 1    
   170   86  207 1    
   171   86  208 1    
   172   86  209 1    
   173   87   88 2    
   174   87   89 am   BACKBONE|DICT|INTERRES
   175   89   90 1    
   176   89  210 1    
   177   90   91 1    
   178   90   92 1    
   179   90  211 1    
   180   91  212 1    
   181   91  213 1    
   182   91  214 1    
   183   92   93 2    
   184   92   94 am   BACKBONE|DICT|INTERRES
   185   94   95 1    
   186   94  215 1    
   187   95   96 1    
   188   95   97 1    
   189   95  216 1    
   190   96  217 1    
   191   96  218 1    
   192   96  219 1    
   193   97   98 2    
   194   97   99 am   BACKBONE|DICT|INTERRES
   195   99  100 1    
   196   99  220 1    
   197  100  101 1    
   198  100  102 1    
   199  100  221 1    
   200  101  222 1    
   201  101  223 1    
   202  101  224 1    
   203  102  103 2    
   204  102  104 am   BACKBONE|DICT|INTERRES
   205  104  105 1    
   206  104  225 1    
   207  105  106 1    
   208  105  107 1    
   209  105  226 1    
   210  106  227 1    
   211  106  228 1    
   212  106  229 1    
   213  107  108 2    
   214  107  109 am   BACKBONE|DICT|INTERRES
   215  109  110 1    
   216  109  230 1    
   217  110  111 1    
   218  110  112 1    
   219  110  231 1    
   220  111  232 1    
   221  111  233 1    
   222  111  234 1    
   223  112  113 2    
   224  112  114 am   BACKBONE|DICT|INTERRES
   225  114  115 1    
   226  114  235 1    
   227  115  116 1    
   228  115  117 1    
   229  115  236 1    
   230  116  237 1    
   231  116  238 1    
   232  116  239 1    
   233  117  118 2    
   234  117  119 am   BACKBONE|DICT|INTERRES
   235  119  120 1    
   236  119  240 1    
   237  120  121 1    
   238  120  124 1    
   239  120  241 1    
   240  121  122 am   BACKBONE|DICT|INTERRES
   241  121  123 2    
   242  122  242 1    
   243  122  243 1    
   244  124  125 1    
   245  124  244 1    
   246  124  245 1    
   247  125  126 1    
   248  126  246 1    
   249  126  247 1    
@<TRIPOS>SUBSTRUCTURE
     1 UNK         1 GROUP             0       ****    0 ROOT    
