@<TRIPOS>MOLECULE
3R540
247   249    1
SMALL
USER_CHARGES


@<TRIPOS>ATOM
      1 CA          3.4239  -19.1581  -46.9821 C.3       0 UNK        -0.1800 
      2 C           3.4499  -17.6991  -46.5526 C.2       0 UNK         0.5000 
      3 O           3.2982  -17.4081  -45.3675 O.2       0 UNK        -0.5000 
      4 N           3.6647  -16.7811  -47.5059 N.am      1 UNK        -0.5000 
      5 CA          3.6439  -15.3202  -47.3189 C.3       1 UNK         0.1400 
      6 C6          3.8086  -14.5407  -48.6506 C.3       23 UNK        -0.0398 
      7 S7          2.7854  -15.1834  -50.0172 S.3       23 UNK        -0.2404 
      8 C8          1.2092  -14.3128  -49.7590 C.3       23 UNK        -0.0205 
      9 C9          0.1312  -14.9168  -50.6448 C.ar      23 UNK        -0.0193 
     10 C10        -0.3243  -14.2515  -51.7869 C.ar      23 UNK        -0.1150 
     11 C11        -1.2852  -14.8454  -52.6120 C.ar      23 UNK        -0.0193 
     12 C12        -1.7784  -16.1145  -52.2923 C.ar      23 UNK        -0.1150 
     13 C13        -1.3252  -16.7958  -51.1600 C.ar      23 UNK        -0.0193 
     14 C14        -0.3862  -16.1748  -50.3300 C.ar      23 UNK        -0.1150 
     15 C15        -1.8496  -18.1971  -50.8580 C.3       23 UNK        -0.0205 
     16 S16        -0.5141  -19.4315  -50.6906 S.3       23 UNK        -0.2404 
     17 C17        -0.1015  -19.2816  -48.9151 C.3       23 UNK        -0.0398 
     18 CA         -0.1634  -20.5673  -48.0518 C.3       11 UNK         0.1400 
     19 N          -0.2118  -20.2163  -46.6326 N.am      11 UNK        -0.5000 
     20 C          -0.1132  -21.0731  -45.6095 C.2       10 UNK         0.5000 
     21 O           0.1026  -22.2781  -45.7342 O.2       10 UNK        -0.5000 
     22 CA         -0.3560  -20.4775  -44.2142 C.3       10 UNK         0.1400 
     23 CB          0.9080  -19.7787  -43.6894 C.3       10 UNK        -0.1800 
     24 N          -1.4862  -19.5438  -44.2179 N.am      10 UNK        -0.5000 
     25 C          -2.7640  -19.9184  -44.3842 C.2       9 UNK         0.5000 
     26 O          -3.1199  -21.0913  -44.4954 O.2       9 UNK        -0.5000 
     27 CA         -3.8167  -18.7999  -44.4890 C.3       9 UNK         0.1400 
     28 CB         -4.2966  -18.3632  -43.0973 C.3       9 UNK        -0.1800 
     29 N          -3.3336  -17.6372  -45.2355 N.am      9 UNK        -0.5000 
     30 C          -3.1203  -17.6386  -46.5597 C.2       8 UNK         0.5000 
     31 O          -3.3084  -18.6182  -47.2770 O.2       8 UNK        -0.5000 
     32 CA         -2.5485  -16.3563  -47.1901 C.3       8 UNK         0.1400 
     33 CB         -3.6762  -15.3998  -47.6001 C.3       8 UNK        -0.1800 
     34 N          -1.6022  -15.6546  -46.3263 N.am      8 UNK        -0.5000 
     35 C          -0.4766  -16.1765  -45.8210 C.2       7 UNK         0.5000 
     36 O          -0.0818  -17.3171  -46.0689 O.2       7 UNK        -0.5000 
     37 CA          0.3133  -15.2890  -44.8402 C.3       7 UNK         0.1400 
     38 CB          0.0955  -13.7781  -45.0677 C.3       7 UNK        -0.1800 
     39 N           0.0596  -15.6265  -43.4379 N.am      7 UNK        -0.5000 
     40 C          -1.1151  -15.7600  -42.8031 C.2       6 UNK         0.5000 
     41 O          -2.2137  -15.6519  -43.3485 O.2       6 UNK        -0.5000 
     42 CA         -1.0508  -16.0516  -41.2949 C.3       6 UNK         0.1400 
     43 CB         -0.6766  -17.5187  -41.0360 C.3       6 UNK        -0.1800 
     44 N          -0.0633  -15.1946  -40.6423 N.am      6 UNK        -0.5000 
     45 C          -0.3338  -14.2322  -39.7515 C.2       5 UNK         0.5000 
     46 O          -1.4662  -13.9761  -39.3400 O.2       5 UNK        -0.5000 
     47 CA          0.8626  -13.4117  -39.2230 C.3       5 UNK         0.1400 
     48 CB          1.3493  -13.9780  -37.8802 C.3       5 UNK        -0.1800 
     49 N           1.9924  -13.3645  -40.1541 N.am      5 UNK        -0.5000 
     50 C           1.9800  -12.7320  -41.3348 C.2       4 UNK         0.5000 
     51 O           1.0418  -12.0347  -41.7218 O.2       4 UNK        -0.5000 
     52 CA          3.2057  -12.9159  -42.2521 C.3       4 UNK         0.1400 
     53 CB          4.1240  -11.6873  -42.1706 C.3       4 UNK        -0.1800 
     54 N           4.0161  -14.1195  -42.0318 N.am      4 UNK        -0.5000 
     55 C           3.5959  -15.3920  -42.0368 C.2       3 UNK         0.5000 
     56 O           2.4109  -15.7243  -42.0132 O.2       3 UNK        -0.5000 
     57 CA          4.6972  -16.4610  -42.1473 C.3       3 UNK         0.1400 
     58 CB          4.1485  -17.8945  -42.0239 C.3       3 UNK        -0.1800 
     59 N           5.3681  -16.3130  -43.4383 N.am      3 UNK        -0.5000 
     60 C           6.3829  -15.4705  -43.6810 C.2       2 UNK         0.5000 
     61 O           6.9283  -14.8005  -42.8028 O.2       2 UNK        -0.5000 
     62 CA          6.8396  -15.3070  -45.1440 C.3       2 UNK         0.1400 
     63 CB          8.0250  -16.2368  -45.4433 C.3       2 UNK        -0.1800 
     64 N           5.7781  -15.5597  -46.1193 N.am      2 UNK        -0.5000 
     65 C           4.6758  -14.8127  -46.2856 C.2       1 UNK         0.5000 
     66 O           4.4497  -13.7760  -45.6612 O.2       1 UNK        -0.5000 
     67 C          -1.3011  -21.5454  -48.4226 C.2       11 UNK         0.5000 
     68 O          -1.0247  -22.5915  -49.0086 O.2       11 UNK        -0.5000 
     69 N          -2.5414  -21.2281  -48.0209 N.am      12 UNK        -0.5000 
     70 CA         -3.7173  -22.0765  -48.2140 C.3       12 UNK         0.1400 
     71 CB         -4.9797  -21.3460  -47.7337 C.3       12 UNK        -0.1800 
     72 C          -3.5927  -23.4447  -47.5262 C.2       12 UNK         0.5000 
     73 O          -3.9350  -24.4526  -48.1424 O.2       12 UNK        -0.5000 
     74 N          -3.0750  -23.4661  -46.2898 N.am      13 UNK        -0.5000 
     75 CA         -2.7994  -24.6896  -45.5360 C.3       13 UNK         0.1400 
     76 CB         -2.3909  -24.3371  -44.0978 C.3       13 UNK        -0.1800 
     77 C          -1.7363  -25.5741  -46.2127 C.2       13 UNK         0.5000 
     78 O          -1.9515  -26.7788  -46.3486 O.2       13 UNK        -0.5000 
     79 N          -0.6346  -24.9579  -46.6652 N.am      14 UNK        -0.5000 
     80 CA          0.4495  -25.6185  -47.3964 C.3       14 UNK         0.1400 
     81 CB          1.6257  -24.6433  -47.5575 C.3       14 UNK        -0.1800 
     82 C           0.0064  -26.1703  -48.7653 C.2       14 UNK         0.5000 
     83 O           0.4215  -27.2661  -49.1437 O.2       14 UNK        -0.5000 
     84 N          -0.8492  -25.4162  -49.4672 N.am      15 UNK        -0.5000 
     85 CA         -1.4376  -25.7861  -50.7551 C.3       15 UNK         0.1400 
     86 CB         -1.9121  -24.5080  -51.4662 C.3       15 UNK        -0.1800 
     87 C          -2.6040  -26.7881  -50.6440 C.2       15 UNK         0.5000 
     88 O          -3.1030  -27.2287  -51.6790 O.2       15 UNK        -0.5000 
     89 N          -3.0589  -27.0924  -49.4185 N.am      16 UNK        -0.5000 
     90 CA         -4.2355  -27.9094  -49.0920 C.3       16 UNK         0.1400 
     91 CB         -3.9870  -29.3901  -49.4458 C.3       16 UNK        -0.1800 
     92 C          -5.5324  -27.3442  -49.7152 C.2       16 UNK         0.5000 
     93 O          -6.3601  -28.0956  -50.2326 O.2       16 UNK        -0.5000 
     94 N          -5.6477  -26.0090  -49.6803 N.am      17 UNK        -0.5000 
     95 CA         -6.7053  -25.1543  -50.2271 C.3       17 UNK         0.1400 
     96 CB         -8.0673  -25.4751  -49.5799 C.3       17 UNK        -0.1800 
     97 C          -6.7912  -25.1137  -51.7693 C.2       17 UNK         0.5000 
     98 O          -7.6720  -24.4315  -52.2944 O.2       17 UNK        -0.5000 
     99 N          -5.8818  -25.7965  -52.4820 N.am      18 UNK        -0.5000 
    100 CA        -5.8731  -25.8738  -53.9477 C.3       18 UNK         0.1400 
    101 CB        -5.0073  -27.0641  -54.3870 C.3       18 UNK        -0.1800 
    102 C         -5.3906  -24.5801  -54.6335 C.2       18 UNK         0.5000 
    103 O         -5.6951  -24.3695  -55.8081 O.2       18 UNK        -0.5000 
    104 N         -4.6525  -23.7426  -53.8964 N.am      19 UNK        -0.5000 
    105 CA        -4.1092  -22.4652  -54.3501 C.3       19 UNK         0.1400 
    106 CB        -2.7040  -22.6730  -54.9472 C.3       19 UNK        -0.1800 
    107 C         -4.1374  -21.4687  -53.1815 C.2       19 UNK         0.5000 
    108 O         -3.1145  -20.8786  -52.8389 O.2       19 UNK        -0.5000 
    109 N         -5.3182  -21.3249  -52.5641 N.am      20 UNK        -0.5000 
    110 CA        -5.5613  -20.4485  -51.4139 C.3       20 UNK         0.1400 
    111 CB        -6.9052  -20.8348  -50.7764 C.3       20 UNK        -0.1800 
    112 C         -5.5327  -18.9411  -51.7406 C.2       20 UNK         0.5000 
    113 O         -5.4155  -18.1308  -50.8213 O.2       20 UNK        -0.5000 
    114 N         -5.6390  -18.5889  -53.0258 N.am      21 UNK        -0.5000 
    115 CA        -5.5668  -17.2277  -53.5414 C.3       21 UNK         0.1400 
    116 CB        -6.9870  -16.6512  -53.6664 C.3       21 UNK        -0.1800 
    117 C         -4.8535  -17.2485  -54.9004 C.2       21 UNK         0.5000 
    118 O         -4.8383  -18.2846  -55.5717 O.2       21 UNK        -0.5000 
    119 N         -4.2827  -16.1005  -55.2754 N.am      22 UNK        -0.5000 
    120 CA        -3.6161  -15.8734  -56.5658 C.3       22 UNK         0.1400 
    121 C         -4.6412  -15.6895  -57.7184 C.2       22 UNK         0.5000 
    122 N         -4.3294  -16.1656  -58.9160 N.am      22 UNK        -0.7600 
    123 O         -5.6976  -15.0843  -57.5478 O.2       22 UNK        -0.5000 
    124 C124       -2.6477  -14.6635  -56.4977 C.3       23 UNK        -0.0398 
    125 S125       -1.2431  -14.9663  -55.3713 S.3       23 UNK        -0.2404 
    126 C126       -1.7980  -14.1292  -53.8516 C.3       23 UNK        -0.0205 
    127 H127        4.3081  -19.6738  -46.6082 H         1 UNK         0.0600 
    128 H128        3.3974  -19.2615  -48.0669 H         1 UNK         0.0600 
    129 H129        2.5444  -19.6516  -46.5713 H         1 UNK         0.0600 
    130 H130        3.7832  -17.0829  -48.4630 H         1 UNK         0.3000 
    131 H131        2.6578  -15.0767  -46.9214 H         1 UNK         0.0600 
    132 H132        3.5826  -13.4826  -48.5055 H         1 UNK         0.0800 
    133 H133        4.8461  -14.5830  -48.9877 H         1 UNK         0.0800 
    134 H134        1.3382  -13.2499  -49.9690 H         1 UNK         0.0800 
    135 H135        0.9069  -14.3950  -48.7139 H         1 UNK         0.0800 
    136 H136        0.0750  -13.2788  -52.0377 H         1 UNK         0.1150 
    137 H137       -2.5036  -16.5802  -52.9433 H         1 UNK         0.1150 
    138 H138       -0.0151  -16.6759  -49.4508 H         1 UNK         0.1150 
    139 H139       -2.4804  -18.1811  -49.9686 H         1 UNK         0.0800 
    140 H140       -2.4965  -18.5305  -51.6700 H         1 UNK         0.0800 
    141 H141       -0.7746  -18.5473  -48.4782 H         1 UNK         0.0800 
    142 H142        0.8939  -18.8428  -48.8366 H         1 UNK         0.0800 
    143 H143        0.7708  -21.1092  -48.2143 H         1 UNK         0.0600 
    144 H144       -0.3455  -19.2330  -46.4156 H         1 UNK         0.3000 
    145 H145       -0.5906  -21.3034  -43.5394 H         1 UNK         0.0600 
    146 H146        0.8126  -19.5439  -42.6312 H         1 UNK         0.0600 
    147 H147        1.7839  -20.4206  -43.7936 H         1 UNK         0.0600 
    148 H148        1.1186  -18.8522  -44.2242 H         1 UNK         0.0600 
    149 H149       -1.2655  -18.5591  -44.2077 H         1 UNK         0.3000 
    150 H150       -4.6773  -19.2086  -45.0229 H         1 UNK         0.0600 
    151 H151       -4.6915  -19.2118  -42.5373 H         1 UNK         0.0600 
    152 H152       -5.0937  -17.6232  -43.1709 H         1 UNK         0.0600 
    153 H153       -3.4917  -17.9276  -42.5071 H         1 UNK         0.0600 
    154 H154       -3.1025  -16.8069  -44.6972 H         1 UNK         0.3000 
    155 H155       -2.0143  -16.6445  -48.0936 H         1 UNK         0.0600 
    156 H156       -4.2343  -15.0400  -46.7347 H         1 UNK         0.0600 
    157 H157       -4.3837  -15.8959  -48.2664 H         1 UNK         0.0600 
    158 H158       -3.2837  -14.5338  -48.1335 H         1 UNK         0.0600 
    159 H159       -1.8709  -14.7291  -46.0254 H         1 UNK         0.3000 
    160 H160        1.3682  -15.5019  -45.0127 H         1 UNK         0.0600 
    161 H161       -0.9158  -13.4625  -44.8090 H         1 UNK         0.0600 
    162 H162        0.2782  -13.5044  -46.1077 H         1 UNK         0.0600 
    163 H163        0.7816  -13.1915  -44.4582 H         1 UNK         0.0600 
    164 H164        0.9075  -15.7669  -42.8902 H         1 UNK         0.3000 
    165 H165       -2.0481  -15.8779  -40.8855 H         1 UNK         0.0600 
    166 H166       -0.7743  -17.7636  -39.9784 H         1 UNK         0.0600 
    167 H167       -1.3205  -18.2029  -41.5883 H         1 UNK         0.0600 
    168 H168        0.3542  -17.7218  -41.3264 H         1 UNK         0.0600 
    169 H169        0.8978  -15.3091  -40.9511 H         1 UNK         0.3000 
    170 H170        0.5144  -12.3899  -39.0576 H         1 UNK         0.0600 
    171 H171        0.5394  -14.0022  -37.1499 H         1 UNK         0.0600 
    172 H172        1.7263  -14.9960  -37.9862 H         1 UNK         0.0600 
    173 H173        2.1467  -13.3655  -37.4589 H         1 UNK         0.0600 
    174 H174        2.8041  -13.9154  -39.9167 H         1 UNK         0.3000 
    175 H175        2.8271  -12.9818  -43.2733 H         1 UNK         0.0600 
    176 H176        4.5824  -11.5944  -41.1853 H         1 UNK         0.0600 
    177 H177        4.9230  -11.7435  -42.9104 H         1 UNK         0.0600 
    178 H178        3.5697  -10.7678  -42.3642 H         1 UNK         0.0600 
    179 H179        5.0184  -13.9778  -42.0624 H         1 UNK         0.3000 
    180 H180        5.4073  -16.3020  -41.3332 H         1 UNK         0.0600 
    181 H181        3.4145  -18.1180  -42.7986 H         1 UNK         0.0600 
    182 H182        3.6606  -18.0431  -41.0599 H         1 UNK         0.0600 
    183 H183        4.9489  -18.6303  -42.1009 H         1 UNK         0.0600 
    184 H184        4.9047  -16.7596  -44.2229 H         1 UNK         0.3000 
    185 H185        7.1727  -14.2747  -45.2703 H         1 UNK         0.0600 
    186 H186        8.4098  -16.0747  -46.4504 H         1 UNK         0.0600 
    187 H187        8.8476  -16.0566  -44.7499 H         1 UNK         0.0600 
    188 H188        7.7449  -17.2873  -45.3546 H         1 UNK         0.0600 
    189 H189        5.8677  -16.3975  -46.6756 H         1 UNK         0.3000 
    190 H190       -2.7081  -20.3239  -47.5849 H         1 UNK         0.3000 
    191 H191       -3.8143  -22.2600  -49.2855 H         1 UNK         0.0600 
    192 H192       -4.9362  -21.1286  -46.6663 H         1 UNK         0.0600 
    193 H193       -5.8715  -21.9484  -47.9106 H         1 UNK         0.0600 
    194 H194       -5.1158  -20.4007  -48.2587 H         1 UNK         0.0600 
    195 H195       -2.8629  -22.5878  -45.8275 H         1 UNK         0.3000 
    196 H196       -3.7265  -25.2649  -45.4901 H         1 UNK         0.0600 
    197 H197       -1.4886  -23.7263  -44.0711 H         1 UNK         0.0600 
    198 H198       -2.1956  -25.2381  -43.5152 H         1 UNK         0.0600 
    199 H199       -3.1816  -23.7858  -43.5887 H         1 UNK         0.0600 
    200 H200       -0.5204  -23.9636  -46.4867 H         1 UNK         0.3000 
    201 H201        0.7900  -26.4634  -46.7943 H         1 UNK         0.0600 
    202 H202        1.9984  -24.3127  -46.5879 H         1 UNK         0.0600 
    203 H203        1.3389  -23.7567  -48.1239 H         1 UNK         0.0600 
    204 H204        2.4569  -25.1153  -48.0827 H         1 UNK         0.0600 
    205 H205       -1.0821  -24.4902  -49.1158 H         1 UNK         0.3000 
    206 H206       -0.6659  -26.2519  -51.3711 H         1 UNK         0.0600 
    207 H207       -1.0936  -23.7997  -51.5969 H         1 UNK         0.0600 
    208 H208       -2.3019  -24.7366  -52.4582 H         1 UNK         0.0600 
    209 H209       -2.7017  -24.0054  -50.9062 H         1 UNK         0.0600 
    210 H210       -2.6047  -26.6516  -48.6291 H         1 UNK         0.3000 
    211 H211       -4.3621  -27.8433  -48.0104 H         1 UNK         0.0600 
    212 H212       -3.9012  -29.5421  -50.5221 H         1 UNK         0.0600 
    213 H213       -4.8046  -30.0186  -49.0911 H         1 UNK         0.0600 
    214 H214       -3.0716  -29.7566  -48.9813 H         1 UNK         0.0600 
    215 H215       -4.9078  -25.4998  -49.1960 H         1 UNK         0.3000 
    216 H216       -6.4341  -24.1433  -49.9223 H         1 UNK         0.0600 
    217 H217       -8.8184  -24.7360  -49.8610 H         1 UNK         0.0600 
    218 H218       -7.9986  -25.4668  -48.4921 H         1 UNK         0.0600 
    219 H219       -8.4429  -26.4516  -49.8863 H         1 UNK         0.0600 
    220 H220       -5.1803  -26.3415  -51.9958 H         1 UNK         0.3000 
    221 H221       -6.8952  -26.0612  -54.2836 H         1 UNK         0.0600 
    222 H222       -3.9541  -26.9023  -54.1563 H         1 UNK         0.0600 
    223 H223       -5.3217  -27.9865  -53.8983 H         1 UNK         0.0600 
    224 H224       -5.0829  -27.2234  -55.4633 H         1 UNK         0.0600 
    225 H225       -4.4720  -23.9870  -52.9338 H         1 UNK         0.3000 
    226 H226       -4.7517  -22.0460  -55.1273 H         1 UNK         0.0600 
    227 H227       -2.7296  -23.3712  -55.7837 H         1 UNK         0.0600 
    228 H228       -2.2976  -21.7329  -55.3221 H         1 UNK         0.0600 
    229 H229       -2.0040  -23.0614  -54.2074 H         1 UNK         0.0600 
    230 H230       -6.1104  -21.8513  -52.9057 H         1 UNK         0.3000 
    231 H231       -4.7695  -20.6238  -50.6846 H         1 UNK         0.0600 
    232 H232       -6.9051  -21.8739  -50.4504 H         1 UNK         0.0600 
    233 H233       -7.7330  -20.7023  -51.4741 H         1 UNK         0.0600 
    234 H234       -7.1151  -20.2213  -49.8992 H         1 UNK         0.0600 
    235 H235       -5.6678  -19.3076  -53.7366 H         1 UNK         0.3000 
    236 H236       -4.9829  -16.6045  -52.8605 H         1 UNK         0.0600 
    237 H237       -6.9650  -15.6321  -54.0543 H         1 UNK         0.0600 
    238 H238       -7.6034  -17.2468  -54.3411 H         1 UNK         0.0600 
    239 H239       -7.4857  -16.6192  -52.6975 H         1 UNK         0.0600 
    240 H240       -4.3961  -15.2861  -54.6921 H         1 UNK         0.3000 
    241 H241       -3.0232  -16.7622  -56.7929 H         1 UNK         0.0600 
    242 H242       -4.9793  -16.0405  -59.6771 H         1 UNK         0.3800 
    243 H243       -3.4656  -16.6593  -59.0821 H         1 UNK         0.3800 
    244 H244       -2.2246  -14.4629  -57.4837 H         1 UNK         0.0800 
    245 H245       -3.1743  -13.7527  -56.2075 H         1 UNK         0.0800 
    246 H246       -2.8865  -14.0959  -53.8069 H         1 UNK         0.0800 
    247 H247       -1.4606  -13.0918  -53.8731 H         1 UNK         0.0800 
@<TRIPOS>BOND
     1    1    2 1    
     2    1  127 1    
     3    1  128 1    
     4    1  129 1    
     5    2    3 2    
     6    2    4 am   BACKBONE|DICT|INTERRES
     7    4    5 1    
     8    4  130 1    
     9    5    6 1    
    10    5   65 1    
    11    5  131 1    
    12    6    7 1    
    13    6  132 1    
    14    6  133 1    
    15    7    8 1    
    16    8    9 1    
    17    8  134 1    
    18    8  135 1    
    19    9   10 ar   
    20    9   14 ar   
    21   10   11 ar   
    22   10  136 1    
    23   11   12 ar   
    24   11  126 1    
    25   12   13 ar   
    26   12  137 1    
    27   13   14 ar   
    28   13   15 1    
    29   14  138 1    
    30   15   16 1    
    31   15  139 1    
    32   15  140 1    
    33   16   17 1    
    34   17   18 1    
    35   17  141 1    
    36   17  142 1    
    37   18   19 1    
    38   18   67 1    
    39   18  143 1    
    40   19   20 am   BACKBONE|DICT|INTERRES
    41   19  144 1    
    42   20   21 2    
    43   20   22 1    
    44   22   23 1    
    45   22   24 1    
    46   22  145 1    
    47   23  146 1    
    48   23  147 1    
    49   23  148 1    
    50   24   25 am   BACKBONE|DICT|INTERRES
    51   24  149 1    
    52   25   26 2    
    53   25   27 1    
    54   27   28 1    
    55   27   29 1    
    56   27  150 1    
    57   28  151 1    
    58   28  152 1    
    59   28  153 1    
    60   29   30 am   BACKBONE|DICT|INTERRES
    61   29  154 1    
    62   30   31 2    
    63   30   32 1    
    64   32   33 1    
    65   32   34 1    
    66   32  155 1    
    67   33  156 1    
    68   33  157 1    
    69   33  158 1    
    70   34   35 am   BACKBONE|DICT|INTERRES
    71   34  159 1    
    72   35   36 2    
    73   35   37 1    
    74   37   38 1    
    75   37   39 1    
    76   37  160 1    
    77   38  161 1    
    78   38  162 1    
    79   38  163 1    
    80   39   40 am   BACKBONE|DICT|INTERRES
    81   39  164 1    
    82   40   41 2    
    83   40   42 1    
    84   42   43 1    
    85   42   44 1    
    86   42  165 1    
    87   43  166 1    
    88   43  167 1    
    89   43  168 1    
    90   44   45 am   BACKBONE|DICT|INTERRES
    91   44  169 1    
    92   45   46 2    
    93   45   47 1    
    94   47   48 1    
    95   47   49 1    
    96   47  170 1    
    97   48  171 1    
    98   48  172 1    
    99   48  173 1    
   100   49   50 am   BACKBONE|DICT|INTERRES
   101   49  174 1    
   102   50   51 2    
   103   50   52 1    
   104   52   53 1    
   105   52   54 1    
   106   52  175 1    
   107   53  176 1    
   108   53  177 1    
   109   53  178 1    
   110   54   55 am   BACKBONE|DICT|INTERRES
   111   54  179 1    
   112   55   56 2    
   113   55   57 1    
   114   57   58 1    
   115   57   59 1    
   116   57  180 1    
   117   58  181 1    
   118   58  182 1    
   119   58  183 1    
   120   59   60 am   BACKBONE|DICT|INTERRES
   121   59  184 1    
   122   60   61 2    
   123   60   62 1    
   124   62   63 1    
   125   62   64 1    
   126   62  185 1    
   127   63  186 1    
   128   63  187 1    
   129   63  188 1    
   130   64   65 am   BACKBONE|DICT|INTERRES
   131   64  189 1    
   132   65   66 2    
   133   67   68 2    
   134   67   69 am   BACKBONE|DICT|INTERRES
   135   69   70 1    
   136   69  190 1    
   137   70   71 1    
   138   70   72 1    
   139   70  191 1    
   140   71  192 1    
   141   71  193 1    
   142   71  194 1    
   143   72   73 2    
   144   72   74 am   BACKBONE|DICT|INTERRES
   145   74   75 1    
   146   74  195 1    
   147   75   76 1    
   148   75   77 1    
   149   75  196 1    
   150   76  197 1    
   151   76  198 1    
   152   76  199 1    
   153   77   78 2    
   154   77   79 am   BACKBONE|DICT|INTERRES
   155   79   80 1    
   156   79  200 1    
   157   80   81 1    
   158   80   82 1    
   159   80  201 1    
   160   81  202 1    
   161   81  203 1    
   162   81  204 1    
   163   82   83 2    
   164   82   84 am   BACKBONE|DICT|INTERRES
   165   84   85 1    
   166   84  205 1    
   167   85   86 1    
   168   85   87 1    
   169   85  206 1    
   170   86  207 1    
   171   86  208 1    
   172   86  209 1    
   173   87   88 2    
   174   87   89 am   BACKBONE|DICT|INTERRES
   175   89   90 1    
   176   89  210 1    
   177   90   91 1    
   178   90   92 1    
   179   90  211 1    
   180   91  212 1    
   181   91  213 1    
   182   91  214 1    
   183   92   93 2    
   184   92   94 am   BACKBONE|DICT|INTERRES
   185   94   95 1    
   186   94  215 1    
   187   95   96 1    
   188   95   97 1    
   189   95  216 1    
   190   96  217 1    
   191   96  218 1    
   192   96  219 1    
   193   97   98 2    
   194   97   99 am   BACKBONE|DICT|INTERRES
   195   99  100 1    
   196   99  220 1    
   197  100  101 1    
   198  100  102 1    
   199  100  221 1    
   200  101  222 1    
   201  101  223 1    
   202  101  224 1    
   203  102  103 2    
   204  102  104 am   BACKBONE|DICT|INTERRES
   205  104  105 1    
   206  104  225 1    
   207  105  106 1    
   208  105  107 1    
   209  105  226 1    
   210  106  227 1    
   211  106  228 1    
   212  106  229 1    
   213  107  108 2    
   214  107  109 am   BACKBONE|DICT|INTERRES
   215  109  110 1    
   216  109  230 1    
   217  110  111 1    
   218  110  112 1    
   219  110  231 1    
   220  111  232 1    
   221  111  233 1    
   222  111  234 1    
   223  112  113 2    
   224  112  114 am   BACKBONE|DICT|INTERRES
   225  114  115 1    
   226  114  235 1    
   227  115  116 1    
   228  115  117 1    
   229  115  236 1    
   230  116  237 1    
   231  116  238 1    
   232  116  239 1    
   233  117  118 2    
   234  117  119 am   BACKBONE|DICT|INTERRES
   235  119  120 1    
   236  119  240 1    
   237  120  121 1    
   238  120  124 1    
   239  120  241 1    
   240  121  122 am   BACKBONE|DICT|INTERRES
   241  121  123 2    
   242  122  242 1    
   243  122  243 1    
   244  124  125 1    
   245  124  244 1    
   246  124  245 1    
   247  125  126 1    
   248  126  246 1    
   249  126  247 1    
@<TRIPOS>SUBSTRUCTURE
     1 UNK         1 GROUP             0       ****    0 ROOT    
