@<TRIPOS>MOLECULE
3R540
247   249    1
SMALL
USER_CHARGES


@<TRIPOS>ATOM
      1 CA         -5.5497  -13.2407  -43.1478 C.3       0 UNK        -0.1800 
      2 C          -5.0455  -12.3743  -44.2937 C.2       0 UNK         0.5000 
      3 O          -5.2356  -11.1575  -44.2733 O.2       0 UNK        -0.5000 
      4 N          -4.4128  -12.9990  -45.2933 N.am      1 UNK        -0.5000 
      5 CA         -3.7996  -12.3347  -46.4496 C.3       1 UNK         0.1400 
      6 C6         -3.5120  -13.3234  -47.6108 C.3       23 UNK        -0.0398 
      7 S7         -4.9570  -14.3294  -48.1004 S.3       23 UNK        -0.2404 
      8 C8         -4.4923  -15.9846  -47.4927 C.3       23 UNK        -0.0205 
      9 C9         -3.5143  -16.6849  -48.4256 C.ar      23 UNK        -0.0193 
     10 C10        -3.9909  -17.4560  -49.4908 C.ar      23 UNK        -0.1150 
     11 C11        -3.1024  -18.1269  -50.3368 C.ar      23 UNK        -0.0193 
     12 C12        -1.7299  -18.0231  -50.1056 C.ar      23 UNK        -0.1150 
     13 C13        -1.2381  -17.2369  -49.0640 C.ar      23 UNK        -0.0193 
     14 C14        -2.1353  -16.5807  -48.2178 C.ar      23 UNK        -0.1150 
     15 C15         0.2636  -17.1059  -48.8574 C.3       23 UNK        -0.0205 
     16 S16         0.9912  -18.6164  -48.1513 S.3       23 UNK        -0.2404 
     17 C17         0.0807  -18.7537  -46.5801 C.3       23 UNK        -0.0398 
     18 CA         -1.0128  -19.8440  -46.6307 C.3       11 UNK         0.1400 
     19 N          -0.4254  -21.1725  -46.7518 N.am      11 UNK        -0.5000 
     20 C          -0.9759  -22.2242  -47.3665 C.2       10 UNK         0.5000 
     21 O          -2.0690  -22.1981  -47.9323 O.2       10 UNK        -0.5000 
     22 CA         -0.1581  -23.5257  -47.3493 C.3       10 UNK         0.1400 
     23 CB          0.8342  -23.5436  -48.5219 C.3       10 UNK        -0.1800 
     24 N           0.5832  -23.6638  -46.0939 N.am      10 UNK        -0.5000 
     25 C           0.2117  -24.4455  -45.0715 C.2       9 UNK         0.5000 
     26 O          -0.7537  -25.2084  -45.1063 O.2       9 UNK        -0.5000 
     27 CA          1.0563  -24.3642  -43.7824 C.3       9 UNK         0.1400 
     28 CB          2.1827  -25.4083  -43.8127 C.3       9 UNK        -0.1800 
     29 N           1.6372  -23.0433  -43.5282 N.am      9 UNK        -0.5000 
     30 C           0.9292  -21.9269  -43.3115 C.2       8 UNK         0.5000 
     31 O          -0.2983  -21.8880  -43.2967 O.2       8 UNK        -0.5000 
     32 CA          1.7100  -20.6165  -43.1125 C.3       8 UNK         0.1400 
     33 CB          2.0192  -20.4074  -41.6232 C.3       8 UNK        -0.1800 
     34 N           2.9473  -20.4696  -43.8874 N.am      8 UNK        -0.5000 
     35 C           3.1201  -20.7093  -45.1962 C.2       7 UNK         0.5000 
     36 O           2.2830  -21.2574  -45.9152 O.2       7 UNK        -0.5000 
     37 CA          4.4313  -20.1838  -45.7946 C.3       7 UNK         0.1400 
     38 CB          4.5241  -20.3590  -47.3222 C.3       7 UNK        -0.1800 
     39 N           4.5572  -18.7723  -45.4409 N.am      7 UNK        -0.5000 
     40 C           5.7055  -18.1333  -45.1991 C.2       6 UNK         0.5000 
     41 O           6.8154  -18.6575  -45.3016 O.2       6 UNK        -0.5000 
     42 CA          5.6014  -16.6611  -44.7540 C.3       6 UNK         0.1400 
     43 CB          5.7618  -15.7279  -45.9637 C.3       6 UNK        -0.1800 
     44 N           4.3620  -16.3214  -44.0424 N.am      6 UNK        -0.5000 
     45 C           4.0092  -16.8101  -42.8412 C.2       5 UNK         0.5000 
     46 O           4.6442  -17.6878  -42.2560 O.2       5 UNK        -0.5000 
     47 CA          2.7574  -16.2199  -42.1567 C.3       5 UNK         0.1400 
     48 CB          3.1679  -15.2815  -41.0115 C.3       5 UNK        -0.1800 
     49 N           1.8834  -15.4862  -43.0701 N.am      5 UNK        -0.5000 
     50 C           1.0492  -16.0602  -43.9440 C.2       4 UNK         0.5000 
     51 O           0.8681  -17.2756  -44.0040 O.2       4 UNK        -0.5000 
     52 CA          0.2882  -15.1391  -44.9204 C.3       4 UNK         0.1400 
     53 CB         -1.2055  -15.1078  -44.5649 C.3       4 UNK        -0.1800 
     54 N           0.8031  -13.7662  -45.0190 N.am      4 UNK        -0.5000 
     55 C           2.0227  -13.4404  -45.4780 C.2       3 UNK         0.5000 
     56 O           2.8590  -14.2847  -45.8020 O.2       3 UNK        -0.5000 
     57 CA          2.3863  -11.9393  -45.5425 C.3       3 UNK         0.1400 
     58 CB          3.5068  -11.6421  -46.5616 C.3       3 UNK        -0.1800 
     59 N           1.2366  -11.0510  -45.7542 N.am      3 UNK        -0.5000 
     60 C           0.4220  -11.0207  -46.8182 C.2       2 UNK         0.5000 
     61 O           0.5333  -11.7522  -47.8042 O.2       2 UNK        -0.5000 
     62 CA         -0.7421  -10.0118  -46.7523 C.3       2 UNK         0.1400 
     63 CB         -0.6047   -8.9393  -47.8442 C.3       2 UNK        -0.1800 
     64 N          -2.0341  -10.6848  -46.8936 N.am      2 UNK        -0.5000 
     65 C          -2.4980  -11.6078  -46.0408 C.2       1 UNK         0.5000 
     66 O          -1.9121  -11.9171  -44.9982 O.2       1 UNK        -0.5000 
     67 C          -1.9948  -19.8141  -45.4402 C.2       11 UNK         0.5000 
     68 O          -3.0616  -20.4138  -45.5542 O.2       11 UNK        -0.5000 
     69 N          -1.6589  -19.1185  -44.3407 N.am      12 UNK        -0.5000 
     70 CA         -2.5462  -18.7910  -43.2127 C.3       12 UNK         0.1400 
     71 CB         -1.7090  -18.1761  -42.0788 C.3       12 UNK        -0.1800 
     72 C          -3.4285  -19.9245  -42.6443 C.2       12 UNK         0.5000 
     73 O          -4.5640  -19.6558  -42.2492 O.2       12 UNK        -0.5000 
     74 N          -2.9037  -21.1539  -42.5969 N.am      13 UNK        -0.5000 
     75 CA         -3.5766  -22.3147  -42.0171 C.3       13 UNK         0.1400 
     76 CB         -2.5122  -23.2628  -41.4389 C.3       13 UNK        -0.1800 
     77 C          -4.4829  -23.0777  -43.0029 C.2       13 UNK         0.5000 
     78 O          -5.2090  -23.9640  -42.5481 O.2       13 UNK        -0.5000 
     79 N          -4.4238  -22.7760  -44.3096 N.am      14 UNK        -0.5000 
     80 CA         -5.0940  -23.5771  -45.3414 C.3       14 UNK         0.1400 
     81 CB         -4.1023  -24.6058  -45.9114 C.3       14 UNK        -0.1800 
     82 C          -5.7261  -22.7573  -46.4760 C.2       14 UNK         0.5000 
     83 O          -6.7902  -23.1464  -46.9592 O.2       14 UNK        -0.5000 
     84 N          -5.0665  -21.6695  -46.8985 N.am      15 UNK        -0.5000 
     85 CA         -5.3654  -20.8443  -48.0732 C.3       15 UNK         0.1400 
     86 CB         -6.6247  -19.9876  -47.8356 C.3       15 UNK        -0.1800 
     87 C          -5.4331  -21.6930  -49.3596 C.2       15 UNK         0.5000 
     88 O          -6.4626  -21.7228  -50.0379 O.2       15 UNK        -0.5000 
     89 N          -4.3350  -22.4080  -49.6403 N.am      16 UNK        -0.5000 
     90 CA         -4.1904  -23.4156  -50.6935 C.3       16 UNK         0.1400 
     91 CB         -2.9593  -24.2817  -50.3755 C.3       16 UNK        -0.1800 
     92 C          -4.1581  -22.8363  -52.1259 C.2       16 UNK         0.5000 
     93 O          -3.2018  -23.0537  -52.8744 O.2       16 UNK        -0.5000 
     94 N          -5.2311  -22.1335  -52.5055 N.am      17 UNK        -0.5000 
     95 CA         -5.4656  -21.5818  -53.8417 C.3       17 UNK         0.1400 
     96 CB         -6.7613  -20.7581  -53.8245 C.3       17 UNK        -0.1800 
     97 C          -5.5310  -22.6646  -54.9353 C.2       17 UNK         0.5000 
     98 O          -5.0734  -22.4281  -56.0526 O.2       17 UNK        -0.5000 
     99 N          -6.0393  -23.8527  -54.5764 N.am      18 UNK        -0.5000 
    100 CA        -6.0926  -25.0432  -55.4298 C.3       18 UNK         0.1400 
    101 CB        -6.9597  -26.1091  -54.7429 C.3       18 UNK        -0.1800 
    102 C         -4.7030  -25.6191  -55.7735 C.2       18 UNK         0.5000 
    103 O         -4.5564  -26.2604  -56.8142 O.2       18 UNK        -0.5000 
    104 N         -3.7084  -25.3619  -54.9123 N.am      19 UNK        -0.5000 
    105 CA        -2.3012  -25.7080  -55.1249 C.3       19 UNK         0.1400 
    106 CB        -1.6747  -26.0737  -53.7686 C.3       19 UNK        -0.1800 
    107 C         -1.5154  -24.5594  -55.7914 C.2       19 UNK         0.5000 
    108 O         -0.3114  -24.7044  -56.0059 O.2       19 UNK        -0.5000 
    109 N         -2.1955  -23.4380  -56.0813 N.am      20 UNK        -0.5000 
    110 CA        -1.6682  -22.1788  -56.6138 C.3       20 UNK         0.1400 
    111 CB        -1.0925  -22.3706  -58.0325 C.3       20 UNK        -0.1800 
    112 C         -0.6871  -21.4748  -55.6527 C.2       20 UNK         0.5000 
    113 O          0.1771  -20.7206  -56.1046 O.2       20 UNK        -0.5000 
    114 N         -0.8492  -21.7002  -54.3381 N.am      21 UNK        -0.5000 
    115 CA         0.0073  -21.1342  -53.2904 C.3       21 UNK         0.1400 
    116 CB        -0.3022  -21.8194  -51.9502 C.3       21 UNK        -0.1800 
    117 C         -0.1191  -19.6056  -53.1493 C.2       21 UNK         0.5000 
    118 O          0.7906  -18.9729  -52.6131 O.2       21 UNK        -0.5000 
    119 N         -1.2398  -19.0437  -53.6245 N.am      22 UNK        -0.5000 
    120 CA        -1.5331  -17.6033  -53.6098 C.3       22 UNK         0.1400 
    121 C         -0.6458  -16.7666  -54.5840 C.2       22 UNK         0.5000 
    122 N          0.0785  -17.3705  -55.5204 N.am      22 UNK        -0.7600 
    123 O         -0.6153  -15.5429  -54.4875 O.2       22 UNK        -0.5000 
    124 C124       -3.0329  -17.3019  -53.8774 C.3       23 UNK        -0.0398 
    125 S125       -4.3540  -18.0515  -52.8431 S.3       23 UNK        -0.2404 
    126 C126       -3.6261  -19.0009  -51.4655 C.3       23 UNK        -0.0205 
    127 H127       -5.3175  -14.2947  -43.3032 H         1 UNK         0.0600 
    128 H128       -6.6307  -13.1417  -43.0495 H         1 UNK         0.0600 
    129 H129       -5.0904  -12.9266  -42.2106 H         1 UNK         0.0600 
    130 H130       -4.2835  -13.9973  -45.2445 H         1 UNK         0.3000 
    131 H131       -4.5024  -11.5815  -46.8126 H         1 UNK         0.0600 
    132 H132       -3.1902  -12.7750  -48.4977 H         1 UNK         0.0800 
    133 H133       -2.6798  -13.9765  -47.3590 H         1 UNK         0.0800 
    134 H134       -4.0760  -15.9127  -46.4871 H         1 UNK         0.0800 
    135 H135       -5.3974  -16.5868  -47.3993 H         1 UNK         0.0800 
    136 H136       -5.0555  -17.5397  -49.6592 H         1 UNK         0.1150 
    137 H137       -1.0326  -18.5586  -50.7298 H         1 UNK         0.1150 
    138 H138       -1.7554  -15.9938  -47.3958 H         1 UNK         0.1150 
    139 H139        0.4979  -16.2533  -48.2191 H         1 UNK         0.0800 
    140 H140        0.7406  -16.9049  -49.8179 H         1 UNK         0.0800 
    141 H141       -0.3480  -17.7829  -46.3369 H         1 UNK         0.0800 
    142 H142        0.8075  -18.9827  -45.8036 H         1 UNK         0.0800 
    143 H143       -1.6215  -19.6545  -47.5175 H         1 UNK         0.0600 
    144 H144        0.5083  -21.2744  -46.3649 H         1 UNK         0.3000 
    145 H145       -0.8522  -24.3586  -47.4799 H         1 UNK         0.0600 
    146 H146        0.3115  -23.4640  -49.4753 H         1 UNK         0.0600 
    147 H147        1.4040  -24.4726  -48.5406 H         1 UNK         0.0600 
    148 H148        1.5431  -22.7161  -48.4641 H         1 UNK         0.0600 
    149 H149        1.3682  -23.0347  -45.9627 H         1 UNK         0.3000 
    150 H150        0.3960  -24.6006  -42.9454 H         1 UNK         0.0600 
    151 H151        2.8964  -25.2063  -44.6124 H         1 UNK         0.0600 
    152 H152        1.7826  -26.4101  -43.9748 H         1 UNK         0.0600 
    153 H153        2.7295  -25.4271  -42.8698 H         1 UNK         0.0600 
    154 H154        2.6441  -22.9773  -43.5416 H         1 UNK         0.3000 
    155 H155        1.0481  -19.8111  -43.4292 H         1 UNK         0.0600 
    156 H156        2.7137  -21.1603  -41.2487 H         1 UNK         0.0600 
    157 H157        1.1111  -20.4687  -41.0215 H         1 UNK         0.0600 
    158 H158        2.4597  -19.4277  -41.4428 H         1 UNK         0.0600 
    159 H159        3.7081  -20.0170  -43.3993 H         1 UNK         0.3000 
    160 H160        5.2376  -20.7556  -45.3306 H         1 UNK         0.0600 
    161 H161        3.7443  -19.7992  -47.8385 H         1 UNK         0.0600 
    162 H162        4.4189  -21.4073  -47.6039 H         1 UNK         0.0600 
    163 H163        5.4870  -20.0161  -47.7004 H         1 UNK         0.0600 
    164 H164        3.6907  -18.2669  -45.3155 H         1 UNK         0.3000 
    165 H165        6.4322  -16.4720  -44.0711 H         1 UNK         0.0600 
    166 H166        5.7644  -14.6812  -45.6590 H         1 UNK         0.0600 
    167 H167        6.7020  -15.9174  -46.4832 H         1 UNK         0.0600 
    168 H168        4.9551  -15.8650  -46.6850 H         1 UNK         0.0600 
    169 H169        3.7762  -15.6185  -44.4803 H         1 UNK         0.3000 
    170 H170        2.1933  -17.0502  -41.7276 H         1 UNK         0.0600 
    171 H171        2.2950  -14.9068  -40.4766 H         1 UNK         0.0600 
    172 H172        3.7331  -14.4233  -41.3770 H         1 UNK         0.0600 
    173 H173        3.7935  -15.8012  -40.2844 H         1 UNK         0.0600 
    174 H174        1.9638  -14.4805  -43.0728 H         1 UNK         0.3000 
    175 H175        0.3893  -15.5855  -45.9100 H         1 UNK         0.0600 
    176 H176       -1.6263  -16.1127  -44.5316 H         1 UNK         0.0600 
    177 H177       -1.3791  -14.6417  -43.5943 H         1 UNK         0.0600 
    178 H178       -1.7737  -14.5541  -45.3079 H         1 UNK         0.0600 
    179 H179        0.1573  -13.0235  -44.7811 H         1 UNK         0.3000 
    180 H180        2.7763  -11.6913  -44.5545 H         1 UNK         0.0600 
    181 H181        3.2232  -11.9345  -47.5730 H         1 UNK         0.0600 
    182 H182        4.4193  -12.1844  -46.3106 H         1 UNK         0.0600 
    183 H183        3.7565  -10.5812  -46.5760 H         1 UNK         0.0600 
    184 H184        1.0342  -10.4241  -44.9874 H         1 UNK         0.3000 
    185 H185       -0.7286   -9.5112  -45.7817 H         1 UNK         0.0600 
    186 H186        0.3459   -8.4121  -47.7543 H         1 UNK         0.0600 
    187 H187       -0.6456   -9.3735  -48.8441 H         1 UNK         0.0600 
    188 H188       -1.3972   -8.1945  -47.7686 H         1 UNK         0.0600 
    189 H189       -2.5468  -10.4907  -47.7414 H         1 UNK         0.3000 
    190 H190       -0.7509  -18.6712  -44.3058 H         1 UNK         0.3000 
    191 H191       -3.2311  -18.0223  -43.5755 H         1 UNK         0.0600 
    192 H192       -1.2677  -17.2268  -42.3766 H         1 UNK         0.0600 
    193 H193       -2.3210  -17.9754  -41.1982 H         1 UNK         0.0600 
    194 H194       -0.9013  -18.8416  -41.7720 H         1 UNK         0.0600 
    195 H195       -1.9608  -21.3115  -42.9509 H         1 UNK         0.3000 
    196 H196       -4.2062  -21.9834  -41.1886 H         1 UNK         0.0600 
    197 H197       -2.9753  -24.0752  -40.8777 H         1 UNK         0.0600 
    198 H198       -1.8405  -22.7394  -40.7582 H         1 UNK         0.0600 
    199 H199       -1.9087  -23.7151  -42.2265 H         1 UNK         0.0600 
    200 H200       -3.8466  -21.9988  -44.6149 H         1 UNK         0.3000 
    201 H201       -5.9220  -24.1327  -44.8962 H         1 UNK         0.0600 
    202 H202       -4.5623  -25.2050  -46.6982 H         1 UNK         0.0600 
    203 H203       -3.7579  -25.2928  -45.1382 H         1 UNK         0.0600 
    204 H204       -3.2249  -24.1208  -46.3384 H         1 UNK         0.0600 
    205 H205       -4.2083  -21.4013  -46.4198 H         1 UNK         0.3000 
    206 H206       -4.5208  -20.1639  -48.1935 H         1 UNK         0.0600 
    207 H207       -6.5131  -19.3658  -46.9473 H         1 UNK         0.0600 
    208 H208       -6.8054  -19.3202  -48.6790 H         1 UNK         0.0600 
    209 H209       -7.5163  -20.6017  -47.7062 H         1 UNK         0.0600 
    210 H210       -3.5338  -22.3093  -49.0174 H         1 UNK         0.3000 
    211 H211       -5.0641  -24.0684  -50.6439 H         1 UNK         0.0600 
    212 H212       -2.0376  -23.7020  -50.4188 H         1 UNK         0.0600 
    213 H213       -2.8673  -25.1075  -51.0808 H         1 UNK         0.0600 
    214 H214       -3.0308  -24.7171  -49.3785 H         1 UNK         0.0600 
    215 H215       -5.9475  -21.9661  -51.8024 H         1 UNK         0.3000 
    216 H216       -4.6328  -20.9172  -54.0796 H         1 UNK         0.0600 
    217 H217       -7.6302  -21.3787  -53.6025 H         1 UNK         0.0600 
    218 H218       -6.9336  -20.2814  -54.7904 H         1 UNK         0.0600 
    219 H219       -6.7180  -19.9676  -53.0753 H         1 UNK         0.0600 
    220 H220       -6.3945  -23.9534  -53.6369 H         1 UNK         0.3000 
    221 H221       -6.5731  -24.7628  -56.3694 H         1 UNK         0.0600 
    222 H222       -6.5379  -26.4149  -53.7846 H         1 UNK         0.0600 
    223 H223       -7.9702  -25.7410  -54.5641 H         1 UNK         0.0600 
    224 H224       -7.0461  -27.0020  -55.3635 H         1 UNK         0.0600 
    225 H225       -3.9010  -24.7926  -54.0987 H         1 UNK         0.3000 
    226 H226       -2.2289  -26.5800  -55.7779 H         1 UNK         0.0600 
    227 H227       -2.2538  -26.8423  -53.2566 H         1 UNK         0.0600 
    228 H228       -0.6642  -26.4627  -53.8987 H         1 UNK         0.0600 
    229 H229       -1.6051  -25.2073  -53.1108 H         1 UNK         0.0600 
    230 H230       -3.1880  -23.4260  -55.8821 H         1 UNK         0.3000 
    231 H231       -2.5252  -21.5098  -56.7011 H         1 UNK         0.0600 
    232 H232       -0.1760  -22.9609  -58.0238 H         1 UNK         0.0600 
    233 H233       -0.8557  -21.4100  -58.4913 H         1 UNK         0.0600 
    234 H234       -1.8089  -22.8711  -58.6840 H         1 UNK         0.0600 
    235 H235       -1.5965  -22.3125  -54.0280 H         1 UNK         0.3000 
    236 H236        1.0441  -21.3543  -53.5527 H         1 UNK         0.0600 
    237 H237       -1.3106  -21.5935  -51.6041 H         1 UNK         0.0600 
    238 H238       -0.2071  -22.9026  -52.0283 H         1 UNK         0.0600 
    239 H239        0.3877  -21.4860  -51.1737 H         1 UNK         0.0600 
    240 H240       -1.9285  -19.6388  -54.0580 H         1 UNK         0.3000 
    241 H241       -1.2961  -17.2239  -52.6172 H         1 UNK         0.0600 
    242 H242        0.6478  -16.8158  -56.1400 H         1 UNK         0.3800 
    243 H243        0.0772  -18.3770  -55.6091 H         1 UNK         0.3800 
    244 H244       -3.2694  -17.5656  -54.9098 H         1 UNK         0.0800 
    245 H245       -3.1952  -16.2242  -53.8158 H         1 UNK         0.0800 
    246 H246       -4.4242  -19.6209  -51.0603 H         1 UNK         0.0800 
    247 H247       -2.8776  -19.7085  -51.8126 H         1 UNK         0.0800 
@<TRIPOS>BOND
     1    1    2 1    
     2    1  127 1    
     3    1  128 1    
     4    1  129 1    
     5    2    3 2    
     6    2    4 am   BACKBONE|DICT|INTERRES
     7    4    5 1    
     8    4  130 1    
     9    5    6 1    
    10    5   65 1    
    11    5  131 1    
    12    6    7 1    
    13    6  132 1    
    14    6  133 1    
    15    7    8 1    
    16    8    9 1    
    17    8  134 1    
    18    8  135 1    
    19    9   10 ar   
    20    9   14 ar   
    21   10   11 ar   
    22   10  136 1    
    23   11   12 ar   
    24   11  126 1    
    25   12   13 ar   
    26   12  137 1    
    27   13   14 ar   
    28   13   15 1    
    29   14  138 1    
    30   15   16 1    
    31   15  139 1    
    32   15  140 1    
    33   16   17 1    
    34   17   18 1    
    35   17  141 1    
    36   17  142 1    
    37   18   19 1    
    38   18   67 1    
    39   18  143 1    
    40   19   20 am   BACKBONE|DICT|INTERRES
    41   19  144 1    
    42   20   21 2    
    43   20   22 1    
    44   22   23 1    
    45   22   24 1    
    46   22  145 1    
    47   23  146 1    
    48   23  147 1    
    49   23  148 1    
    50   24   25 am   BACKBONE|DICT|INTERRES
    51   24  149 1    
    52   25   26 2    
    53   25   27 1    
    54   27   28 1    
    55   27   29 1    
    56   27  150 1    
    57   28  151 1    
    58   28  152 1    
    59   28  153 1    
    60   29   30 am   BACKBONE|DICT|INTERRES
    61   29  154 1    
    62   30   31 2    
    63   30   32 1    
    64   32   33 1    
    65   32   34 1    
    66   32  155 1    
    67   33  156 1    
    68   33  157 1    
    69   33  158 1    
    70   34   35 am   BACKBONE|DICT|INTERRES
    71   34  159 1    
    72   35   36 2    
    73   35   37 1    
    74   37   38 1    
    75   37   39 1    
    76   37  160 1    
    77   38  161 1    
    78   38  162 1    
    79   38  163 1    
    80   39   40 am   BACKBONE|DICT|INTERRES
    81   39  164 1    
    82   40   41 2    
    83   40   42 1    
    84   42   43 1    
    85   42   44 1    
    86   42  165 1    
    87   43  166 1    
    88   43  167 1    
    89   43  168 1    
    90   44   45 am   BACKBONE|DICT|INTERRES
    91   44  169 1    
    92   45   46 2    
    93   45   47 1    
    94   47   48 1    
    95   47   49 1    
    96   47  170 1    
    97   48  171 1    
    98   48  172 1    
    99   48  173 1    
   100   49   50 am   BACKBONE|DICT|INTERRES
   101   49  174 1    
   102   50   51 2    
   103   50   52 1    
   104   52   53 1    
   105   52   54 1    
   106   52  175 1    
   107   53  176 1    
   108   53  177 1    
   109   53  178 1    
   110   54   55 am   BACKBONE|DICT|INTERRES
   111   54  179 1    
   112   55   56 2    
   113   55   57 1    
   114   57   58 1    
   115   57   59 1    
   116   57  180 1    
   117   58  181 1    
   118   58  182 1    
   119   58  183 1    
   120   59   60 am   BACKBONE|DICT|INTERRES
   121   59  184 1    
   122   60   61 2    
   123   60   62 1    
   124   62   63 1    
   125   62   64 1    
   126   62  185 1    
   127   63  186 1    
   128   63  187 1    
   129   63  188 1    
   130   64   65 am   BACKBONE|DICT|INTERRES
   131   64  189 1    
   132   65   66 2    
   133   67   68 2    
   134   67   69 am   BACKBONE|DICT|INTERRES
   135   69   70 1    
   136   69  190 1    
   137   70   71 1    
   138   70   72 1    
   139   70  191 1    
   140   71  192 1    
   141   71  193 1    
   142   71  194 1    
   143   72   73 2    
   144   72   74 am   BACKBONE|DICT|INTERRES
   145   74   75 1    
   146   74  195 1    
   147   75   76 1    
   148   75   77 1    
   149   75  196 1    
   150   76  197 1    
   151   76  198 1    
   152   76  199 1    
   153   77   78 2    
   154   77   79 am   BACKBONE|DICT|INTERRES
   155   79   80 1    
   156   79  200 1    
   157   80   81 1    
   158   80   82 1    
   159   80  201 1    
   160   81  202 1    
   161   81  203 1    
   162   81  204 1    
   163   82   83 2    
   164   82   84 am   BACKBONE|DICT|INTERRES
   165   84   85 1    
   166   84  205 1    
   167   85   86 1    
   168   85   87 1    
   169   85  206 1    
   170   86  207 1    
   171   86  208 1    
   172   86  209 1    
   173   87   88 2    
   174   87   89 am   BACKBONE|DICT|INTERRES
   175   89   90 1    
   176   89  210 1    
   177   90   91 1    
   178   90   92 1    
   179   90  211 1    
   180   91  212 1    
   181   91  213 1    
   182   91  214 1    
   183   92   93 2    
   184   92   94 am   BACKBONE|DICT|INTERRES
   185   94   95 1    
   186   94  215 1    
   187   95   96 1    
   188   95   97 1    
   189   95  216 1    
   190   96  217 1    
   191   96  218 1    
   192   96  219 1    
   193   97   98 2    
   194   97   99 am   BACKBONE|DICT|INTERRES
   195   99  100 1    
   196   99  220 1    
   197  100  101 1    
   198  100  102 1    
   199  100  221 1    
   200  101  222 1    
   201  101  223 1    
   202  101  224 1    
   203  102  103 2    
   204  102  104 am   BACKBONE|DICT|INTERRES
   205  104  105 1    
   206  104  225 1    
   207  105  106 1    
   208  105  107 1    
   209  105  226 1    
   210  106  227 1    
   211  106  228 1    
   212  106  229 1    
   213  107  108 2    
   214  107  109 am   BACKBONE|DICT|INTERRES
   215  109  110 1    
   216  109  230 1    
   217  110  111 1    
   218  110  112 1    
   219  110  231 1    
   220  111  232 1    
   221  111  233 1    
   222  111  234 1    
   223  112  113 2    
   224  112  114 am   BACKBONE|DICT|INTERRES
   225  114  115 1    
   226  114  235 1    
   227  115  116 1    
   228  115  117 1    
   229  115  236 1    
   230  116  237 1    
   231  116  238 1    
   232  116  239 1    
   233  117  118 2    
   234  117  119 am   BACKBONE|DICT|INTERRES
   235  119  120 1    
   236  119  240 1    
   237  120  121 1    
   238  120  124 1    
   239  120  241 1    
   240  121  122 am   BACKBONE|DICT|INTERRES
   241  121  123 2    
   242  122  242 1    
   243  122  243 1    
   244  124  125 1    
   245  124  244 1    
   246  124  245 1    
   247  125  126 1    
   248  126  246 1    
   249  126  247 1    
@<TRIPOS>SUBSTRUCTURE
     1 UNK         1 GROUP             0       ****    0 ROOT    
