@<TRIPOS>MOLECULE
3R540
247   249    1
SMALL
USER_CHARGES


@<TRIPOS>ATOM
      1 CA          4.1417   -9.1475  -49.4379 C.3       0 UNK        -0.1800 
      2 C           5.1205  -10.0303  -48.6763 C.2       0 UNK         0.5000 
      3 O           6.3109   -9.7192  -48.6189 O.2       0 UNK        -0.5000 
      4 N           4.6246  -11.1324  -48.1020 N.am      1 UNK        -0.5000 
      5 CA          5.3949  -12.0755  -47.2838 C.3       1 UNK         0.1400 
      6 C6          4.6362  -13.4070  -47.0640 C.3       23 UNK        -0.0398 
      7 S7          4.1441  -14.2375  -48.6103 S.3       23 UNK        -0.2404 
      8 C8          2.3398  -14.3611  -48.3635 C.3       23 UNK        -0.0205 
      9 C9          1.6545  -15.3541  -49.2939 C.ar      23 UNK        -0.0193 
     10 C10         0.3804  -15.0640  -49.7892 C.ar      23 UNK        -0.1150 
     11 C11        -0.3168  -15.9935  -50.5660 C.ar      23 UNK        -0.0193 
     12 C12         0.2854  -17.2219  -50.8632 C.ar      23 UNK        -0.1150 
     13 C13         1.5677  -17.5178  -50.3940 C.ar      23 UNK        -0.0193 
     14 C14         2.2404  -16.5868  -49.6006 C.ar      23 UNK        -0.1150 
     15 C15         2.2296  -18.8436  -50.7362 C.3       23 UNK        -0.0205 
     16 S16         2.1333  -20.0258  -49.3580 S.3       23 UNK        -0.2404 
     17 C17         0.3513  -20.4034  -49.3612 C.3       23 UNK        -0.0398 
     18 CA          0.0179  -21.6346  -48.4923 C.3       11 UNK         0.1400 
     19 N           0.2465  -21.4047  -47.0642 N.am      11 UNK        -0.5000 
     20 C           0.2145  -22.3640  -46.1290 C.2       10 UNK         0.5000 
     21 O           0.0580  -23.5597  -46.3794 O.2       10 UNK        -0.5000 
     22 CA          0.3030  -21.9022  -44.6634 C.3       10 UNK         0.1400 
     23 CB          1.7580  -21.6337  -44.2516 C.3       10 UNK        -0.1800 
     24 N          -0.5202  -20.7175  -44.4110 N.am      10 UNK        -0.5000 
     25 C          -1.8575  -20.7032  -44.5092 C.2       9 UNK         0.5000 
     26 O          -2.5295  -21.7064  -44.7473 O.2       9 UNK        -0.5000 
     27 CA         -2.5644  -19.3455  -44.3526 C.3       9 UNK         0.1400 
     28 CB         -2.7877  -19.0210  -42.8684 C.3       9 UNK        -0.1800 
     29 N          -1.8390  -18.2497  -44.9944 N.am      9 UNK        -0.5000 
     30 C          -1.6624  -18.1113  -46.3165 C.2       8 UNK         0.5000 
     31 O          -2.1461  -18.8712  -47.1571 O.2       8 UNK        -0.5000 
     32 CA         -0.7569  -16.9512  -46.7748 C.3       8 UNK         0.1400 
     33 CB         -1.5437  -15.6340  -46.8352 C.3       8 UNK        -0.1800 
     34 N           0.4209  -16.7780  -45.9216 N.am      8 UNK        -0.5000 
     35 C           1.3725  -17.7081  -45.7559 C.2       7 UNK         0.5000 
     36 O           1.3671  -18.7990  -46.3230 O.2       7 UNK        -0.5000 
     37 CA          2.4730  -17.4006  -44.7269 C.3       7 UNK         0.1400 
     38 CB          3.5506  -16.4714  -45.3044 C.3       7 UNK        -0.1800 
     39 N           1.9201  -16.8170  -43.5064 N.am      7 UNK        -0.5000 
     40 C           1.1904  -17.4977  -42.6121 C.2       6 UNK         0.5000 
     41 O           0.9485  -18.7012  -42.7000 O.2       6 UNK        -0.5000 
     42 CA          0.5966  -16.6857  -41.4465 C.3       6 UNK         0.1400 
     43 CB          1.6096  -16.5643  -40.2984 C.3       6 UNK        -0.1800 
     44 N           0.1504  -15.3508  -41.8548 N.am      6 UNK        -0.5000 
     45 C          -0.8680  -15.1287  -42.6974 C.2       5 UNK         0.5000 
     46 O          -1.5323  -16.0246  -43.2145 O.2       5 UNK        -0.5000 
     47 CA         -1.1774  -13.6649  -43.0518 C.3       5 UNK         0.1400 
     48 CB         -2.0817  -13.0322  -41.9837 C.3       5 UNK        -0.1800 
     49 N           0.0090  -12.8267  -43.2403 N.am      5 UNK        -0.5000 
     50 C           0.9641  -13.0259  -44.1608 C.2       4 UNK         0.5000 
     51 O           1.0258  -14.0264  -44.8762 O.2       4 UNK        -0.5000 
     52 CA          2.0318  -11.9246  -44.3146 C.3       4 UNK         0.1400 
     53 CB          1.7295  -11.1031  -45.5782 C.3       4 UNK        -0.1800 
     54 N           2.0694  -11.0140  -43.1648 N.am      4 UNK        -0.5000 
     55 C           2.8020  -11.0879  -42.0405 C.2       3 UNK         0.5000 
     56 O           2.5947  -10.3098  -41.1116 O.2       3 UNK        -0.5000 
     57 CA          3.9663  -12.0893  -41.9000 C.3       3 UNK         0.1400 
     58 CB          3.5390  -13.5714  -41.8883 C.3       3 UNK        -0.1800 
     59 N           5.0053  -11.8133  -42.8881 N.am      3 UNK        -0.5000 
     60 C           6.2923  -12.1638  -42.7895 C.2       2 UNK         0.5000 
     61 O           6.7378  -12.8490  -41.8670 O.2       2 UNK        -0.5000 
     62 CA          7.2334  -11.6643  -43.9121 C.3       2 UNK         0.1400 
     63 CB          8.6812  -12.1588  -43.7373 C.3       2 UNK        -0.1800 
     64 N           6.7709  -12.0414  -45.2513 N.am      2 UNK        -0.5000 
     65 C           5.7654  -11.4601  -45.9165 C.2       1 UNK         0.5000 
     66 O           5.1069  -10.5245  -45.4540 O.2       1 UNK        -0.5000 
     67 C          -1.4117  -22.1408  -48.7695 C.2       11 UNK         0.5000 
     68 O          -1.5613  -23.0816  -49.5461 O.2       11 UNK        -0.5000 
     69 N          -2.4237  -21.5693  -48.0968 N.am      12 UNK        -0.5000 
     70 CA         -3.8198  -22.0061  -48.1837 C.3       12 UNK         0.1400 
     71 CB         -4.7343  -21.0604  -47.3900 C.3       12 UNK        -0.1800 
     72 C          -4.0172  -23.4529  -47.7031 C.2       12 UNK         0.5000 
     73 O          -4.7253  -24.2148  -48.3614 O.2       12 UNK        -0.5000 
     74 N          -3.3709  -23.8112  -46.5852 N.am      13 UNK        -0.5000 
     75 CA         -3.3591  -25.1629  -46.0278 C.3       13 UNK         0.1400 
     76 CB         -2.6918  -25.1477  -44.6445 C.3       13 UNK        -0.1800 
     77 C          -2.6768  -26.1765  -46.9635 C.2       13 UNK         0.5000 
     78 O          -3.2364  -27.2469  -47.2051 O.2       13 UNK        -0.5000 
     79 N          -1.5127  -25.8029  -47.5160 N.am      14 UNK        -0.5000 
     80 CA         -0.7738  -26.5857  -48.5121 C.3       14 UNK         0.1400 
     81 CB          0.5855  -25.9223  -48.7792 C.3       14 UNK        -0.1800 
     82 C          -1.5572  -26.7775  -49.8263 C.2       14 UNK         0.5000 
     83 O          -1.4967  -27.8524  -50.4233 O.2       14 UNK        -0.5000 
     84 N          -2.3190  -25.7497  -50.2189 N.am      15 UNK        -0.5000 
     85 CA         -3.2377  -25.7373  -51.3561 C.3       15 UNK         0.1400 
     86 CB         -3.3751  -24.2914  -51.8624 C.3       15 UNK        -0.1800 
     87 C          -4.6159  -26.3610  -51.0459 C.2       15 UNK         0.5000 
     88 O          -5.5453  -26.1489  -51.8224 O.2       15 UNK        -0.5000 
     89 N          -4.7405  -27.1100  -49.9387 N.am      16 UNK        -0.5000 
     90 CA         -5.9160  -27.8821  -49.5202 C.3       16 UNK         0.1400 
     91 CB         -6.1422  -29.0724  -50.4761 C.3       16 UNK        -0.1800 
     92 C          -7.1740  -27.0087  -49.3357 C.2       16 UNK         0.5000 
     93 O          -8.2113  -27.2708  -49.9473 O.2       16 UNK        -0.5000 
     94 N          -7.0328  -25.9751  -48.4956 N.am      17 UNK        -0.5000 
     95 CA         -8.0077  -24.9184  -48.2081 C.3       17 UNK         0.1400 
     96 CB         -9.3363  -25.4814  -47.6586 C.3       17 UNK        -0.1800 
     97 C          -8.1789  -23.9629  -49.4054 C.2       17 UNK         0.5000 
     98 O          -9.3020  -23.6200  -49.7786 O.2       17 UNK        -0.5000 
     99 N          -7.0333  -23.5379  -49.9556 N.am      18 UNK        -0.5000 
    100 CA        -6.8619  -22.5454  -51.0180 C.3       18 UNK         0.1400 
    101 CB        -7.2364  -21.1376  -50.5070 C.3       18 UNK        -0.1800 
    102 C         -7.5664  -22.9142  -52.3404 C.2       18 UNK         0.5000 
    103 O         -8.3074  -22.0997  -52.8969 O.2       18 UNK        -0.5000 
    104 N         -7.3250  -24.1365  -52.8339 N.am      19 UNK        -0.5000 
    105 CA        -7.7449  -24.5681  -54.1647 C.3       19 UNK         0.1400 
    106 CB        -7.7241  -26.1033  -54.2462 C.3       19 UNK        -0.1800 
    107 C         -6.8249  -23.9291  -55.2211 C.2       19 UNK         0.5000 
    108 O         -5.6517  -24.2984  -55.3130 O.2       19 UNK        -0.5000 
    109 N         -7.3705  -22.9604  -55.9687 N.am      20 UNK        -0.5000 
    110 CA        -6.7440  -22.1334  -57.0094 C.3       20 UNK         0.1400 
    111 CB        -6.2058  -22.9880  -58.1740 C.3       20 UNK        -0.1800 
    112 C         -5.6754  -21.1555  -56.4799 C.2       20 UNK         0.5000 
    113 O         -5.7960  -19.9506  -56.7065 O.2       20 UNK        -0.5000 
    114 N         -4.6586  -21.6774  -55.7860 N.am      21 UNK        -0.5000 
    115 CA        -3.6223  -20.9007  -55.1086 C.3       21 UNK         0.1400 
    116 CB        -2.4077  -21.8052  -54.8531 C.3       21 UNK        -0.1800 
    117 C         -4.1544  -20.3177  -53.7881 C.2       21 UNK         0.5000 
    118 O         -4.9409  -20.9756  -53.1061 O.2       21 UNK        -0.5000 
    119 N         -3.7122  -19.1024  -53.4505 N.am      22 UNK        -0.5000 
    120 CA        -4.0473  -18.4117  -52.1962 C.3       22 UNK         0.1400 
    121 C         -3.2895  -18.9694  -50.9527 C.2       22 UNK         0.5000 
    122 N         -3.6597  -18.5427  -49.7515 N.am      22 UNK        -0.7600 
    123 O         -2.3518  -19.7539  -51.0640 O.2       22 UNK        -0.5000 
    124 C124       -3.9019  -16.8734  -52.3554 C.3       23 UNK        -0.0398 
    125 S125       -2.1887  -16.3028  -52.6530 S.3       23 UNK        -0.2404 
    126 C126       -1.7465  -15.6798  -50.9936 C.3       23 UNK        -0.0205 
    127 H127        3.1281   -9.5484  -49.4107 H         1 UNK         0.0600 
    128 H128        4.4459   -9.0625  -50.4812 H         1 UNK         0.0600 
    129 H129        4.1232   -8.1478  -49.0040 H         1 UNK         0.0600 
    130 H130        3.6394  -11.3306  -48.1866 H         1 UNK         0.3000 
    131 H131        6.3244  -12.2951  -47.8138 H         1 UNK         0.0600 
    132 H132        5.2557  -14.1122  -46.5070 H         1 UNK         0.0800 
    133 H133        3.7510  -13.2402  -46.4521 H         1 UNK         0.0800 
    134 H134        1.9071  -13.3668  -48.4812 H         1 UNK         0.0800 
    135 H135        2.1241  -14.6742  -47.3428 H         1 UNK         0.0800 
    136 H136       -0.0893  -14.1246  -49.5333 H         1 UNK         0.1150 
    137 H137       -0.2488  -17.9588  -51.4460 H         1 UNK         0.1150 
    138 H138        3.2166  -16.8355  -49.2094 H         1 UNK         0.1150 
    139 H139        1.7808  -19.2813  -51.6293 H         1 UNK         0.0800 
    140 H140        3.2792  -18.6706  -50.9778 H         1 UNK         0.0800 
    141 H141        0.0564  -20.5809  -50.3968 H         1 UNK         0.0800 
    142 H142       -0.2048  -19.5272  -49.0243 H         1 UNK         0.0800 
    143 H143        0.6919  -22.4391  -48.7946 H         1 UNK         0.0600 
    144 H144        0.4460  -20.4479  -46.7839 H         1 UNK         0.3000 
    145 H145       -0.0784  -22.7121  -44.0379 H         1 UNK         0.0600 
    146 H146        1.8254  -21.3642  -43.1975 H         1 UNK         0.0600 
    147 H147        2.3739  -22.5213  -44.4008 H         1 UNK         0.0600 
    148 H148        2.2026  -20.8260  -44.8321 H         1 UNK         0.0600 
    149 H149       -0.0323  -19.8643  -44.1632 H         1 UNK         0.3000 
    150 H150       -3.5424  -19.4214  -44.8309 H         1 UNK         0.0600 
    151 H151       -3.3390  -19.8205  -42.3719 H         1 UNK         0.0600 
    152 H152       -3.3659  -18.1047  -42.7486 H         1 UNK         0.0600 
    153 H153       -1.8439  -18.8929  -42.3378 H         1 UNK         0.0600 
    154 H154       -1.4702  -17.5312  -44.3773 H         1 UNK         0.3000 
    155 H155       -0.4030  -17.1866  -47.7803 H         1 UNK         0.0600 
    156 H156       -1.9639  -15.3702  -45.8646 H         1 UNK         0.0600 
    157 H157       -2.3701  -15.7082  -47.5429 H         1 UNK         0.0600 
    158 H158       -0.9096  -14.8083  -47.1575 H         1 UNK         0.0600 
    159 H159        0.5072  -15.8949  -45.4294 H         1 UNK         0.3000 
    160 H160        2.9537  -18.3470  -44.4695 H         1 UNK         0.0600 
    161 H161        4.4121  -16.4114  -44.6394 H         1 UNK         0.0600 
    162 H162        3.1752  -15.4605  -45.4481 H         1 UNK         0.0600 
    163 H163        3.9076  -16.8329  -46.2699 H         1 UNK         0.0600 
    164 H164        2.0127  -15.8188  -43.3959 H         1 UNK         0.3000 
    165 H165       -0.2736  -17.2300  -41.0733 H         1 UNK         0.0600 
    166 H166        1.1886  -16.0176  -39.4545 H         1 UNK         0.0600 
    167 H167        1.8999  -17.5502  -39.9329 H         1 UNK         0.0600 
    168 H168        2.5201  -16.0535  -40.6117 H         1 UNK         0.0600 
    169 H169        0.6358  -14.5590  -41.4621 H         1 UNK         0.3000 
    170 H170       -1.7244  -13.6698  -43.9967 H         1 UNK         0.0600 
    171 H171       -2.9841  -13.6266  -41.8334 H         1 UNK         0.0600 
    172 H172       -1.5755  -12.9544  -41.0207 H         1 UNK         0.0600 
    173 H173       -2.3997  -12.0319  -42.2780 H         1 UNK         0.0600 
    174 H174        0.0534  -11.9858  -42.6842 H         1 UNK         0.3000 
    175 H175        2.9957  -12.4073  -44.4556 H         1 UNK         0.0600 
    176 H176        0.7542  -10.6180  -45.5201 H         1 UNK         0.0600 
    177 H177        2.4759  -10.3250  -45.7359 H         1 UNK         0.0600 
    178 H178        1.7261  -11.7346  -46.4672 H         1 UNK         0.0600 
    179 H179        1.3912  -10.2676  -43.2092 H         1 UNK         0.3000 
    180 H180        4.3989  -11.8870  -40.9173 H         1 UNK         0.0600 
    181 H181        3.4245  -13.9867  -42.8878 H         1 UNK         0.0600 
    182 H182        2.5989  -13.7029  -41.3532 H         1 UNK         0.0600 
    183 H183        4.2845  -14.1807  -41.3771 H         1 UNK         0.0600 
    184 H184        4.7397  -11.2160  -43.6672 H         1 UNK         0.3000 
    185 H185        7.2514  -10.5743  -43.8458 H         1 UNK         0.0600 
    186 H186        9.0872  -11.8519  -42.7726 H         1 UNK         0.0600 
    187 H187        8.7448  -13.2464  -43.7908 H         1 UNK         0.0600 
    188 H188        9.3344  -11.7460  -44.5063 H         1 UNK         0.0600 
    189 H189        7.2493  -12.8242  -45.6738 H         1 UNK         0.3000 
    190 H190       -2.2302  -20.7644  -47.5092 H         1 UNK         0.3000 
    191 H191       -4.1129  -21.9580  -49.2344 H         1 UNK         0.0600 
    192 H192       -4.4851  -21.0485  -46.3307 H         1 UNK         0.0600 
    193 H193       -5.7764  -21.3719  -47.4683 H         1 UNK         0.0600 
    194 H194       -4.6745  -20.0378  -47.7568 H         1 UNK         0.0600 
    195 H195       -2.8567  -23.1005  -46.0721 H         1 UNK         0.3000 
    196 H196       -4.3968  -25.4772  -45.8982 H         1 UNK         0.0600 
    197 H197       -2.6956  -26.1428  -44.1982 H         1 UNK         0.0600 
    198 H198       -3.2192  -24.4818  -43.9613 H         1 UNK         0.0600 
    199 H199       -1.6551  -24.8153  -44.6982 H         1 UNK         0.0600 
    200 H200       -1.1023  -24.9155  -47.2390 H         1 UNK         0.3000 
    201 H201       -0.5920  -27.5752  -48.0879 H         1 UNK         0.0600 
    202 H202        1.1707  -25.8393  -47.8632 H         1 UNK         0.0600 
    203 H203        0.4698  -24.9207  -49.1934 H         1 UNK         0.0600 
    204 H204        1.1723  -26.5060  -49.4895 H         1 UNK         0.0600 
    205 H205       -2.2465  -24.8761  -49.7044 H         1 UNK         0.3000 
    206 H206       -2.8022  -26.3300  -52.1627 H         1 UNK         0.0600 
    207 H207       -2.4051  -23.8837  -52.1465 H         1 UNK         0.0600 
    208 H208       -4.0218  -24.2282  -52.7388 H         1 UNK         0.0600 
    209 H209       -3.7915  -23.6413  -51.0942 H         1 UNK         0.0600 
    210 H210       -3.9419  -27.1736  -49.3200 H         1 UNK         0.3000 
    211 H211       -5.6795  -28.2924  -48.5374 H         1 UNK         0.0600 
    212 H212       -6.4051  -28.7420  -51.4817 H         1 UNK         0.0600 
    213 H213       -6.9516  -29.7105  -50.1196 H         1 UNK         0.0600 
    214 H214       -5.2490  -29.6926  -50.5502 H         1 UNK         0.0600 
    215 H215       -6.1024  -25.7976  -48.1344 H         1 UNK         0.3000 
    216 H216       -7.5646  -24.3189  -47.4114 H         1 UNK         0.0600 
    217 H217       -9.9746  -24.6758  -47.2943 H         1 UNK         0.0600 
    218 H218       -9.1624  -26.1602  -46.8238 H         1 UNK         0.0600 
    219 H219       -9.9016  -26.0199  -48.4191 H         1 UNK         0.0600 
    220 H220       -6.1729  -23.9040  -49.5571 H         1 UNK         0.3000 
    221 H221       -5.7963  -22.5325  -51.2395 H         1 UNK         0.0600 
    222 H222       -8.2937  -21.0661  -50.2509 H         1 UNK         0.0600 
    223 H223       -6.6566  -20.8689  -49.6257 H         1 UNK         0.0600 
    224 H224       -7.0309  -20.3812  -51.2653 H         1 UNK         0.0600 
    225 H225       -6.6966  -24.7687  -52.3423 H         1 UNK         0.3000 
    226 H226       -8.7741  -24.2444  -54.3338 H         1 UNK         0.0600 
    227 H227       -8.3342  -26.5490  -53.4602 H         1 UNK         0.0600 
    228 H228       -8.1205  -26.4448  -55.2029 H         1 UNK         0.0600 
    229 H229       -6.7145  -26.5040  -54.1516 H         1 UNK         0.0600 
    230 H230       -8.3237  -22.7010  -55.7534 H         1 UNK         0.3000 
    231 H231       -7.5507  -21.5193  -57.4129 H         1 UNK         0.0600 
    232 H232       -6.9878  -23.6233  -58.5899 H         1 UNK         0.0600 
    233 H233       -5.3800  -23.6304  -57.8678 H         1 UNK         0.0600 
    234 H234       -5.8390  -22.3535  -58.9816 H         1 UNK         0.0600 
    235 H235       -4.6991  -22.6719  -55.5808 H         1 UNK         0.3000 
    236 H236       -3.3119  -20.0808  -55.7599 H         1 UNK         0.0600 
    237 H237       -1.6217  -21.2664  -54.3220 H         1 UNK         0.0600 
    238 H238       -2.6757  -22.6732  -54.2512 H         1 UNK         0.0600 
    239 H239       -1.9816  -22.1663  -55.7892 H         1 UNK         0.0600 
    240 H240       -3.0317  -18.6395  -54.0347 H         1 UNK         0.3000 
    241 H241       -5.1041  -18.6077  -52.0041 H         1 UNK         0.0600 
    242 H242       -3.1407  -18.8561  -48.9399 H         1 UNK         0.3800 
    243 H243       -4.4331  -17.9106  -49.6261 H         1 UNK         0.3800 
    244 H244       -4.5085  -16.5426  -53.1995 H         1 UNK         0.0800 
    245 H245       -4.3224  -16.3568  -51.4918 H         1 UNK         0.0800 
    246 H246       -1.9221  -14.6031  -50.9802 H         1 UNK         0.0800 
    247 H247       -2.4055  -16.1053  -50.2376 H         1 UNK         0.0800 
@<TRIPOS>BOND
     1    1    2 1    
     2    1  127 1    
     3    1  128 1    
     4    1  129 1    
     5    2    3 2    
     6    2    4 am   BACKBONE|DICT|INTERRES
     7    4    5 1    
     8    4  130 1    
     9    5    6 1    
    10    5   65 1    
    11    5  131 1    
    12    6    7 1    
    13    6  132 1    
    14    6  133 1    
    15    7    8 1    
    16    8    9 1    
    17    8  134 1    
    18    8  135 1    
    19    9   10 ar   
    20    9   14 ar   
    21   10   11 ar   
    22   10  136 1    
    23   11   12 ar   
    24   11  126 1    
    25   12   13 ar   
    26   12  137 1    
    27   13   14 ar   
    28   13   15 1    
    29   14  138 1    
    30   15   16 1    
    31   15  139 1    
    32   15  140 1    
    33   16   17 1    
    34   17   18 1    
    35   17  141 1    
    36   17  142 1    
    37   18   19 1    
    38   18   67 1    
    39   18  143 1    
    40   19   20 am   BACKBONE|DICT|INTERRES
    41   19  144 1    
    42   20   21 2    
    43   20   22 1    
    44   22   23 1    
    45   22   24 1    
    46   22  145 1    
    47   23  146 1    
    48   23  147 1    
    49   23  148 1    
    50   24   25 am   BACKBONE|DICT|INTERRES
    51   24  149 1    
    52   25   26 2    
    53   25   27 1    
    54   27   28 1    
    55   27   29 1    
    56   27  150 1    
    57   28  151 1    
    58   28  152 1    
    59   28  153 1    
    60   29   30 am   BACKBONE|DICT|INTERRES
    61   29  154 1    
    62   30   31 2    
    63   30   32 1    
    64   32   33 1    
    65   32   34 1    
    66   32  155 1    
    67   33  156 1    
    68   33  157 1    
    69   33  158 1    
    70   34   35 am   BACKBONE|DICT|INTERRES
    71   34  159 1    
    72   35   36 2    
    73   35   37 1    
    74   37   38 1    
    75   37   39 1    
    76   37  160 1    
    77   38  161 1    
    78   38  162 1    
    79   38  163 1    
    80   39   40 am   BACKBONE|DICT|INTERRES
    81   39  164 1    
    82   40   41 2    
    83   40   42 1    
    84   42   43 1    
    85   42   44 1    
    86   42  165 1    
    87   43  166 1    
    88   43  167 1    
    89   43  168 1    
    90   44   45 am   BACKBONE|DICT|INTERRES
    91   44  169 1    
    92   45   46 2    
    93   45   47 1    
    94   47   48 1    
    95   47   49 1    
    96   47  170 1    
    97   48  171 1    
    98   48  172 1    
    99   48  173 1    
   100   49   50 am   BACKBONE|DICT|INTERRES
   101   49  174 1    
   102   50   51 2    
   103   50   52 1    
   104   52   53 1    
   105   52   54 1    
   106   52  175 1    
   107   53  176 1    
   108   53  177 1    
   109   53  178 1    
   110   54   55 am   BACKBONE|DICT|INTERRES
   111   54  179 1    
   112   55   56 2    
   113   55   57 1    
   114   57   58 1    
   115   57   59 1    
   116   57  180 1    
   117   58  181 1    
   118   58  182 1    
   119   58  183 1    
   120   59   60 am   BACKBONE|DICT|INTERRES
   121   59  184 1    
   122   60   61 2    
   123   60   62 1    
   124   62   63 1    
   125   62   64 1    
   126   62  185 1    
   127   63  186 1    
   128   63  187 1    
   129   63  188 1    
   130   64   65 am   BACKBONE|DICT|INTERRES
   131   64  189 1    
   132   65   66 2    
   133   67   68 2    
   134   67   69 am   BACKBONE|DICT|INTERRES
   135   69   70 1    
   136   69  190 1    
   137   70   71 1    
   138   70   72 1    
   139   70  191 1    
   140   71  192 1    
   141   71  193 1    
   142   71  194 1    
   143   72   73 2    
   144   72   74 am   BACKBONE|DICT|INTERRES
   145   74   75 1    
   146   74  195 1    
   147   75   76 1    
   148   75   77 1    
   149   75  196 1    
   150   76  197 1    
   151   76  198 1    
   152   76  199 1    
   153   77   78 2    
   154   77   79 am   BACKBONE|DICT|INTERRES
   155   79   80 1    
   156   79  200 1    
   157   80   81 1    
   158   80   82 1    
   159   80  201 1    
   160   81  202 1    
   161   81  203 1    
   162   81  204 1    
   163   82   83 2    
   164   82   84 am   BACKBONE|DICT|INTERRES
   165   84   85 1    
   166   84  205 1    
   167   85   86 1    
   168   85   87 1    
   169   85  206 1    
   170   86  207 1    
   171   86  208 1    
   172   86  209 1    
   173   87   88 2    
   174   87   89 am   BACKBONE|DICT|INTERRES
   175   89   90 1    
   176   89  210 1    
   177   90   91 1    
   178   90   92 1    
   179   90  211 1    
   180   91  212 1    
   181   91  213 1    
   182   91  214 1    
   183   92   93 2    
   184   92   94 am   BACKBONE|DICT|INTERRES
   185   94   95 1    
   186   94  215 1    
   187   95   96 1    
   188   95   97 1    
   189   95  216 1    
   190   96  217 1    
   191   96  218 1    
   192   96  219 1    
   193   97   98 2    
   194   97   99 am   BACKBONE|DICT|INTERRES
   195   99  100 1    
   196   99  220 1    
   197  100  101 1    
   198  100  102 1    
   199  100  221 1    
   200  101  222 1    
   201  101  223 1    
   202  101  224 1    
   203  102  103 2    
   204  102  104 am   BACKBONE|DICT|INTERRES
   205  104  105 1    
   206  104  225 1    
   207  105  106 1    
   208  105  107 1    
   209  105  226 1    
   210  106  227 1    
   211  106  228 1    
   212  106  229 1    
   213  107  108 2    
   214  107  109 am   BACKBONE|DICT|INTERRES
   215  109  110 1    
   216  109  230 1    
   217  110  111 1    
   218  110  112 1    
   219  110  231 1    
   220  111  232 1    
   221  111  233 1    
   222  111  234 1    
   223  112  113 2    
   224  112  114 am   BACKBONE|DICT|INTERRES
   225  114  115 1    
   226  114  235 1    
   227  115  116 1    
   228  115  117 1    
   229  115  236 1    
   230  116  237 1    
   231  116  238 1    
   232  116  239 1    
   233  117  118 2    
   234  117  119 am   BACKBONE|DICT|INTERRES
   235  119  120 1    
   236  119  240 1    
   237  120  121 1    
   238  120  124 1    
   239  120  241 1    
   240  121  122 am   BACKBONE|DICT|INTERRES
   241  121  123 2    
   242  122  242 1    
   243  122  243 1    
   244  124  125 1    
   245  124  244 1    
   246  124  245 1    
   247  125  126 1    
   248  126  246 1    
   249  126  247 1    
@<TRIPOS>SUBSTRUCTURE
     1 UNK         1 GROUP             0       ****    0 ROOT    
