@<TRIPOS>MOLECULE
3R540
247   249    1
SMALL
USER_CHARGES


@<TRIPOS>ATOM
      1 CA         -2.0297  -16.2517  -50.5921 C.3       0 UNK        -0.1800 
      2 C          -1.3274  -15.6285  -49.3943 C.2       0 UNK         0.5000 
      3 O          -1.9315  -14.8382  -48.6686 O.2       0 UNK        -0.5000 
      4 N          -0.0556  -15.9874  -49.1700 N.am      1 UNK        -0.5000 
      5 CA          0.7938  -15.4117  -48.1187 C.3       1 UNK         0.1400 
      6 C6          2.2812  -15.8013  -48.2665 C.3       23 UNK        -0.0398 
      7 S7          2.9956  -15.2258  -49.8428 S.3       23 UNK        -0.2404 
      8 C8          4.0394  -16.6420  -50.3234 C.3       23 UNK        -0.0205 
      9 C9          3.2441  -17.9294  -50.4924 C.ar      23 UNK        -0.0193 
     10 C10         2.1795  -17.9873  -51.3953 C.ar      23 UNK        -0.1150 
     11 C11         1.4280  -19.1561  -51.5338 C.ar      23 UNK        -0.0193 
     12 C12         1.7617  -20.2824  -50.7750 C.ar      23 UNK        -0.1150 
     13 C13         2.8382  -20.2448  -49.8820 C.ar      23 UNK        -0.0193 
     14 C14         3.5717  -19.0632  -49.7427 C.ar      23 UNK        -0.1150 
     15 C15         3.2302  -21.4834  -49.0851 C.3       23 UNK        -0.0205 
     16 S16         2.8367  -21.3297  -47.3119 S.3       23 UNK        -0.2404 
     17 C17         1.0176  -21.4004  -47.3438 C.3       23 UNK        -0.0398 
     18 CA          0.4536  -22.7573  -46.8666 C.3       11 UNK         0.1400 
     19 N           0.7673  -23.0310  -45.4602 N.am      11 UNK        -0.5000 
     20 C           0.6333  -24.2343  -44.8832 C.2       10 UNK         0.5000 
     21 O           0.2471  -25.2349  -45.4849 O.2       10 UNK        -0.5000 
     22 CA          0.9167  -24.3286  -43.3708 C.3       10 UNK         0.1400 
     23 CB          2.4081  -24.5968  -43.1219 C.3       10 UNK        -0.1800 
     24 N           0.5144  -23.1368  -42.6227 N.am      10 UNK        -0.5000 
     25 C          -0.7061  -22.5817  -42.6231 C.2       9 UNK         0.5000 
     26 O          -1.6693  -23.0679  -43.2146 O.2       9 UNK        -0.5000 
     27 CA         -0.8773  -21.2379  -41.8856 C.3       9 UNK         0.1400 
     28 CB         -1.6890  -21.4355  -40.5969 C.3       9 UNK        -0.1800 
     29 N           0.3805  -20.5567  -41.5580 N.am      9 UNK        -0.5000 
     30 C           1.2835  -20.1127  -42.4430 C.2       8 UNK         0.5000 
     31 O           1.1715  -20.2485  -43.6648 O.2       8 UNK        -0.5000 
     32 CA          2.5569  -19.4936  -41.8369 C.3       8 UNK         0.1400 
     33 CB          3.5040  -20.6026  -41.3492 C.3       8 UNK        -0.1800 
     34 N           3.2788  -18.6579  -42.7925 N.am      8 UNK        -0.5000 
     35 C           2.8594  -17.4695  -43.2381 C.2       7 UNK         0.5000 
     36 O           1.8391  -16.9014  -42.8369 O.2       7 UNK        -0.5000 
     37 CA          3.7371  -16.8181  -44.3164 C.3       7 UNK         0.1400 
     38 CB          3.6586  -17.6086  -45.6341 C.3       7 UNK        -0.1800 
     39 N           3.2820  -15.4492  -44.5362 N.am      7 UNK        -0.5000 
     40 C           4.0601  -14.3647  -44.6305 C.2       6 UNK         0.5000 
     41 O           5.2907  -14.4071  -44.6511 O.2       6 UNK        -0.5000 
     42 CA          3.3518  -12.9974  -44.7033 C.3       6 UNK         0.1400 
     43 CB          3.3642  -12.4530  -46.1408 C.3       6 UNK        -0.1800 
     44 N           1.9640  -13.0785  -44.2525 N.am      6 UNK        -0.5000 
     45 C           1.5228  -12.8386  -43.0124 C.2       5 UNK         0.5000 
     46 O           2.2472  -12.4527  -42.0932 O.2       5 UNK        -0.5000 
     47 CA          0.0173  -13.0903  -42.7688 C.3       5 UNK         0.1400 
     48 CB         -0.5467  -12.2969  -41.5720 C.3       5 UNK        -0.1800 
     49 N          -0.7991  -12.8911  -43.9731 N.am      5 UNK        -0.5000 
     50 C          -0.9970  -11.7531  -44.6573 C.2       4 UNK         0.5000 
     51 O          -0.5725  -10.6537  -44.3005 O.2       4 UNK        -0.5000 
     52 CA         -1.7722  -11.8590  -45.9888 C.3       4 UNK         0.1400 
     53 CB         -0.8126  -11.6693  -47.1741 C.3       4 UNK        -0.1800 
     54 N          -2.4761  -13.1326  -46.1574 N.am      4 UNK        -0.5000 
     55 C          -3.6031  -13.4758  -45.5183 C.2       3 UNK         0.5000 
     56 O          -4.2188  -12.7239  -44.7622 O.2       3 UNK        -0.5000 
     57 CA         -4.0990  -14.9178  -45.7297 C.3       3 UNK         0.1400 
     58 CB         -5.0106  -15.0125  -46.9629 C.3       3 UNK        -0.1800 
     59 N          -2.9906  -15.8645  -45.8687 N.am      3 UNK        -0.5000 
     60 C          -2.1984  -16.2567  -44.8602 C.2       2 UNK         0.5000 
     61 O          -2.3344  -15.8799  -43.6968 O.2       2 UNK        -0.5000 
     62 CA         -1.0372  -17.2007  -45.2215 C.3       2 UNK         0.1400 
     63 CB         -1.5334  -18.6522  -45.2644 C.3       2 UNK        -0.1800 
     64 N          -0.4019  -16.8472  -46.4954 N.am      2 UNK        -0.5000 
     65 C           0.2943  -15.7178  -46.6920 C.2       1 UNK         0.5000 
     66 O           0.5258  -14.9052  -45.7987 O.2       1 UNK        -0.5000 
     67 C          -1.0619  -22.8301  -47.1540 C.2       11 UNK         0.5000 
     68 O          -1.4461  -23.1916  -48.2681 O.2       11 UNK        -0.5000 
     69 N          -1.8977  -22.4797  -46.1657 N.am      12 UNK        -0.5000 
     70 CA         -3.3540  -22.5933  -46.2524 C.3       12 UNK         0.1400 
     71 CB         -4.0255  -21.6075  -45.2857 C.3       12 UNK        -0.1800 
     72 C          -3.8162  -24.0347  -45.9896 C.2       12 UNK         0.5000 
     73 O          -4.7158  -24.5109  -46.6793 O.2       12 UNK        -0.5000 
     74 N          -3.1576  -24.7264  -45.0478 N.am      13 UNK        -0.5000 
     75 CA         -3.3668  -26.1476  -44.7503 C.3       13 UNK         0.1400 
     76 CB         -2.5574  -26.5342  -43.5042 C.3       13 UNK        -0.1800 
     77 C          -3.0140  -27.0656  -45.9386 C.2       13 UNK         0.5000 
     78 O          -3.6951  -28.0668  -46.1599 O.2       13 UNK        -0.5000 
     79 N          -1.9931  -26.6731  -46.7136 N.am      14 UNK        -0.5000 
     80 CA         -1.6028  -27.2814  -47.9881 C.3       14 UNK         0.1400 
     81 CB         -0.1803  -26.8142  -48.3378 C.3       14 UNK        -0.1800 
     82 C          -2.5698  -26.9682  -49.1520 C.2       14 UNK         0.5000 
     83 O          -2.3918  -27.5197  -50.2384 O.2       14 UNK        -0.5000 
     84 N          -3.5542  -26.0860  -48.9183 N.am      15 UNK        -0.5000 
     85 CA         -4.5807  -25.6086  -49.8499 C.3       15 UNK         0.1400 
     86 CB         -5.4713  -26.7671  -50.3455 C.3       15 UNK        -0.1800 
     87 C          -4.0280  -24.7394  -50.9979 C.2       15 UNK         0.5000 
     88 O          -4.7041  -24.5809  -52.0150 O.2       15 UNK        -0.5000 
     89 N          -2.8303  -24.1668  -50.8122 N.am      16 UNK        -0.5000 
     90 CA         -2.2062  -23.2445  -51.7558 C.3       16 UNK         0.1400 
     91 CB         -0.6750  -23.3725  -51.6759 C.3       16 UNK        -0.1800 
     92 C          -2.6887  -21.8189  -51.4601 C.2       16 UNK         0.5000 
     93 O          -3.4605  -21.2599  -52.2361 O.2       16 UNK        -0.5000 
     94 N          -2.2911  -21.2813  -50.2979 N.am      17 UNK        -0.5000 
     95 CA         -2.6348  -19.9293  -49.8395 C.3       17 UNK         0.1400 
     96 CB         -1.6025  -19.4548  -48.8084 C.3       17 UNK        -0.1800 
     97 C          -4.0725  -19.7925  -49.3024 C.2       17 UNK         0.5000 
     98 O          -4.4516  -18.7116  -48.8518 O.2       17 UNK        -0.5000 
     99 N          -4.8590  -20.8733  -49.3917 N.am      18 UNK        -0.5000 
    100 CA        -6.3120  -20.8637  -49.2295 C.3       18 UNK         0.1400 
    101 CB        -6.8137  -22.3143  -49.1710 C.3       18 UNK        -0.1800 
    102 C         -7.0214  -20.0821  -50.3575 C.2       18 UNK         0.5000 
    103 O         -8.1333  -19.5971  -50.1457 O.2       18 UNK        -0.5000 
    104 N         -6.3585  -19.9521  -51.5153 N.am      19 UNK        -0.5000 
    105 CA        -6.7358  -19.0726  -52.6131 C.3       19 UNK         0.1400 
    106 CB        -6.8356  -19.9026  -53.9026 C.3       19 UNK        -0.1800 
    107 C         -5.6499  -17.9977  -52.7620 C.2       19 UNK         0.5000 
    108 O         -4.4617  -18.3068  -52.6458 O.2       19 UNK        -0.5000 
    109 N         -6.0620  -16.7634  -53.0776 N.am      20 UNK        -0.5000 
    110 CA        -5.1614  -15.6304  -53.3262 C.3       20 UNK         0.1400 
    111 CB        -5.9900  -14.3404  -53.4197 C.3       20 UNK        -0.1800 
    112 C         -4.2909  -15.8076  -54.5880 C.2       20 UNK         0.5000 
    113 O         -3.2034  -15.2364  -54.6663 O.2       20 UNK        -0.5000 
    114 N         -4.7789  -16.6176  -55.5373 N.am      21 UNK        -0.5000 
    115 CA        -4.0862  -17.0059  -56.7656 C.3       21 UNK         0.1400 
    116 CB        -5.1376  -17.4773  -57.7839 C.3       21 UNK        -0.1800 
    117 C         -3.0109  -18.0941  -56.5552 C.2       21 UNK         0.5000 
    118 O         -2.2834  -18.3958  -57.5018 O.2       21 UNK        -0.5000 
    119 N         -2.9302  -18.6744  -55.3474 N.am      22 UNK        -0.5000 
    120 CA        -2.0101  -19.7622  -54.9684 C.3       22 UNK         0.1400 
    121 C         -2.3922  -21.1673  -55.5336 C.2       22 UNK         0.5000 
    122 N         -3.5699  -21.3481  -56.1199 N.am      22 UNK        -0.7600 
    123 O         -1.6267  -22.1204  -55.4224 O.2       22 UNK        -0.5000 
    124 C124       -0.5157  -19.3837  -55.1938 C.3       23 UNK        -0.0398 
    125 S125        0.6450  -20.1306  -53.9996 S.3       23 UNK        -0.2404 
    126 C126        0.2525  -19.1892  -52.4960 C.3       23 UNK        -0.0205 
    127 H127       -2.2120  -15.4937  -51.3535 H         1 UNK         0.0600 
    128 H128       -2.9901  -16.6712  -50.2918 H         1 UNK         0.0600 
    129 H129       -1.4358  -17.0476  -51.0398 H         1 UNK         0.0600 
    130 H130        0.4072  -16.6221  -49.8047 H         1 UNK         0.3000 
    131 H131        0.7357  -14.3279  -48.2334 H         1 UNK         0.0600 
    132 H132        2.8787  -15.3653  -47.4653 H         1 UNK         0.0800 
    133 H133        2.3917  -16.8817  -48.1780 H         1 UNK         0.0800 
    134 H134        4.5387  -16.4097  -51.2648 H         1 UNK         0.0800 
    135 H135        4.8274  -16.7658  -49.5788 H         1 UNK         0.0800 
    136 H136        1.9314  -17.1137  -51.9822 H         1 UNK         0.1150 
    137 H137        1.1881  -21.1902  -50.8906 H         1 UNK         0.1150 
    138 H138        4.3986  -19.0307  -49.0470 H         1 UNK         0.1150 
    139 H139        2.7460  -22.3746  -49.4876 H         1 UNK         0.0800 
    140 H140        4.3033  -21.6476  -49.1917 H         1 UNK         0.0800 
    141 H141        0.6809  -21.1887  -48.3575 H         1 UNK         0.0800 
    142 H142        0.6457  -20.5868  -46.7225 H         1 UNK         0.0800 
    143 H143        0.9203  -23.5403  -47.4686 H         1 UNK         0.0600 
    144 H144        1.0828  -22.2466  -44.9026 H         1 UNK         0.3000 
    145 H145        0.3468  -25.1710  -42.9762 H         1 UNK         0.0600 
    146 H146        2.6101  -24.7534  -42.0621 H         1 UNK         0.0600 
    147 H147        2.7370  -25.4929  -43.6499 H         1 UNK         0.0600 
    148 H148        3.0287  -23.7674  -43.4638 H         1 UNK         0.0600 
    149 H149        1.2419  -22.6634  -42.1095 H         1 UNK         0.3000 
    150 H150       -1.4449  -20.5827  -42.5488 H         1 UNK         0.0600 
    151 H151       -1.1602  -22.0664  -39.8814 H         1 UNK         0.0600 
    152 H152       -2.6485  -21.9104  -40.8069 H         1 UNK         0.0600 
    153 H153       -1.9009  -20.4817  -40.1132 H         1 UNK         0.0600 
    154 H154        0.5640  -20.4237  -40.5737 H         1 UNK         0.3000 
    155 H155        2.2699  -18.8735  -40.9849 H         1 UNK         0.0600 
    156 H156        3.8130  -21.2565  -42.1660 H         1 UNK         0.0600 
    157 H157        3.0278  -21.2263  -40.5917 H         1 UNK         0.0600 
    158 H158        4.4034  -20.1825  -40.8983 H         1 UNK         0.0600 
    159 H159        4.1056  -19.0667  -43.2020 H         1 UNK         0.3000 
    160 H160        4.7672  -16.8192  -43.9541 H         1 UNK         0.0600 
    161 H161        2.6288  -17.7130  -45.9762 H         1 UNK         0.0600 
    162 H162        4.0600  -18.6157  -45.5158 H         1 UNK         0.0600 
    163 H163        4.2384  -17.1262  -46.4207 H         1 UNK         0.0600 
    164 H164        2.2792  -15.3212  -44.4677 H         1 UNK         0.3000 
    165 H165        3.9075  -12.3030  -44.0699 H         1 UNK         0.0600 
    166 H166        2.9466  -11.4468  -46.1806 H         1 UNK         0.0600 
    167 H167        4.3807  -12.3988  -46.5328 H         1 UNK         0.0600 
    168 H168        2.7823  -13.0792  -46.8168 H         1 UNK         0.0600 
    169 H169        1.3018  -13.4714  -44.9165 H         1 UNK         0.3000 
    170 H170       -0.0691  -14.1507  -42.5265 H         1 UNK         0.0600 
    171 H171       -0.0412  -12.5753  -40.6467 H         1 UNK         0.0600 
    172 H172       -0.4206  -11.2217  -41.7003 H         1 UNK         0.0600 
    173 H173       -1.6091  -12.4970  -41.4328 H         1 UNK         0.0600 
    174 H174       -1.1735  -13.7386  -44.3773 H         1 UNK         0.3000 
    175 H175       -2.5075  -11.0520  -46.0100 H         1 UNK         0.0600 
    176 H176       -0.3524  -10.6808  -47.1486 H         1 UNK         0.0600 
    177 H177       -0.0068  -12.4024  -47.1569 H         1 UNK         0.0600 
    178 H178       -1.3334  -11.7617  -48.1275 H         1 UNK         0.0600 
    179 H179       -2.0780  -13.7928  -46.8158 H         1 UNK         0.3000 
    180 H180       -4.6851  -15.2017  -44.8530 H         1 UNK         0.0600 
    181 H181       -4.4896  -14.7253  -47.8765 H         1 UNK         0.0600 
    182 H182       -5.8746  -14.3552  -46.8588 H         1 UNK         0.0600 
    183 H183       -5.3873  -16.0267  -47.0984 H         1 UNK         0.0600 
    184 H184       -2.7830  -16.1761  -46.8067 H         1 UNK         0.3000 
    185 H185       -0.2860  -17.1237  -44.4334 H         1 UNK         0.0600 
    186 H186       -1.9872  -18.9343  -44.3139 H         1 UNK         0.0600 
    187 H187       -2.2858  -18.7967  -46.0390 H         1 UNK         0.0600 
    188 H188       -0.7146  -19.3448  -45.4443 H         1 UNK         0.0600 
    189 H189       -0.5489  -17.4670  -47.2762 H         1 UNK         0.3000 
    190 H190       -1.5171  -22.2574  -45.2557 H         1 UNK         0.3000 
    191 H191       -3.6699  -22.3277  -47.2629 H         1 UNK         0.0600 
    192 H192       -3.7779  -20.5782  -45.5404 H         1 UNK         0.0600 
    193 H193       -5.1116  -21.6963  -45.3346 H         1 UNK         0.0600 
    194 H194       -3.7297  -21.7802  -44.2512 H         1 UNK         0.0600 
    195 H195       -2.4741  -24.2354  -44.4781 H         1 UNK         0.3000 
    196 H196       -4.4264  -26.2855  -44.5257 H         1 UNK         0.0600 
    197 H197       -2.7760  -27.5591  -43.2020 H         1 UNK         0.0600 
    198 H198       -2.7945  -25.8867  -42.6597 H         1 UNK         0.0600 
    199 H199       -1.4854  -26.4703  -43.6871 H         1 UNK         0.0600 
    200 H200       -1.4230  -25.8955  -46.3970 H         1 UNK         0.3000 
    201 H201       -1.5868  -28.3656  -47.8615 H         1 UNK         0.0600 
    202 H202        0.1702  -27.2733  -49.2631 H         1 UNK         0.0600 
    203 H203        0.5279  -27.0867  -47.5551 H         1 UNK         0.0600 
    204 H204       -0.1344  -25.7328  -48.4701 H         1 UNK         0.0600 
    205 H205       -3.6267  -25.6960  -47.9861 H         1 UNK         0.3000 
    206 H206       -5.2200  -24.9457  -49.2671 H         1 UNK         0.0600 
    207 H207       -5.8457  -27.3607  -49.5113 H         1 UNK         0.0600 
    208 H208       -6.3392  -26.3889  -50.8868 H         1 UNK         0.0600 
    209 H209       -4.9341  -27.4344  -51.0196 H         1 UNK         0.0600 
    210 H210       -2.3578  -24.2970  -49.9259 H         1 UNK         0.3000 
    211 H211       -2.5043  -23.4949  -52.7765 H         1 UNK         0.0600 
    212 H212       -0.2896  -23.1783  -50.6752 H         1 UNK         0.0600 
    213 H213       -0.1929  -22.6727  -52.3595 H         1 UNK         0.0600 
    214 H214       -0.3548  -24.3743  -51.9621 H         1 UNK         0.0600 
    215 H215       -1.7650  -21.8645  -49.6551 H         1 UNK         0.3000 
    216 H216       -2.5762  -19.2577  -50.6979 H         1 UNK         0.0600 
    217 H217       -1.8338  -18.4481  -48.4637 H         1 UNK         0.0600 
    218 H218       -0.6015  -19.4246  -49.2362 H         1 UNK         0.0600 
    219 H219       -1.5892  -20.1021  -47.9340 H         1 UNK         0.0600 
    220 H220       -4.4540  -21.7095  -49.7838 H         1 UNK         0.3000 
    221 H221       -6.5496  -20.3753  -48.2822 H         1 UNK         0.0600 
    222 H222       -6.5927  -22.8544  -50.0926 H         1 UNK         0.0600 
    223 H223       -6.3572  -22.8561  -48.3424 H         1 UNK         0.0600 
    224 H224       -7.8938  -22.3472  -49.0228 H         1 UNK         0.0600 
    225 H225       -5.4248  -20.3403  -51.5929 H         1 UNK         0.3000 
    226 H226       -7.6969  -18.5913  -52.4212 H         1 UNK         0.0600 
    227 H227       -7.1055  -19.2767  -54.7540 H         1 UNK         0.0600 
    228 H228       -5.8903  -20.3939  -54.1390 H         1 UNK         0.0600 
    229 H229       -7.5985  -20.6760  -53.8124 H         1 UNK         0.0600 
    230 H230       -7.0515  -16.5787  -53.1634 H         1 UNK         0.3000 
    231 H231       -4.4868  -15.5422  -52.4723 H         1 UNK         0.0600 
    232 H232       -6.7007  -14.3769  -54.2463 H         1 UNK         0.0600 
    233 H233       -5.3468  -13.4737  -53.5778 H         1 UNK         0.0600 
    234 H234       -6.5500  -14.1636  -52.5013 H         1 UNK         0.0600 
    235 H235       -5.6875  -17.0290  -55.3852 H         1 UNK         0.3000 
    236 H236       -3.5831  -16.1277  -57.1756 H         1 UNK         0.0600 
    237 H237       -5.8680  -16.6941  -57.9876 H         1 UNK         0.0600 
    238 H238       -4.6735  -17.7395  -58.7356 H         1 UNK         0.0600 
    239 H239       -5.6771  -18.3561  -57.4288 H         1 UNK         0.0600 
    240 H240       -3.5596  -18.3728  -54.6131 H         1 UNK         0.3000 
    241 H241       -2.1601  -19.8481  -53.8947 H         1 UNK         0.0600 
    242 H242       -4.2180  -20.5848  -56.2155 H         1 UNK         0.3800 
    243 H243       -3.8110  -22.2610  -56.4719 H         1 UNK         0.3800 
    244 H244       -0.1990  -19.6550  -56.2022 H         1 UNK         0.0800 
    245 H245       -0.3848  -18.3024  -55.1323 H         1 UNK         0.0800 
    246 H246       -0.0431  -18.1738  -52.7634 H         1 UNK         0.0800 
    247 H247       -0.6078  -19.6422  -52.0062 H         1 UNK         0.0800 
@<TRIPOS>BOND
     1    1    2 1    
     2    1  127 1    
     3    1  128 1    
     4    1  129 1    
     5    2    3 2    
     6    2    4 am   BACKBONE|DICT|INTERRES
     7    4    5 1    
     8    4  130 1    
     9    5    6 1    
    10    5   65 1    
    11    5  131 1    
    12    6    7 1    
    13    6  132 1    
    14    6  133 1    
    15    7    8 1    
    16    8    9 1    
    17    8  134 1    
    18    8  135 1    
    19    9   10 ar   
    20    9   14 ar   
    21   10   11 ar   
    22   10  136 1    
    23   11   12 ar   
    24   11  126 1    
    25   12   13 ar   
    26   12  137 1    
    27   13   14 ar   
    28   13   15 1    
    29   14  138 1    
    30   15   16 1    
    31   15  139 1    
    32   15  140 1    
    33   16   17 1    
    34   17   18 1    
    35   17  141 1    
    36   17  142 1    
    37   18   19 1    
    38   18   67 1    
    39   18  143 1    
    40   19   20 am   BACKBONE|DICT|INTERRES
    41   19  144 1    
    42   20   21 2    
    43   20   22 1    
    44   22   23 1    
    45   22   24 1    
    46   22  145 1    
    47   23  146 1    
    48   23  147 1    
    49   23  148 1    
    50   24   25 am   BACKBONE|DICT|INTERRES
    51   24  149 1    
    52   25   26 2    
    53   25   27 1    
    54   27   28 1    
    55   27   29 1    
    56   27  150 1    
    57   28  151 1    
    58   28  152 1    
    59   28  153 1    
    60   29   30 am   BACKBONE|DICT|INTERRES
    61   29  154 1    
    62   30   31 2    
    63   30   32 1    
    64   32   33 1    
    65   32   34 1    
    66   32  155 1    
    67   33  156 1    
    68   33  157 1    
    69   33  158 1    
    70   34   35 am   BACKBONE|DICT|INTERRES
    71   34  159 1    
    72   35   36 2    
    73   35   37 1    
    74   37   38 1    
    75   37   39 1    
    76   37  160 1    
    77   38  161 1    
    78   38  162 1    
    79   38  163 1    
    80   39   40 am   BACKBONE|DICT|INTERRES
    81   39  164 1    
    82   40   41 2    
    83   40   42 1    
    84   42   43 1    
    85   42   44 1    
    86   42  165 1    
    87   43  166 1    
    88   43  167 1    
    89   43  168 1    
    90   44   45 am   BACKBONE|DICT|INTERRES
    91   44  169 1    
    92   45   46 2    
    93   45   47 1    
    94   47   48 1    
    95   47   49 1    
    96   47  170 1    
    97   48  171 1    
    98   48  172 1    
    99   48  173 1    
   100   49   50 am   BACKBONE|DICT|INTERRES
   101   49  174 1    
   102   50   51 2    
   103   50   52 1    
   104   52   53 1    
   105   52   54 1    
   106   52  175 1    
   107   53  176 1    
   108   53  177 1    
   109   53  178 1    
   110   54   55 am   BACKBONE|DICT|INTERRES
   111   54  179 1    
   112   55   56 2    
   113   55   57 1    
   114   57   58 1    
   115   57   59 1    
   116   57  180 1    
   117   58  181 1    
   118   58  182 1    
   119   58  183 1    
   120   59   60 am   BACKBONE|DICT|INTERRES
   121   59  184 1    
   122   60   61 2    
   123   60   62 1    
   124   62   63 1    
   125   62   64 1    
   126   62  185 1    
   127   63  186 1    
   128   63  187 1    
   129   63  188 1    
   130   64   65 am   BACKBONE|DICT|INTERRES
   131   64  189 1    
   132   65   66 2    
   133   67   68 2    
   134   67   69 am   BACKBONE|DICT|INTERRES
   135   69   70 1    
   136   69  190 1    
   137   70   71 1    
   138   70   72 1    
   139   70  191 1    
   140   71  192 1    
   141   71  193 1    
   142   71  194 1    
   143   72   73 2    
   144   72   74 am   BACKBONE|DICT|INTERRES
   145   74   75 1    
   146   74  195 1    
   147   75   76 1    
   148   75   77 1    
   149   75  196 1    
   150   76  197 1    
   151   76  198 1    
   152   76  199 1    
   153   77   78 2    
   154   77   79 am   BACKBONE|DICT|INTERRES
   155   79   80 1    
   156   79  200 1    
   157   80   81 1    
   158   80   82 1    
   159   80  201 1    
   160   81  202 1    
   161   81  203 1    
   162   81  204 1    
   163   82   83 2    
   164   82   84 am   BACKBONE|DICT|INTERRES
   165   84   85 1    
   166   84  205 1    
   167   85   86 1    
   168   85   87 1    
   169   85  206 1    
   170   86  207 1    
   171   86  208 1    
   172   86  209 1    
   173   87   88 2    
   174   87   89 am   BACKBONE|DICT|INTERRES
   175   89   90 1    
   176   89  210 1    
   177   90   91 1    
   178   90   92 1    
   179   90  211 1    
   180   91  212 1    
   181   91  213 1    
   182   91  214 1    
   183   92   93 2    
   184   92   94 am   BACKBONE|DICT|INTERRES
   185   94   95 1    
   186   94  215 1    
   187   95   96 1    
   188   95   97 1    
   189   95  216 1    
   190   96  217 1    
   191   96  218 1    
   192   96  219 1    
   193   97   98 2    
   194   97   99 am   BACKBONE|DICT|INTERRES
   195   99  100 1    
   196   99  220 1    
   197  100  101 1    
   198  100  102 1    
   199  100  221 1    
   200  101  222 1    
   201  101  223 1    
   202  101  224 1    
   203  102  103 2    
   204  102  104 am   BACKBONE|DICT|INTERRES
   205  104  105 1    
   206  104  225 1    
   207  105  106 1    
   208  105  107 1    
   209  105  226 1    
   210  106  227 1    
   211  106  228 1    
   212  106  229 1    
   213  107  108 2    
   214  107  109 am   BACKBONE|DICT|INTERRES
   215  109  110 1    
   216  109  230 1    
   217  110  111 1    
   218  110  112 1    
   219  110  231 1    
   220  111  232 1    
   221  111  233 1    
   222  111  234 1    
   223  112  113 2    
   224  112  114 am   BACKBONE|DICT|INTERRES
   225  114  115 1    
   226  114  235 1    
   227  115  116 1    
   228  115  117 1    
   229  115  236 1    
   230  116  237 1    
   231  116  238 1    
   232  116  239 1    
   233  117  118 2    
   234  117  119 am   BACKBONE|DICT|INTERRES
   235  119  120 1    
   236  119  240 1    
   237  120  121 1    
   238  120  124 1    
   239  120  241 1    
   240  121  122 am   BACKBONE|DICT|INTERRES
   241  121  123 2    
   242  122  242 1    
   243  122  243 1    
   244  124  125 1    
   245  124  244 1    
   246  124  245 1    
   247  125  126 1    
   248  126  246 1    
   249  126  247 1    
@<TRIPOS>SUBSTRUCTURE
     1 UNK         1 GROUP             0       ****    0 ROOT    
