@<TRIPOS>MOLECULE
3R540
247   249    1
SMALL
USER_CHARGES


@<TRIPOS>ATOM
      1 CA          6.9969  -15.2948  -46.3735 C.3       0 UNK        -0.1800 
      2 C           5.7922  -14.4102  -46.0911 C.2       0 UNK         0.5000 
      3 O           5.5953  -13.9858  -44.9528 O.2       0 UNK        -0.5000 
      4 N           4.9936  -14.1084  -47.1239 N.am      1 UNK        -0.5000 
      5 CA          3.7299  -13.3542  -47.0535 C.3       1 UNK         0.1400 
      6 C6          2.8727  -13.5325  -48.3295 C.3       23 UNK        -0.0398 
      7 S7          2.2973  -15.2547  -48.4776 S.3       23 UNK        -0.2404 
      8 C8          1.3921  -15.1977  -50.0530 C.3       23 UNK        -0.0205 
      9 C9          0.5496  -16.4517  -50.2150 C.ar      23 UNK        -0.0193 
     10 C10        -0.8279  -16.4126  -49.9806 C.ar      23 UNK        -0.1150 
     11 C11        -1.5939  -17.5801  -50.0468 C.ar      23 UNK        -0.0193 
     12 C12        -0.9647  -18.7941  -50.3424 C.ar      23 UNK        -0.1150 
     13 C13         0.4071  -18.8425  -50.6028 C.ar      23 UNK        -0.0193 
     14 C14         1.1565  -17.6640  -50.5531 C.ar      23 UNK        -0.1150 
     15 C15         1.0808  -20.1774  -50.8906 C.3       23 UNK        -0.0205 
     16 S16         2.3935  -20.5867  -49.6887 S.3       23 UNK        -0.2404 
     17 C17         1.5633  -20.3386  -48.0798 C.3       23 UNK        -0.0398 
     18 CA          1.0460  -21.6426  -47.4356 C.3       11 UNK         0.1400 
     19 N           0.7814  -21.4503  -46.0108 N.am      11 UNK        -0.5000 
     20 C           0.4899  -22.4221  -45.1378 C.2       10 UNK         0.5000 
     21 O           0.4616  -23.6180  -45.4261 O.2       10 UNK        -0.5000 
     22 CA          0.1151  -21.9688  -43.7163 C.3       10 UNK         0.1400 
     23 CB          1.3689  -21.6569  -42.8853 C.3       10 UNK        -0.1800 
     24 N          -0.7663  -20.8007  -43.7339 N.am      10 UNK        -0.5000 
     25 C          -2.0300  -20.8176  -44.1808 C.2       9 UNK         0.5000 
     26 O          -2.5982  -21.8320  -44.5843 O.2       9 UNK        -0.5000 
     27 CA         -2.7693  -19.4687  -44.2192 C.3       9 UNK         0.1400 
     28 CB         -3.3890  -19.1549  -42.8500 C.3       9 UNK        -0.1800 
     29 N          -1.9050  -18.3641  -44.6441 N.am      9 UNK        -0.5000 
     30 C          -1.4109  -18.2490  -45.8866 C.2       8 UNK         0.5000 
     31 O          -1.6419  -19.0574  -46.7836 O.2       8 UNK        -0.5000 
     32 CA         -0.4645  -17.0703  -46.1732 C.3       8 UNK         0.1400 
     33 CB         -1.2560  -15.7951  -46.4923 C.3       8 UNK        -0.1800 
     34 N           0.4863  -16.8042  -45.0935 N.am      8 UNK        -0.5000 
     35 C           1.4109  -17.6773  -44.6685 C.2       7 UNK         0.5000 
     36 O           1.5044  -18.8311  -45.0864 O.2       7 UNK        -0.5000 
     37 CA          2.3865  -17.1914  -43.5893 C.3       7 UNK         0.1400 
     38 CB          3.4829  -16.3193  -44.2098 C.3       7 UNK        -0.1800 
     39 N           1.6913  -16.4331  -42.5538 N.am      7 UNK        -0.5000 
     40 C           1.2601  -16.9587  -41.4004 C.2       6 UNK         0.5000 
     41 O           1.4650  -18.1232  -41.0562 O.2       6 UNK        -0.5000 
     42 CA          0.4416  -16.0335  -40.4795 C.3       6 UNK         0.1400 
     43 CB          1.3689  -15.2856  -39.5096 C.3       6 UNK        -0.1800 
     44 N          -0.3788  -15.0598  -41.2023 N.am      6 UNK        -0.5000 
     45 C          -1.3637  -15.3690  -42.0577 C.2       5 UNK         0.5000 
     46 O          -1.6855  -16.5197  -42.3502 O.2       5 UNK        -0.5000 
     47 CA         -2.0863  -14.1948  -42.7397 C.3       5 UNK         0.1400 
     48 CB         -3.2761  -13.7340  -41.8849 C.3       5 UNK        -0.1800 
     49 N          -1.2356  -13.0397  -43.0384 N.am      5 UNK        -0.5000 
     50 C          -0.0774  -13.0457  -43.7144 C.2       4 UNK         0.5000 
     51 O           0.4779  -14.0708  -44.1208 O.2       4 UNK        -0.5000 
     52 CA          0.5728  -11.6755  -43.9947 C.3       4 UNK         0.1400 
     53 CB         -0.1538  -10.4718  -43.3515 C.3       4 UNK        -0.1800 
     54 N           1.9929  -11.6621  -43.6449 N.am      4 UNK        -0.5000 
     55 C           2.5428  -11.8687  -42.4382 C.2       3 UNK         0.5000 
     56 O           1.8850  -12.1094  -41.4245 O.2       3 UNK        -0.5000 
     57 CA          4.0841  -11.8075  -42.3360 C.3       3 UNK         0.1400 
     58 CB          4.6412  -13.1374  -41.8032 C.3       3 UNK        -0.1800 
     59 N           4.7383  -11.5013  -43.6120 N.am      3 UNK        -0.5000 
     60 C           4.8629  -10.2762  -44.1486 C.2       2 UNK         0.5000 
     61 O           4.5381   -9.2423  -43.5646 O.2       2 UNK        -0.5000 
     62 CA          5.3876  -10.1939  -45.6017 C.3       2 UNK         0.1400 
     63 CB          6.9013   -9.9346  -45.6148 C.3       2 UNK        -0.1800 
     64 N           5.1044  -11.4068  -46.3747 N.am      2 UNK        -0.5000 
     65 C           3.8758  -11.8693  -46.6457 C.2       1 UNK         0.5000 
     66 O           2.8616  -11.1899  -46.4875 O.2       1 UNK        -0.5000 
     67 C          -0.1856  -22.2134  -48.1705 C.2       11 UNK         0.5000 
     68 O          -0.0429  -23.1747  -48.9249 O.2       11 UNK        -0.5000 
     69 N          -1.3773  -21.6586  -47.9022 N.am      12 UNK        -0.5000 
     70 CA         -2.6543  -22.1490  -48.4240 C.3       12 UNK         0.1400 
     71 CB         -3.7882  -21.1977  -48.0223 C.3       12 UNK        -0.1800 
     72 C          -2.9732  -23.5841  -47.9735 C.2       12 UNK         0.5000 
     73 O          -3.4139  -24.3859  -48.7961 O.2       12 UNK        -0.5000 
     74 N          -2.7110  -23.8959  -46.6959 N.am      13 UNK        -0.5000 
     75 CA         -2.8521  -25.2372  -46.1283 C.3       13 UNK         0.1400 
     76 CB         -2.6714  -25.1840  -44.6041 C.3       13 UNK        -0.1800 
     77 C          -1.8862  -26.2520  -46.7663 C.2       13 UNK         0.5000 
     78 O          -2.3150  -27.3503  -47.1204 O.2       13 UNK        -0.5000 
     79 N          -0.6193  -25.8536  -46.9545 N.am      14 UNK        -0.5000 
     80 CA          0.4092  -26.6398  -47.6432 C.3       14 UNK         0.1400 
     81 CB          1.7717  -25.9463  -47.4945 C.3       14 UNK        -0.1800 
     82 C           0.0806  -26.8903  -49.1286 C.2       14 UNK         0.5000 
     83 O           0.3437  -27.9808  -49.6360 O.2       14 UNK        -0.5000 
     84 N          -0.5303  -25.8937  -49.7822 N.am      15 UNK        -0.5000 
     85 CA         -1.0519  -25.9652  -51.1479 C.3       15 UNK         0.1400 
     86 CB         -1.1937  -24.5348  -51.6980 C.3       15 UNK        -0.1800 
     87 C          -2.3944  -26.7190  -51.2610 C.2       15 UNK         0.5000 
     88 O          -2.9022  -26.8556  -52.3734 O.2       15 UNK        -0.5000 
     89 N          -2.9734  -27.1569  -50.1313 N.am      16 UNK        -0.5000 
     90 CA         -4.2728  -27.8294  -50.0006 C.3       16 UNK         0.1400 
     91 CB         -4.2103  -29.2461  -50.6078 C.3       16 UNK        -0.1800 
     92 C          -5.4470  -26.9891  -50.5515 C.2       16 UNK         0.5000 
     93 O          -6.3944  -27.5391  -51.1154 O.2       16 UNK        -0.5000 
     94 N          -5.3366  -25.6614  -50.3971 N.am      17 UNK        -0.5000 
     95 CA         -6.2342  -24.6100  -50.8825 C.3       17 UNK         0.1400 
     96 CB         -7.6179  -24.7111  -50.2099 C.3       17 UNK        -0.1800 
     97 C          -6.3335  -24.5064  -52.4213 C.2       17 UNK         0.5000 
     98 O          -7.2226  -23.8130  -52.9180 O.2       17 UNK        -0.5000 
     99 N          -5.4093  -25.1393  -53.1612 N.am      18 UNK        -0.5000 
    100 CA        -5.3712  -25.1519  -54.6296 C.3       18 UNK         0.1400 
    101 CB        -4.5907  -26.3893  -55.1011 C.3       18 UNK        -0.1800 
    102 C         -4.7893  -23.8638  -55.2531 C.2       18 UNK         0.5000 
    103 O         -4.6597  -23.7871  -56.4752 O.2       18 UNK        -0.5000 
    104 N         -4.4517  -22.8743  -54.4156 N.am      19 UNK        -0.5000 
    105 CA        -3.8871  -21.5740  -54.7850 C.3       19 UNK         0.1400 
    106 CB        -3.3626  -20.9063  -53.5050 C.3       19 UNK        -0.1800 
    107 C         -4.8576  -20.6342  -55.5369 C.2       19 UNK         0.5000 
    108 O         -4.4222  -19.5860  -56.0153 O.2       19 UNK        -0.5000 
    109 N         -6.1449  -21.0055  -55.6169 N.am      20 UNK        -0.5000 
    110 CA        -7.2606  -20.3574  -56.3238 C.3       20 UNK         0.1400 
    111 CB        -6.9702  -20.1921  -57.8278 C.3       20 UNK        -0.1800 
    112 C         -7.7267  -19.0347  -55.6880 C.2       20 UNK         0.5000 
    113 O         -8.9182  -18.8838  -55.4177 O.2       20 UNK        -0.5000 
    114 N         -6.7855  -18.1257  -55.4066 N.am      21 UNK        -0.5000 
    115 CA        -7.0084  -16.8918  -54.6442 C.3       21 UNK         0.1400 
    116 CB        -5.7982  -15.9655  -54.8367 C.3       21 UNK        -0.1800 
    117 C         -7.2463  -17.1608  -53.1433 C.2       21 UNK         0.5000 
    118 O         -7.8663  -16.3454  -52.4598 O.2       21 UNK        -0.5000 
    119 N         -6.7522  -18.3084  -52.6743 N.am      22 UNK        -0.5000 
    120 CA        -6.8442  -18.8259  -51.3044 C.3       22 UNK         0.1400 
    121 C         -6.9330  -20.3819  -51.2896 C.2       22 UNK         0.5000 
    122 N         -7.4127  -21.0097  -52.3590 N.am      22 UNK        -0.7600 
    123 O         -6.5754  -21.0297  -50.3114 O.2       22 UNK        -0.5000 
    124 C124       -5.7514  -18.2261  -50.3745 C.3       23 UNK        -0.0398 
    125 S125       -4.0600  -18.3839  -51.0406 S.3       23 UNK        -0.2404 
    126 C126       -3.0893  -17.5320  -49.7581 C.3       23 UNK        -0.0205 
    127 H127        7.9160  -14.7721  -46.1092 H         1 UNK         0.0600 
    128 H128        7.0546  -15.5780  -47.4246 H         1 UNK         0.0600 
    129 H129        6.9375  -16.2056  -45.7778 H         1 UNK         0.0600 
    130 H130        5.2170  -14.4812  -48.0358 H         1 UNK         0.3000 
    131 H131        3.1585  -13.7897  -46.2318 H         1 UNK         0.0600 
    132 H132        1.9870  -12.8948  -48.3037 H         1 UNK         0.0800 
    133 H133        3.4357  -13.2520  -49.2210 H         1 UNK         0.0800 
    134 H134        2.0982  -15.1109  -50.8801 H         1 UNK         0.0800 
    135 H135        0.7607  -14.3083  -50.0829 H         1 UNK         0.0800 
    136 H136       -1.2989  -15.4750  -49.7211 H         1 UNK         0.1150 
    137 H137       -1.5479  -19.7041  -50.3631 H         1 UNK         0.1150 
    138 H138        2.2227  -17.6990  -50.7278 H         1 UNK         0.1150 
    139 H139        0.3491  -20.9868  -50.9014 H         1 UNK         0.0800 
    140 H140        1.5151  -20.1464  -51.8905 H         1 UNK         0.0800 
    141 H141        0.7700  -19.5943  -48.1426 H         1 UNK         0.0800 
    142 H142        2.3162  -19.8924  -47.4290 H         1 UNK         0.0800 
    143 H143        1.8401  -22.3891  -47.5052 H         1 UNK         0.0600 
    144 H144        0.8299  -20.4932  -45.6702 H         1 UNK         0.3000 
    145 H145       -0.4176  -22.7904  -43.2327 H         1 UNK         0.0600 
    146 H146        1.1064  -21.3869  -41.8622 H         1 UNK         0.0600 
    147 H147        2.0274  -22.5249  -42.8344 H         1 UNK         0.0600 
    148 H148        1.9442  -20.8336  -43.3096 H         1 UNK         0.0600 
    149 H149       -0.3623  -19.9180  -43.4570 H         1 UNK         0.3000 
    150 H150       -3.5825  -19.5562  -44.9427 H         1 UNK         0.0600 
    151 H151       -4.0766  -19.9441  -42.5433 H         1 UNK         0.0600 
    152 H152       -3.9541  -18.2230  -42.8767 H         1 UNK         0.0600 
    153 H153       -2.6277  -19.0636  -42.0743 H         1 UNK         0.0600 
    154 H154       -1.6744  -17.6685  -43.9401 H         1 UNK         0.3000 
    155 H155        0.1166  -17.3303  -47.0609 H         1 UNK         0.0600 
    156 H156       -1.8210  -15.4479  -45.6301 H         1 UNK         0.0600 
    157 H157       -1.9685  -15.9680  -47.2990 H         1 UNK         0.0600 
    158 H158       -0.5930  -14.9894  -46.8087 H         1 UNK         0.0600 
    159 H159        0.4822  -15.8629  -44.7101 H         1 UNK         0.3000 
    160 H160        2.8685  -18.0719  -43.1588 H         1 UNK         0.0600 
    161 H161        3.0876  -15.3627  -44.5498 H         1 UNK         0.0600 
    162 H162        3.9434  -16.8118  -45.0673 H         1 UNK         0.0600 
    163 H163        4.2752  -16.1176  -43.4896 H         1 UNK         0.0600 
    164 H164        1.4268  -15.4829  -42.7841 H         1 UNK         0.3000 
    165 H165       -0.2313  -16.6638  -39.8946 H         1 UNK         0.0600 
    166 H166        0.7983  -14.6896  -38.7973 H         1 UNK         0.0600 
    167 H167        1.9784  -15.9837  -38.9342 H         1 UNK         0.0600 
    168 H168        2.0478  -14.6161  -40.0395 H         1 UNK         0.0600 
    169 H169       -0.1588  -14.0843  -41.0566 H         1 UNK         0.3000 
    170 H170       -2.4823  -14.5608  -43.6866 H         1 UNK         0.0600 
    171 H171       -3.9431  -14.5679  -41.6609 H         1 UNK         0.0600 
    172 H172       -2.9488  -13.3108  -40.9344 H         1 UNK         0.0600 
    173 H173       -3.8671  -12.9790  -42.4037 H         1 UNK         0.0600 
    174 H174       -1.5900  -12.1449  -42.7334 H         1 UNK         0.3000 
    175 H175        0.5255  -11.5439  -45.0762 H         1 UNK         0.0600 
    176 H176       -0.1869  -10.5424  -42.2637 H         1 UNK         0.0600 
    177 H177        0.3492   -9.5379  -43.6034 H         1 UNK         0.0600 
    178 H178       -1.1785  -10.3854  -43.7148 H         1 UNK         0.0600 
    179 H179        2.6123  -11.4854  -44.4252 H         1 UNK         0.3000 
    180 H180        4.3311  -11.0241  -41.6168 H         1 UNK         0.0600 
    181 H181        4.3734  -13.9703  -42.4529 H         1 UNK         0.0600 
    182 H182        4.2502  -13.3585  -40.8094 H         1 UNK         0.0600 
    183 H183        5.7281  -13.1089  -41.7252 H         1 UNK         0.0600 
    184 H184        5.0519  -12.3065  -44.1488 H         1 UNK         0.3000 
    185 H185        4.8877   -9.3547  -46.0897 H         1 UNK         0.0600 
    186 H186        7.1460   -9.0234  -45.0674 H         1 UNK         0.0600 
    187 H187        7.4536  -10.7540  -45.1528 H         1 UNK         0.0600 
    188 H188        7.2718   -9.8107  -46.6326 H         1 UNK         0.0600 
    189 H189        5.8792  -12.0387  -46.5155 H         1 UNK         0.3000 
    190 H190       -1.4196  -20.8279  -47.3159 H         1 UNK         0.3000 
    191 H191       -2.5877  -22.1511  -49.5137 H         1 UNK         0.0600 
    192 H192       -3.8568  -21.0823  -46.9409 H         1 UNK         0.0600 
    193 H193       -3.6413  -20.2116  -48.4573 H         1 UNK         0.0600 
    194 H194       -4.7517  -21.5659  -48.3759 H         1 UNK         0.0600 
    195 H195       -2.4038  -23.1631  -46.0638 H         1 UNK         0.3000 
    196 H196       -3.8695  -25.5767  -46.3337 H         1 UNK         0.0600 
    197 H197       -2.7944  -26.1733  -44.1618 H         1 UNK         0.0600 
    198 H198       -3.4099  -24.5278  -44.1434 H         1 UNK         0.0600 
    199 H199       -1.6826  -24.8204  -44.3253 H         1 UNK         0.0600 
    200 H200       -0.3326  -24.9476  -46.5935 H         1 UNK         0.3000 
    201 H201        0.4682  -27.6122  -47.1500 H         1 UNK         0.0600 
    202 H202        2.0423  -25.8305  -46.4449 H         1 UNK         0.0600 
    203 H203        1.7722  -24.9561  -47.9503 H         1 UNK         0.0600 
    204 H204        2.5606  -26.5284  -47.9722 H         1 UNK         0.0600 
    205 H205       -0.6347  -25.0002  -49.3094 H         1 UNK         0.3000 
    206 H206       -0.3290  -26.4978  -51.7687 H         1 UNK         0.0600 
    207 H207       -0.2432  -24.0021  -51.6626 H         1 UNK         0.0600 
    208 H208       -1.5221  -24.5410  -52.7382 H         1 UNK         0.0600 
    209 H209       -1.9216  -23.9565  -51.1287 H         1 UNK         0.0600 
    210 H210       -2.4981  -26.9733  -49.2562 H         1 UNK         0.3000 
    211 H211       -4.4538  -27.9359  -48.9303 H         1 UNK         0.0600 
    212 H212       -4.0888  -29.2175  -51.6911 H         1 UNK         0.0600 
    213 H213       -5.1229  -29.8040  -50.3955 H         1 UNK         0.0600 
    214 H214       -3.3792  -29.8157  -50.1919 H         1 UNK         0.0600 
    215 H215       -4.5228  -25.3158  -49.8889 H         1 UNK         0.3000 
    216 H216       -5.7828  -23.6728  -50.5544 H         1 UNK         0.0600 
    217 H217       -8.2264  -23.8341  -50.4344 H         1 UNK         0.0600 
    218 H218       -7.5250  -24.7676  -49.1254 H         1 UNK         0.0600 
    219 H219       -8.1709  -25.5878  -50.5477 H         1 UNK         0.0600 
    220 H220       -4.6946  -25.6863  -52.6940 H         1 UNK         0.3000 
    221 H221       -6.3955  -25.2477  -54.9957 H         1 UNK         0.0600 
    222 H222       -3.5282  -26.3050  -54.8715 H         1 UNK         0.0600 
    223 H223       -4.9658  -27.2991  -54.6315 H         1 UNK         0.0600 
    224 H224       -4.6802  -26.5208  -56.1800 H         1 UNK         0.0600 
    225 H225       -4.5996  -23.0327  -53.4306 H         1 UNK         0.3000 
    226 H226       -3.0396  -21.7509  -55.4501 H         1 UNK         0.0600 
    227 H227       -2.9375  -19.9232  -53.7122 H         1 UNK         0.0600 
    228 H228       -4.1597  -20.7742  -52.7734 H         1 UNK         0.0600 
    229 H229       -2.5787  -21.5041  -53.0391 H         1 UNK         0.0600 
    230 H230       -6.3859  -21.8697  -55.1521 H         1 UNK         0.3000 
    231 H231       -8.0968  -21.0532  -56.2367 H         1 UNK         0.0600 
    232 H232       -6.6945  -21.1441  -58.2817 H         1 UNK         0.0600 
    233 H233       -6.1625  -19.4845  -58.0165 H         1 UNK         0.0600 
    234 H234       -7.8517  -19.8240  -58.3540 H         1 UNK         0.0600 
    235 H235       -5.8271  -18.3522  -55.6602 H         1 UNK         0.3000 
    236 H236       -7.8949  -16.3918  -55.0397 H         1 UNK         0.0600 
    237 H237       -5.9369  -15.0247  -54.3024 H         1 UNK         0.0600 
    238 H238       -4.8799  -16.4225  -54.4651 H         1 UNK         0.0600 
    239 H239       -5.6507  -15.7228  -55.8892 H         1 UNK         0.0600 
    240 H240       -6.2377  -18.8954  -53.3131 H         1 UNK         0.3000 
    241 H241       -7.8074  -18.5111  -50.8994 H         1 UNK         0.0600 
    242 H242       -7.8211  -20.4849  -53.1136 H         1 UNK         0.3800 
    243 H243       -7.4639  -22.0235  -52.3761 H         1 UNK         0.3800 
    244 H244       -5.9534  -17.1647  -50.2256 H         1 UNK         0.0800 
    245 H245       -5.7909  -18.6781  -49.3821 H         1 UNK         0.0800 
    246 H246       -3.4338  -16.4990  -49.6908 H         1 UNK         0.0800 
    247 H247       -3.2760  -17.9854  -48.7850 H         1 UNK         0.0800 
@<TRIPOS>BOND
     1    1    2 1    
     2    1  127 1    
     3    1  128 1    
     4    1  129 1    
     5    2    3 2    
     6    2    4 am   BACKBONE|DICT|INTERRES
     7    4    5 1    
     8    4  130 1    
     9    5    6 1    
    10    5   65 1    
    11    5  131 1    
    12    6    7 1    
    13    6  132 1    
    14    6  133 1    
    15    7    8 1    
    16    8    9 1    
    17    8  134 1    
    18    8  135 1    
    19    9   10 ar   
    20    9   14 ar   
    21   10   11 ar   
    22   10  136 1    
    23   11   12 ar   
    24   11  126 1    
    25   12   13 ar   
    26   12  137 1    
    27   13   14 ar   
    28   13   15 1    
    29   14  138 1    
    30   15   16 1    
    31   15  139 1    
    32   15  140 1    
    33   16   17 1    
    34   17   18 1    
    35   17  141 1    
    36   17  142 1    
    37   18   19 1    
    38   18   67 1    
    39   18  143 1    
    40   19   20 am   BACKBONE|DICT|INTERRES
    41   19  144 1    
    42   20   21 2    
    43   20   22 1    
    44   22   23 1    
    45   22   24 1    
    46   22  145 1    
    47   23  146 1    
    48   23  147 1    
    49   23  148 1    
    50   24   25 am   BACKBONE|DICT|INTERRES
    51   24  149 1    
    52   25   26 2    
    53   25   27 1    
    54   27   28 1    
    55   27   29 1    
    56   27  150 1    
    57   28  151 1    
    58   28  152 1    
    59   28  153 1    
    60   29   30 am   BACKBONE|DICT|INTERRES
    61   29  154 1    
    62   30   31 2    
    63   30   32 1    
    64   32   33 1    
    65   32   34 1    
    66   32  155 1    
    67   33  156 1    
    68   33  157 1    
    69   33  158 1    
    70   34   35 am   BACKBONE|DICT|INTERRES
    71   34  159 1    
    72   35   36 2    
    73   35   37 1    
    74   37   38 1    
    75   37   39 1    
    76   37  160 1    
    77   38  161 1    
    78   38  162 1    
    79   38  163 1    
    80   39   40 am   BACKBONE|DICT|INTERRES
    81   39  164 1    
    82   40   41 2    
    83   40   42 1    
    84   42   43 1    
    85   42   44 1    
    86   42  165 1    
    87   43  166 1    
    88   43  167 1    
    89   43  168 1    
    90   44   45 am   BACKBONE|DICT|INTERRES
    91   44  169 1    
    92   45   46 2    
    93   45   47 1    
    94   47   48 1    
    95   47   49 1    
    96   47  170 1    
    97   48  171 1    
    98   48  172 1    
    99   48  173 1    
   100   49   50 am   BACKBONE|DICT|INTERRES
   101   49  174 1    
   102   50   51 2    
   103   50   52 1    
   104   52   53 1    
   105   52   54 1    
   106   52  175 1    
   107   53  176 1    
   108   53  177 1    
   109   53  178 1    
   110   54   55 am   BACKBONE|DICT|INTERRES
   111   54  179 1    
   112   55   56 2    
   113   55   57 1    
   114   57   58 1    
   115   57   59 1    
   116   57  180 1    
   117   58  181 1    
   118   58  182 1    
   119   58  183 1    
   120   59   60 am   BACKBONE|DICT|INTERRES
   121   59  184 1    
   122   60   61 2    
   123   60   62 1    
   124   62   63 1    
   125   62   64 1    
   126   62  185 1    
   127   63  186 1    
   128   63  187 1    
   129   63  188 1    
   130   64   65 am   BACKBONE|DICT|INTERRES
   131   64  189 1    
   132   65   66 2    
   133   67   68 2    
   134   67   69 am   BACKBONE|DICT|INTERRES
   135   69   70 1    
   136   69  190 1    
   137   70   71 1    
   138   70   72 1    
   139   70  191 1    
   140   71  192 1    
   141   71  193 1    
   142   71  194 1    
   143   72   73 2    
   144   72   74 am   BACKBONE|DICT|INTERRES
   145   74   75 1    
   146   74  195 1    
   147   75   76 1    
   148   75   77 1    
   149   75  196 1    
   150   76  197 1    
   151   76  198 1    
   152   76  199 1    
   153   77   78 2    
   154   77   79 am   BACKBONE|DICT|INTERRES
   155   79   80 1    
   156   79  200 1    
   157   80   81 1    
   158   80   82 1    
   159   80  201 1    
   160   81  202 1    
   161   81  203 1    
   162   81  204 1    
   163   82   83 2    
   164   82   84 am   BACKBONE|DICT|INTERRES
   165   84   85 1    
   166   84  205 1    
   167   85   86 1    
   168   85   87 1    
   169   85  206 1    
   170   86  207 1    
   171   86  208 1    
   172   86  209 1    
   173   87   88 2    
   174   87   89 am   BACKBONE|DICT|INTERRES
   175   89   90 1    
   176   89  210 1    
   177   90   91 1    
   178   90   92 1    
   179   90  211 1    
   180   91  212 1    
   181   91  213 1    
   182   91  214 1    
   183   92   93 2    
   184   92   94 am   BACKBONE|DICT|INTERRES
   185   94   95 1    
   186   94  215 1    
   187   95   96 1    
   188   95   97 1    
   189   95  216 1    
   190   96  217 1    
   191   96  218 1    
   192   96  219 1    
   193   97   98 2    
   194   97   99 am   BACKBONE|DICT|INTERRES
   195   99  100 1    
   196   99  220 1    
   197  100  101 1    
   198  100  102 1    
   199  100  221 1    
   200  101  222 1    
   201  101  223 1    
   202  101  224 1    
   203  102  103 2    
   204  102  104 am   BACKBONE|DICT|INTERRES
   205  104  105 1    
   206  104  225 1    
   207  105  106 1    
   208  105  107 1    
   209  105  226 1    
   210  106  227 1    
   211  106  228 1    
   212  106  229 1    
   213  107  108 2    
   214  107  109 am   BACKBONE|DICT|INTERRES
   215  109  110 1    
   216  109  230 1    
   217  110  111 1    
   218  110  112 1    
   219  110  231 1    
   220  111  232 1    
   221  111  233 1    
   222  111  234 1    
   223  112  113 2    
   224  112  114 am   BACKBONE|DICT|INTERRES
   225  114  115 1    
   226  114  235 1    
   227  115  116 1    
   228  115  117 1    
   229  115  236 1    
   230  116  237 1    
   231  116  238 1    
   232  116  239 1    
   233  117  118 2    
   234  117  119 am   BACKBONE|DICT|INTERRES
   235  119  120 1    
   236  119  240 1    
   237  120  121 1    
   238  120  124 1    
   239  120  241 1    
   240  121  122 am   BACKBONE|DICT|INTERRES
   241  121  123 2    
   242  122  242 1    
   243  122  243 1    
   244  124  125 1    
   245  124  244 1    
   246  124  245 1    
   247  125  126 1    
   248  126  246 1    
   249  126  247 1    
@<TRIPOS>SUBSTRUCTURE
     1 UNK         1 GROUP             0       ****    0 ROOT    
