@<TRIPOS>MOLECULE
3R540
247   249    1
SMALL
USER_CHARGES


@<TRIPOS>ATOM
      1 CA          6.0325  -12.8947  -46.0571 C.3       0 UNK        -0.1800 
      2 C           4.8258  -13.7873  -46.3034 C.2       0 UNK         0.5000 
      3 O           3.7330  -13.4851  -45.8243 O.2       0 UNK        -0.5000 
      4 N           5.0086  -14.8739  -47.0655 N.am      1 UNK        -0.5000 
      5 CA          3.9735  -15.8596  -47.4090 C.3       1 UNK         0.1400 
      6 C6          4.5497  -17.0692  -48.1879 C.3       23 UNK        -0.0398 
      7 S7          5.4160  -16.6026  -49.7303 S.3       23 UNK        -0.2404 
      8 C8          5.0602  -18.0263  -50.8138 C.3       23 UNK        -0.0205 
      9 C9          3.5910  -18.1968  -51.1975 C.ar      23 UNK        -0.0193 
     10 C10         2.7737  -17.1011  -51.5011 C.ar      23 UNK        -0.1150 
     11 C11         1.4491  -17.2917  -51.9084 C.ar      23 UNK        -0.0193 
     12 C12         0.9388  -18.5898  -52.0049 C.ar      23 UNK        -0.1150 
     13 C13         1.7426  -19.6952  -51.7152 C.ar      23 UNK        -0.0193 
     14 C14         3.0673  -19.4876  -51.3154 C.ar      23 UNK        -0.1150 
     15 C15         1.2006  -21.1058  -51.9225 C.3       23 UNK        -0.0205 
     16 S16         1.6031  -22.2525  -50.5651 S.3       23 UNK        -0.2404 
     17 C17         0.2472  -21.9335  -49.3918 C.3       23 UNK        -0.0398 
     18 CA          0.2999  -22.9450  -48.2229 C.3       11 UNK         0.1400 
     19 N           1.4767  -22.7496  -47.3737 N.am      11 UNK        -0.5000 
     20 C           1.9392  -23.6479  -46.4940 C.2       10 UNK         0.5000 
     21 O           1.4395  -24.7594  -46.3270 O.2       10 UNK        -0.5000 
     22 CA          3.1076  -23.1898  -45.5993 C.3       10 UNK         0.1400 
     23 CB          4.4525  -23.4329  -46.2994 C.3       10 UNK        -0.1800 
     24 N           3.0033  -21.7771  -45.2147 N.am      10 UNK        -0.5000 
     25 C           1.9782  -21.2619  -44.5225 C.2       9 UNK         0.5000 
     26 O           1.0372  -21.9417  -44.1060 O.2       9 UNK        -0.5000 
     27 CA          1.9623  -19.7301  -44.3614 C.3       9 UNK         0.1400 
     28 CB          1.4495  -19.0745  -45.6558 C.3       9 UNK        -0.1800 
     29 N           1.1172  -19.2838  -43.2548 N.am      9 UNK        -0.5000 
     30 C           1.3237  -19.5275  -41.9567 C.2       8 UNK         0.5000 
     31 O           2.2990  -20.1503  -41.5333 O.2       8 UNK        -0.5000 
     32 CA          0.2930  -18.9811  -40.9417 C.3       8 UNK         0.1400 
     33 CB          0.7574  -17.6237  -40.3799 C.3       8 UNK        -0.1800 
     34 N          -1.1123  -18.9017  -41.3799 N.am      8 UNK        -0.5000 
     35 C          -1.6537  -18.1601  -42.3562 C.2       7 UNK         0.5000 
     36 O          -0.9997  -17.4967  -43.1592 O.2       7 UNK        -0.5000 
     37 CA         -3.1860  -18.1478  -42.4361 C.3       7 UNK         0.1400 
     38 CB         -3.7752  -17.1675  -41.4094 C.3       7 UNK        -0.1800 
     39 N          -3.5969  -17.7319  -43.7740 N.am      7 UNK        -0.5000 
     40 C          -4.5362  -18.3320  -44.5126 C.2       6 UNK         0.5000 
     41 O          -5.2126  -19.2785  -44.1077 O.2       6 UNK        -0.5000 
     42 CA         -4.7858  -17.8027  -45.9393 C.3       6 UNK         0.1400 
     43 CB         -6.1913  -17.1912  -46.0550 C.3       6 UNK        -0.1800 
     44 N          -3.8142  -16.8151  -46.4106 N.am      6 UNK        -0.5000 
     45 C          -2.5514  -17.0661  -46.7803 C.2       5 UNK         0.5000 
     46 O          -2.0250  -18.1756  -46.7070 O.2       5 UNK        -0.5000 
     47 CA         -1.7477  -15.8825  -47.3553 C.3       5 UNK         0.1400 
     48 CB         -2.6267  -14.7407  -47.9107 C.3       5 UNK        -0.1800 
     49 N          -0.7631  -15.3411  -46.4197 N.am      5 UNK        -0.5000 
     50 C          -0.9663  -14.8800  -45.1768 C.2       4 UNK         0.5000 
     51 O          -2.0529  -14.9078  -44.5957 O.2       4 UNK        -0.5000 
     52 CA          0.2429  -14.1989  -44.5022 C.3       4 UNK         0.1400 
     53 CB          1.3218  -15.2085  -44.0807 C.3       4 UNK        -0.1800 
     54 N           0.8644  -13.2024  -45.3724 N.am      4 UNK        -0.5000 
     55 C           0.2975  -12.0556  -45.7714 C.2       3 UNK         0.5000 
     56 O          -0.8092  -11.6657  -45.3981 O.2       3 UNK        -0.5000 
     57 CA          1.1055  -11.2078  -46.7681 C.3       3 UNK         0.1400 
     58 CB          2.1503  -10.3471  -46.0403 C.3       3 UNK        -0.1800 
     59 N           1.7712  -12.0543  -47.7579 N.am      3 UNK        -0.5000 
     60 C           1.1742  -12.5318  -48.8586 C.2       2 UNK         0.5000 
     61 O           0.0310  -12.2300  -49.2005 O.2       2 UNK        -0.5000 
     62 CA          1.9837  -13.5089  -49.7304 C.3       2 UNK         0.1400 
     63 CB          2.6411  -12.7748  -50.9080 C.3       2 UNK        -0.1800 
     64 N           3.0092  -14.2412  -48.9896 N.am      2 UNK        -0.5000 
     65 C           2.7583  -15.2415  -48.1333 C.2       1 UNK         0.5000 
     66 O           1.6292  -15.6483  -47.8676 O.2       1 UNK        -0.5000 
     67 C          -1.0148  -22.9391  -47.4182 C.2       11 UNK         0.5000 
     68 O          -1.9719  -23.5786  -47.8517 O.2       11 UNK        -0.5000 
     69 N          -1.0556  -22.2565  -46.2648 N.am      12 UNK        -0.5000 
     70 CA         -2.1981  -22.2912  -45.3506 C.3       12 UNK         0.1400 
     71 CB         -2.1535  -21.0959  -44.3894 C.3       12 UNK        -0.1800 
     72 C          -2.2437  -23.6187  -44.5797 C.2       12 UNK         0.5000 
     73 O          -3.3129  -24.2172  -44.4686 O.2       12 UNK        -0.5000 
     74 N          -1.0738  -24.0807  -44.1145 N.am      13 UNK        -0.5000 
     75 CA         -0.8906  -25.3711  -43.4461 C.3       13 UNK         0.1400 
     76 CB          0.5406  -25.4602  -42.8952 C.3       13 UNK        -0.1800 
     77 C          -1.2066  -26.5705  -44.3624 C.2       13 UNK         0.5000 
     78 O          -1.8344  -27.5305  -43.9148 O.2       13 UNK        -0.5000 
     79 N          -0.8002  -26.4757  -45.6359 N.am      14 UNK        -0.5000 
     80 CA         -1.0884  -27.4569  -46.6855 C.3       14 UNK         0.1400 
     81 CB         -0.0849  -27.2563  -47.8325 C.3       14 UNK        -0.1800 
     82 C          -2.5311  -27.3821  -47.2289 C.2       14 UNK         0.5000 
     83 O          -2.9434  -28.2903  -47.9507 O.2       14 UNK        -0.5000 
     84 N          -3.2525  -26.2964  -46.9090 N.am      15 UNK        -0.5000 
     85 CA         -4.5973  -25.9319  -47.3763 C.3       15 UNK         0.1400 
     86 CB         -5.6464  -26.9776  -46.9466 C.3       15 UNK        -0.1800 
     87 C          -4.6705  -25.5986  -48.8839 C.2       15 UNK         0.5000 
     88 O          -5.7633  -25.5389  -49.4489 O.2       15 UNK        -0.5000 
     89 N          -3.5121  -25.3338  -49.5018 N.am      16 UNK        -0.5000 
     90 CA         -3.3673  -24.8613  -50.8779 C.3       16 UNK         0.1400 
     91 CB         -1.9013  -25.0176  -51.3086 C.3       16 UNK        -0.1800 
     92 C          -3.8192  -23.3993  -51.0398 C.2       16 UNK         0.5000 
     93 O          -4.2882  -23.0219  -52.1146 O.2       16 UNK        -0.5000 
     94 N          -3.7126  -22.6094  -49.9600 N.am      17 UNK        -0.5000 
     95 CA         -4.1041  -21.1984  -49.8952 C.3       17 UNK         0.1400 
     96 CB         -3.6006  -20.5785  -48.5861 C.3       17 UNK        -0.1800 
     97 C          -5.6135  -20.9373  -50.0772 C.2       17 UNK         0.5000 
     98 O          -6.0051  -19.7882  -50.2741 O.2       17 UNK        -0.5000 
     99 N          -6.4347  -21.9968  -50.0435 N.am      18 UNK        -0.5000 
    100 CA        -7.8436  -21.9638  -50.4378 C.3       18 UNK         0.1400 
    101 CB        -8.4981  -23.3033  -50.0688 C.3       18 UNK        -0.1800 
    102 C         -8.0302  -21.6631  -51.9405 C.2       18 UNK         0.5000 
    103 O         -9.0348  -21.0562  -52.3131 O.2       18 UNK        -0.5000 
    104 N         -7.0549  -22.0730  -52.7642 N.am      19 UNK        -0.5000 
    105 CA        -6.9690  -21.7514  -54.1864 C.3       19 UNK         0.1400 
    106 CB        -6.5858  -23.0159  -54.9720 C.3       19 UNK        -0.1800 
    107 C         -5.9400  -20.6324  -54.4121 C.2       19 UNK         0.5000 
    108 O         -6.2529  -19.6339  -55.0620 O.2       19 UNK        -0.5000 
    109 N         -4.7360  -20.7991  -53.8479 N.am      20 UNK        -0.5000 
    110 CA        -3.6188  -19.8584  -53.9313 C.3       20 UNK         0.1400 
    111 CB        -2.3054  -20.6469  -53.7800 C.3       20 UNK        -0.1800 
    112 C         -3.7624  -18.7332  -52.8869 C.2       20 UNK         0.5000 
    113 O         -2.9306  -18.6105  -51.9888 O.2       20 UNK        -0.5000 
    114 N         -4.8400  -17.9492  -53.0102 N.am      21 UNK        -0.5000 
    115 CA        -5.2642  -16.9211  -52.0532 C.3       21 UNK         0.1400 
    116 CB        -6.7251  -16.5521  -52.3577 C.3       21 UNK        -0.1800 
    117 C         -4.3759  -15.6590  -52.0047 C.2       21 UNK         0.5000 
    118 O         -4.5907  -14.8120  -51.1371 O.2       21 UNK        -0.5000 
    119 N         -3.4128  -15.5477  -52.9288 N.am      22 UNK        -0.5000 
    120 CA        -2.4100  -14.4702  -53.0328 C.3       22 UNK         0.1400 
    121 C         -2.9665  -13.1023  -53.5340 C.2       22 UNK         0.5000 
    122 N         -4.1910  -13.0286  -54.0413 N.am      22 UNK        -0.7600 
    123 O         -2.2664  -12.0939  -53.4989 O.2       22 UNK        -0.5000 
    124 C124       -1.5178  -14.3094  -51.7647 C.3       23 UNK        -0.0398 
    125 S125       -0.8027  -15.8710  -51.1440 S.3       23 UNK        -0.2404 
    126 C126        0.5825  -16.1034  -52.2979 C.3       23 UNK        -0.0205 
    127 H127        5.8324  -11.8867  -46.4204 H         1 UNK         0.0600 
    128 H128        6.9236  -13.2688  -46.5615 H         1 UNK         0.0600 
    129 H129        6.2431  -12.8377  -44.9893 H         1 UNK         0.0600 
    130 H130        5.9243  -15.0589  -47.4507 H         1 UNK         0.3000 
    131 H131        3.5955  -16.2457  -46.4602 H         1 UNK         0.0600 
    132 H132        5.2596  -17.6043  -47.5559 H         1 UNK         0.0800 
    133 H133        3.7571  -17.7865  -48.4090 H         1 UNK         0.0800 
    134 H134        5.4338  -18.9276  -50.3250 H         1 UNK         0.0800 
    135 H135        5.6393  -17.9133  -51.7309 H         1 UNK         0.0800 
    136 H136        3.1750  -16.0996  -51.4413 H         1 UNK         0.1150 
    137 H137       -0.0829  -18.7332  -52.3284 H         1 UNK         0.1150 
    138 H138        3.7017  -20.3401  -51.1174 H         1 UNK         0.1150 
    139 H139        0.1207  -21.0914  -52.0721 H         1 UNK         0.0800 
    140 H140        1.6307  -21.5001  -52.8438 H         1 UNK         0.0800 
    141 H141       -0.6947  -22.0174  -49.9377 H         1 UNK         0.0800 
    142 H142        0.3091  -20.9050  -49.0311 H         1 UNK         0.0800 
    143 H143        0.3756  -23.9443  -48.6568 H         1 UNK         0.0600 
    144 H144        1.9575  -21.8674  -47.4629 H         1 UNK         0.3000 
    145 H145        3.0810  -23.7891  -44.6869 H         1 UNK         0.0600 
    146 H146        5.2884  -23.1840  -45.6454 H         1 UNK         0.0600 
    147 H147        4.5618  -24.4816  -46.5794 H         1 UNK         0.0600 
    148 H148        4.5481  -22.8387  -47.2091 H         1 UNK         0.0600 
    149 H149        3.7431  -21.1674  -45.5316 H         1 UNK         0.3000 
    150 H150        2.9813  -19.3897  -44.1678 H         1 UNK         0.0600 
    151 H151        0.4299  -19.3864  -45.8875 H         1 UNK         0.0600 
    152 H152        2.0754  -19.3328  -46.5107 H         1 UNK         0.0600 
    153 H153        1.4479  -17.9881  -45.5775 H         1 UNK         0.0600 
    154 H154        0.3067  -18.7170  -43.4912 H         1 UNK         0.3000 
    155 H155        0.2925  -19.6890  -40.1113 H         1 UNK         0.0600 
    156 H156        0.7708  -16.8493  -41.1465 H         1 UNK         0.0600 
    157 H157        1.7660  -17.6937  -39.9705 H         1 UNK         0.0600 
    158 H158        0.1041  -17.2862  -39.5753 H         1 UNK         0.0600 
    159 H159       -1.7476  -19.4413  -40.8086 H         1 UNK         0.3000 
    160 H160       -3.5433  -19.1561  -42.2178 H         1 UNK         0.0600 
    161 H161       -3.4280  -16.1482  -41.5848 H         1 UNK         0.0600 
    162 H162       -3.4914  -17.4422  -40.3928 H         1 UNK         0.0600 
    163 H163       -4.8645  -17.1616  -41.4521 H         1 UNK         0.0600 
    164 H164       -3.0313  -16.9978  -44.1875 H         1 UNK         0.3000 
    165 H165       -4.7410  -18.6661  -46.6037 H         1 UNK         0.0600 
    166 H166       -6.4093  -16.8942  -47.0812 H         1 UNK         0.0600 
    167 H167       -6.9582  -17.9079  -45.7582 H         1 UNK         0.0600 
    168 H168       -6.2999  -16.3119  -45.4187 H         1 UNK         0.0600 
    169 H169       -4.1393  -15.8610  -46.4661 H         1 UNK         0.3000 
    170 H170       -1.1752  -16.2887  -48.1899 H         1 UNK         0.0600 
    171 H171       -3.3499  -15.1178  -48.6349 H         1 UNK         0.0600 
    172 H172       -3.1748  -14.2179  -47.1264 H         1 UNK         0.0600 
    173 H173       -2.0144  -14.0020  -48.4277 H         1 UNK         0.0600 
    174 H174        0.1824  -15.3127  -46.7952 H         1 UNK         0.3000 
    175 H175       -0.1150  -13.6892  -43.6054 H         1 UNK         0.0600 
    176 H176        0.9329  -15.9323  -43.3689 H         1 UNK         0.0600 
    177 H177        1.7137  -15.7584  -44.9352 H         1 UNK         0.0600 
    178 H178        2.1610  -14.7074  -43.5978 H         1 UNK         0.0600 
    179 H179        1.8101  -13.4042  -45.6829 H         1 UNK         0.3000 
    180 H180        0.4133  -10.5334  -47.2772 H         1 UNK         0.0600 
    181 H181        2.8725  -10.9555  -45.4955 H         1 UNK         0.0600 
    182 H182        1.6717   -9.6839  -45.3187 H         1 UNK         0.0600 
    183 H183        2.7016   -9.7206  -46.7415 H         1 UNK         0.0600 
    184 H184        2.6944  -12.3895  -47.5193 H         1 UNK         0.3000 
    185 H185        1.2802  -14.2356  -50.1325 H         1 UNK         0.0600 
    186 H186        1.8944  -12.2501  -51.5057 H         1 UNK         0.0600 
    187 H187        3.3678  -12.0366  -50.5668 H         1 UNK         0.0600 
    188 H188        3.1546  -13.4716  -51.5707 H         1 UNK         0.0600 
    189 H189        3.9698  -13.9710  -49.1439 H         1 UNK         0.3000 
    190 H190       -0.2185  -21.8077  -45.9212 H         1 UNK         0.3000 
    191 H191       -3.1165  -22.2119  -45.9348 H         1 UNK         0.0600 
    192 H192       -2.0658  -20.1558  -44.9321 H         1 UNK         0.0600 
    193 H193       -3.0687  -21.0506  -43.7992 H         1 UNK         0.0600 
    194 H194       -1.3239  -21.1547  -43.6867 H         1 UNK         0.0600 
    195 H195       -0.2497  -23.4971  -44.2191 H         1 UNK         0.3000 
    196 H196       -1.5822  -25.4079  -42.6019 H         1 UNK         0.0600 
    197 H197        0.6906  -26.3923  -42.3490 H         1 UNK         0.0600 
    198 H198        0.7496  -24.6412  -42.2065 H         1 UNK         0.0600 
    199 H199        1.2836  -25.4239  -43.6919 H         1 UNK         0.0600 
    200 H200       -0.2051  -25.6945  -45.8978 H         1 UNK         0.3000 
    201 H201       -0.9433  -28.4584  -46.2753 H         1 UNK         0.0600 
    202 H202       -0.2278  -28.0020  -48.6156 H         1 UNK         0.0600 
    203 H203        0.9423  -27.3503  -47.4795 H         1 UNK         0.0600 
    204 H204       -0.1927  -26.2736  -48.2920 H         1 UNK         0.0600 
    205 H205       -2.8159  -25.6134  -46.3043 H         1 UNK         0.3000 
    206 H206       -4.8395  -25.0012  -46.8613 H         1 UNK         0.0600 
    207 H207       -5.5770  -27.1892  -45.8795 H         1 UNK         0.0600 
    208 H208       -6.6578  -26.6180  -47.1394 H         1 UNK         0.0600 
    209 H209       -5.5288  -27.9180  -47.4852 H         1 UNK         0.0600 
    210 H210       -2.6807  -25.3072  -48.9266 H         1 UNK         0.3000 
    211 H211       -3.9900  -25.4799  -51.5273 H         1 UNK         0.0600 
    212 H212       -1.2303  -24.4315  -50.6799 H         1 UNK         0.0600 
    213 H213       -1.7588  -24.6867  -52.3382 H         1 UNK         0.0600 
    214 H214       -1.5844  -26.0593  -51.2549 H         1 UNK         0.0600 
    215 H215       -3.2929  -23.0038  -49.1231 H         1 UNK         0.3000 
    216 H216       -3.5948  -20.6976  -50.7158 H         1 UNK         0.0600 
    217 H217       -3.8152  -19.5099  -48.5642 H         1 UNK         0.0600 
    218 H218       -2.5214  -20.6800  -48.4835 H         1 UNK         0.0600 
    219 H219       -4.0751  -21.0315  -47.7161 H         1 UNK         0.0600 
    220 H220       -6.0382  -22.9075  -49.8598 H         1 UNK         0.3000 
    221 H221       -8.3380  -21.1704  -49.8734 H         1 UNK         0.0600 
    222 H222       -8.0348  -24.1369  -50.5984 H         1 UNK         0.0600 
    223 H223       -8.4182  -23.5009  -48.9996 H         1 UNK         0.0600 
    224 H224       -9.5593  -23.3022  -50.3212 H         1 UNK         0.0600 
    225 H225       -6.2486  -22.5400  -52.3651 H         1 UNK         0.3000 
    226 H226       -7.9337  -21.4025  -54.5606 H         1 UNK         0.0600 
    227 H227       -6.4973  -22.8012  -56.0378 H         1 UNK         0.0600 
    228 H228       -5.6334  -23.4305  -54.6391 H         1 UNK         0.0600 
    229 H229       -7.3436  -23.7911  -54.8585 H         1 UNK         0.0600 
    230 H230       -4.5660  -21.6378  -53.2983 H         1 UNK         0.3000 
    231 H231       -3.6136  -19.3925  -54.9189 H         1 UNK         0.0600 
    232 H232       -2.2359  -21.1331  -52.8065 H         1 UNK         0.0600 
    233 H233       -1.4416  -19.9902  -53.8865 H         1 UNK         0.0600 
    234 H234       -2.2198  -21.4196  -54.5441 H         1 UNK         0.0600 
    235 H235       -5.4795  -18.1522  -53.7702 H         1 UNK         0.3000 
    236 H236       -5.2280  -17.3598  -51.0544 H         1 UNK         0.0600 
    237 H237       -7.3716  -17.4279  -52.2938 H         1 UNK         0.0600 
    238 H238       -7.1041  -15.8197  -51.6438 H         1 UNK         0.0600 
    239 H239       -6.8321  -16.1261  -53.3558 H         1 UNK         0.0600 
    240 H240       -3.3243  -16.2954  -53.5998 H         1 UNK         0.3000 
    241 H241       -1.7490  -14.7917  -53.8376 H         1 UNK         0.0600 
    242 H242       -4.5385  -12.1430  -54.3746 H         1 UNK         0.3800 
    243 H243       -4.7766  -13.8468  -54.0851 H         1 UNK         0.3800 
    244 H244       -0.7002  -13.6125  -51.9562 H         1 UNK         0.0800 
    245 H245       -2.0952  -13.8648  -50.9532 H         1 UNK         0.0800 
    246 H246        0.1892  -16.2664  -53.3020 H         1 UNK         0.0800 
    247 H247        1.1792  -15.1919  -52.3447 H         1 UNK         0.0800 
@<TRIPOS>BOND
     1    1    2 1    
     2    1  127 1    
     3    1  128 1    
     4    1  129 1    
     5    2    3 2    
     6    2    4 am   BACKBONE|DICT|INTERRES
     7    4    5 1    
     8    4  130 1    
     9    5    6 1    
    10    5   65 1    
    11    5  131 1    
    12    6    7 1    
    13    6  132 1    
    14    6  133 1    
    15    7    8 1    
    16    8    9 1    
    17    8  134 1    
    18    8  135 1    
    19    9   10 ar   
    20    9   14 ar   
    21   10   11 ar   
    22   10  136 1    
    23   11   12 ar   
    24   11  126 1    
    25   12   13 ar   
    26   12  137 1    
    27   13   14 ar   
    28   13   15 1    
    29   14  138 1    
    30   15   16 1    
    31   15  139 1    
    32   15  140 1    
    33   16   17 1    
    34   17   18 1    
    35   17  141 1    
    36   17  142 1    
    37   18   19 1    
    38   18   67 1    
    39   18  143 1    
    40   19   20 am   BACKBONE|DICT|INTERRES
    41   19  144 1    
    42   20   21 2    
    43   20   22 1    
    44   22   23 1    
    45   22   24 1    
    46   22  145 1    
    47   23  146 1    
    48   23  147 1    
    49   23  148 1    
    50   24   25 am   BACKBONE|DICT|INTERRES
    51   24  149 1    
    52   25   26 2    
    53   25   27 1    
    54   27   28 1    
    55   27   29 1    
    56   27  150 1    
    57   28  151 1    
    58   28  152 1    
    59   28  153 1    
    60   29   30 am   BACKBONE|DICT|INTERRES
    61   29  154 1    
    62   30   31 2    
    63   30   32 1    
    64   32   33 1    
    65   32   34 1    
    66   32  155 1    
    67   33  156 1    
    68   33  157 1    
    69   33  158 1    
    70   34   35 am   BACKBONE|DICT|INTERRES
    71   34  159 1    
    72   35   36 2    
    73   35   37 1    
    74   37   38 1    
    75   37   39 1    
    76   37  160 1    
    77   38  161 1    
    78   38  162 1    
    79   38  163 1    
    80   39   40 am   BACKBONE|DICT|INTERRES
    81   39  164 1    
    82   40   41 2    
    83   40   42 1    
    84   42   43 1    
    85   42   44 1    
    86   42  165 1    
    87   43  166 1    
    88   43  167 1    
    89   43  168 1    
    90   44   45 am   BACKBONE|DICT|INTERRES
    91   44  169 1    
    92   45   46 2    
    93   45   47 1    
    94   47   48 1    
    95   47   49 1    
    96   47  170 1    
    97   48  171 1    
    98   48  172 1    
    99   48  173 1    
   100   49   50 am   BACKBONE|DICT|INTERRES
   101   49  174 1    
   102   50   51 2    
   103   50   52 1    
   104   52   53 1    
   105   52   54 1    
   106   52  175 1    
   107   53  176 1    
   108   53  177 1    
   109   53  178 1    
   110   54   55 am   BACKBONE|DICT|INTERRES
   111   54  179 1    
   112   55   56 2    
   113   55   57 1    
   114   57   58 1    
   115   57   59 1    
   116   57  180 1    
   117   58  181 1    
   118   58  182 1    
   119   58  183 1    
   120   59   60 am   BACKBONE|DICT|INTERRES
   121   59  184 1    
   122   60   61 2    
   123   60   62 1    
   124   62   63 1    
   125   62   64 1    
   126   62  185 1    
   127   63  186 1    
   128   63  187 1    
   129   63  188 1    
   130   64   65 am   BACKBONE|DICT|INTERRES
   131   64  189 1    
   132   65   66 2    
   133   67   68 2    
   134   67   69 am   BACKBONE|DICT|INTERRES
   135   69   70 1    
   136   69  190 1    
   137   70   71 1    
   138   70   72 1    
   139   70  191 1    
   140   71  192 1    
   141   71  193 1    
   142   71  194 1    
   143   72   73 2    
   144   72   74 am   BACKBONE|DICT|INTERRES
   145   74   75 1    
   146   74  195 1    
   147   75   76 1    
   148   75   77 1    
   149   75  196 1    
   150   76  197 1    
   151   76  198 1    
   152   76  199 1    
   153   77   78 2    
   154   77   79 am   BACKBONE|DICT|INTERRES
   155   79   80 1    
   156   79  200 1    
   157   80   81 1    
   158   80   82 1    
   159   80  201 1    
   160   81  202 1    
   161   81  203 1    
   162   81  204 1    
   163   82   83 2    
   164   82   84 am   BACKBONE|DICT|INTERRES
   165   84   85 1    
   166   84  205 1    
   167   85   86 1    
   168   85   87 1    
   169   85  206 1    
   170   86  207 1    
   171   86  208 1    
   172   86  209 1    
   173   87   88 2    
   174   87   89 am   BACKBONE|DICT|INTERRES
   175   89   90 1    
   176   89  210 1    
   177   90   91 1    
   178   90   92 1    
   179   90  211 1    
   180   91  212 1    
   181   91  213 1    
   182   91  214 1    
   183   92   93 2    
   184   92   94 am   BACKBONE|DICT|INTERRES
   185   94   95 1    
   186   94  215 1    
   187   95   96 1    
   188   95   97 1    
   189   95  216 1    
   190   96  217 1    
   191   96  218 1    
   192   96  219 1    
   193   97   98 2    
   194   97   99 am   BACKBONE|DICT|INTERRES
   195   99  100 1    
   196   99  220 1    
   197  100  101 1    
   198  100  102 1    
   199  100  221 1    
   200  101  222 1    
   201  101  223 1    
   202  101  224 1    
   203  102  103 2    
   204  102  104 am   BACKBONE|DICT|INTERRES
   205  104  105 1    
   206  104  225 1    
   207  105  106 1    
   208  105  107 1    
   209  105  226 1    
   210  106  227 1    
   211  106  228 1    
   212  106  229 1    
   213  107  108 2    
   214  107  109 am   BACKBONE|DICT|INTERRES
   215  109  110 1    
   216  109  230 1    
   217  110  111 1    
   218  110  112 1    
   219  110  231 1    
   220  111  232 1    
   221  111  233 1    
   222  111  234 1    
   223  112  113 2    
   224  112  114 am   BACKBONE|DICT|INTERRES
   225  114  115 1    
   226  114  235 1    
   227  115  116 1    
   228  115  117 1    
   229  115  236 1    
   230  116  237 1    
   231  116  238 1    
   232  116  239 1    
   233  117  118 2    
   234  117  119 am   BACKBONE|DICT|INTERRES
   235  119  120 1    
   236  119  240 1    
   237  120  121 1    
   238  120  124 1    
   239  120  241 1    
   240  121  122 am   BACKBONE|DICT|INTERRES
   241  121  123 2    
   242  122  242 1    
   243  122  243 1    
   244  124  125 1    
   245  124  244 1    
   246  124  245 1    
   247  125  126 1    
   248  126  246 1    
   249  126  247 1    
@<TRIPOS>SUBSTRUCTURE
     1 UNK         1 GROUP             0       ****    0 ROOT    
