@<TRIPOS>MOLECULE
3R540
247   249    1
SMALL
USER_CHARGES


@<TRIPOS>ATOM
      1 CA         -3.4120  -12.6811  -48.3681 C.3       0 UNK        -0.1800 
      2 C          -1.9027  -12.5518  -48.2226 C.2       0 UNK         0.5000 
      3 O          -1.3773  -12.8058  -47.1394 O.2       0 UNK        -0.5000 
      4 N          -1.2203  -12.1651  -49.3120 N.am      1 UNK        -0.5000 
      5 CA          0.2323  -11.9762  -49.4535 C.3       1 UNK         0.1400 
      6 C6          1.0005  -13.2752  -49.8424 C.3       23 UNK        -0.0398 
      7 S7          0.8922  -14.6647  -48.6572 S.3       23 UNK        -0.2404 
      8 C8         -0.3946  -15.7058  -49.4181 C.3       23 UNK        -0.0205 
      9 C9          0.1829  -16.8888  -50.1843 C.ar      23 UNK        -0.0193 
     10 C10         1.0742  -16.6842  -51.2420 C.ar      23 UNK        -0.1150 
     11 C11         1.5886  -17.7653  -51.9623 C.ar      23 UNK        -0.0193 
     12 C12         1.2040  -19.0626  -51.6166 C.ar      23 UNK        -0.1150 
     13 C13         0.3252  -19.2846  -50.5532 C.ar      23 UNK        -0.0193 
     14 C14        -0.1890  -18.1943  -49.8449 C.ar      23 UNK        -0.1150 
     15 C15        -0.0565  -20.7065  -50.1769 C.3       23 UNK        -0.0205 
     16 S16         1.1994  -21.4704  -49.1013 S.3       23 UNK        -0.2404 
     17 C17         0.5886  -21.0215  -47.4397 C.3       23 UNK        -0.0398 
     18 CA         -0.1042  -22.2112  -46.7303 C.3       11 UNK         0.1400 
     19 N          -0.2496  -21.9893  -45.2917 N.am      11 UNK        -0.5000 
     20 C          -0.7004  -22.8978  -44.4141 C.2       10 UNK         0.5000 
     21 O          -0.9767  -24.0612  -44.7062 O.2       10 UNK        -0.5000 
     22 CA         -0.9404  -22.4021  -42.9792 C.3       10 UNK         0.1400 
     23 CB          0.3652  -22.4021  -42.1707 C.3       10 UNK        -0.1800 
     24 N          -1.5362  -21.0656  -42.9648 N.am      10 UNK        -0.5000 
     25 C          -2.7896  -20.7976  -43.3577 C.2       9 UNK         0.5000 
     26 O          -3.5869  -21.6569  -43.7335 O.2       9 UNK        -0.5000 
     27 CA         -3.2087  -19.3168  -43.3688 C.3       9 UNK         0.1400 
     28 CB         -3.6351  -18.8622  -41.9651 C.3       9 UNK        -0.1800 
     29 N          -2.1542  -18.4324  -43.8672 N.am      9 UNK        -0.5000 
     30 C          -1.7114  -18.4223  -45.1322 C.2       8 UNK         0.5000 
     31 O          -2.1392  -19.1632  -46.0159 O.2       8 UNK        -0.5000 
     32 CA         -0.5714  -17.4427  -45.4568 C.3       8 UNK         0.1400 
     33 CB         -1.1379  -16.0320  -45.6705 C.3       8 UNK        -0.1800 
     34 N           0.4834  -17.3833  -44.4421 N.am      8 UNK        -0.5000 
     35 C           1.1727  -18.4230  -43.9476 C.2       7 UNK         0.5000 
     36 O           0.9317  -19.5997  -44.2211 O.2       7 UNK        -0.5000 
     37 CA          2.3419  -18.0589  -43.0100 C.3       7 UNK         0.1400 
     38 CB          3.1960  -19.2707  -42.5848 C.3       7 UNK        -0.1800 
     39 N           3.1657  -16.9992  -43.5965 N.am      7 UNK        -0.5000 
     40 C           3.8620  -17.0461  -44.7427 C.2       6 UNK         0.5000 
     41 O           4.0617  -18.0736  -45.3910 O.2       6 UNK        -0.5000 
     42 CA          4.3917  -15.7054  -45.2839 C.3       6 UNK         0.1400 
     43 CB          3.5273  -15.2504  -46.4690 C.3       6 UNK        -0.1800 
     44 N           4.3905  -14.6513  -44.2667 N.am      6 UNK        -0.5000 
     45 C           5.4078  -14.4033  -43.4308 C.2       5 UNK         0.5000 
     46 O           6.4962  -14.9762  -43.4877 O.2       5 UNK        -0.5000 
     47 CA          5.1598  -13.3578  -42.3266 C.3       5 UNK         0.1400 
     48 CB          5.6134  -11.9634  -42.7816 C.3       5 UNK        -0.1800 
     49 N           3.7571  -13.3070  -41.9032 N.am      5 UNK        -0.5000 
     50 C           3.1749  -14.2490  -41.1452 C.2       4 UNK         0.5000 
     51 O           3.7696  -15.2381  -40.7175 O.2       4 UNK        -0.5000 
     52 CA          1.6753  -14.0907  -40.8281 C.3       4 UNK         0.1400 
     53 CB          1.4845  -13.4321  -39.4536 C.3       4 UNK        -0.1800 
     54 N           0.9268  -13.3289  -41.8279 N.am      4 UNK        -0.5000 
     55 C           0.7467  -13.6890  -43.1048 C.2       3 UNK         0.5000 
     56 O           1.2226  -14.7162  -43.5937 O.2       3 UNK        -0.5000 
     57 CA         -0.0831  -12.7419  -43.9956 C.3       3 UNK         0.1400 
     58 CB         -0.7467  -11.5707  -43.2368 C.3       3 UNK        -0.1800 
     59 N           0.6938  -12.2328  -45.1266 N.am      3 UNK        -0.5000 
     60 C           1.8536  -11.5584  -45.0756 C.2       2 UNK         0.5000 
     61 O           2.4506  -11.3182  -44.0244 O.2       2 UNK        -0.5000 
     62 CA          2.4567  -11.0714  -46.4103 C.3       2 UNK         0.1400 
     63 CB          3.9742  -11.3161  -46.4713 C.3       2 UNK        -0.1800 
     64 N           1.8188  -11.6988  -47.5716 N.am      2 UNK        -0.5000 
     65 C           0.8472  -11.1396  -48.3045 C.2       1 UNK         0.5000 
     66 O           0.4202   -9.9994  -48.1087 O.2       1 UNK        -0.5000 
     67 C          -1.4570  -22.5658  -47.3796 C.2       11 UNK         0.5000 
     68 O          -1.5428  -23.5760  -48.0751 O.2       11 UNK        -0.5000 
     69 N          -2.4961  -21.7637  -47.1034 N.am      12 UNK        -0.5000 
     70 CA         -3.8626  -21.9840  -47.5764 C.3       12 UNK         0.1400 
     71 CB         -4.7550  -20.8027  -47.1715 C.3       12 UNK        -0.1800 
     72 C          -4.4613  -23.3175  -47.0992 C.2       12 UNK         0.5000 
     73 O          -5.0867  -24.0105  -47.9010 O.2       12 UNK        -0.5000 
     74 N          -4.2247  -23.6729  -45.8284 N.am      13 UNK        -0.5000 
     75 CA         -4.6279  -24.9498  -45.2391 C.3       13 UNK         0.1400 
     76 CB         -4.3741  -24.9290  -43.7243 C.3       13 UNK        -0.1800 
     77 C          -3.9327  -26.1541  -45.9003 C.2       13 UNK         0.5000 
     78 O          -4.6104  -27.1158  -46.2640 O.2       13 UNK        -0.5000 
     79 N          -2.6073  -26.0658  -46.0868 N.am      14 UNK        -0.5000 
     80 CA         -1.7903  -27.0803  -46.7612 C.3       14 UNK         0.1400 
     81 CB         -0.3045  -26.7212  -46.6100 C.3       14 UNK        -0.1800 
     82 C          -2.1577  -27.2589  -48.2473 C.2       14 UNK         0.5000 
     83 O          -2.1656  -28.3838  -48.7476 O.2       14 UNK        -0.5000 
     84 N          -2.4923  -26.1459  -48.9097 N.am      15 UNK        -0.5000 
     85 CA         -2.9681  -26.0761  -50.2902 C.3       15 UNK         0.1400 
     86 CB         -2.7787  -24.6341  -50.7791 C.3       15 UNK        -0.1800 
     87 C          -4.4426  -26.4892  -50.4699 C.2       15 UNK         0.5000 
     88 O          -4.9223  -26.4836  -51.6064 O.2       15 UNK        -0.5000 
     89 N          -5.1518  -26.7645  -49.3626 N.am      16 UNK        -0.5000 
     90 CA         -6.5824  -27.0860  -49.2667 C.3       16 UNK         0.1400 
     91 CB         -6.8548  -28.4797  -49.8685 C.3       16 UNK        -0.1800 
     92 C          -7.4962  -25.9924  -49.8656 C.2       16 UNK         0.5000 
     93 O          -8.5765  -26.2989  -50.3722 O.2       16 UNK        -0.5000 
     94 N          -7.0121  -24.7409  -49.8368 N.am      17 UNK        -0.5000 
     95 CA         -7.5496  -23.5371  -50.4791 C.3       17 UNK         0.1400 
     96 CB         -8.8783  -23.1216  -49.8162 C.3       17 UNK        -0.1800 
     97 C          -7.6626  -23.6258  -52.0210 C.2       17 UNK         0.5000 
     98 O          -8.3273  -22.7804  -52.6219 O.2       17 UNK        -0.5000 
     99 N          -7.0241  -24.6301  -52.6392 N.am      18 UNK        -0.5000 
    100 CA        -7.1066  -24.9117  -54.0704 C.3       18 UNK         0.1400 
    101 CB        -7.2296  -26.4298  -54.2820 C.3       18 UNK        -0.1800 
    102 C         -5.8890  -24.3512  -54.8172 C.2       18 UNK         0.5000 
    103 O         -6.0612  -23.6543  -55.8177 O.2       18 UNK        -0.5000 
    104 N         -4.6819  -24.6629  -54.3231 N.am      19 UNK        -0.5000 
    105 CA        -3.4192  -24.2298  -54.9334 C.3       19 UNK         0.1400 
    106 CB        -2.3316  -25.2801  -54.6519 C.3       19 UNK        -0.1800 
    107 C         -2.9724  -22.8257  -54.4766 C.2       19 UNK         0.5000 
    108 O         -2.1141  -22.2259  -55.1250 O.2       19 UNK        -0.5000 
    109 N         -3.5521  -22.3274  -53.3774 N.am      20 UNK        -0.5000 
    110 CA        -3.3263  -20.9855  -52.8410 C.3       20 UNK         0.1400 
    111 CB        -3.5359  -21.0411  -51.3200 C.3       20 UNK        -0.1800 
    112 C         -4.2917  -19.9724  -53.4967 C.2       20 UNK         0.5000 
    113 O         -5.3111  -20.3892  -54.0487 O.2       20 UNK        -0.5000 
    114 N         -4.0396  -18.6590  -53.4426 N.am      21 UNK        -0.5000 
    115 CA        -2.8950  -17.9437  -52.8778 C.3       21 UNK         0.1400 
    116 CB        -3.3675  -17.1704  -51.6346 C.3       21 UNK        -0.1800 
    117 C         -2.3685  -16.9615  -53.9371 C.2       21 UNK         0.5000 
    118 O         -3.1053  -16.6065  -54.8616 O.2       21 UNK        -0.5000 
    119 N         -1.1156  -16.5210  -53.7769 N.am      22 UNK        -0.5000 
    120 CA        -0.4434  -15.5884  -54.7023 C.3       22 UNK         0.1400 
    121 C         -0.9195  -14.1073  -54.6045 C.2       22 UNK         0.5000 
    122 N         -1.7248  -13.7259  -53.6202 N.am      22 UNK        -0.7600 
    123 O         -0.5526  -13.2881  -55.4424 O.2       22 UNK        -0.5000 
    124 C124        1.1033  -15.6634  -54.6075 C.3       23 UNK        -0.0398 
    125 S125        1.7675  -17.3627  -54.7097 S.3       23 UNK        -0.2404 
    126 C126        2.5841  -17.5401  -53.0912 C.3       23 UNK        -0.0205 
    127 H127       -3.7469  -12.4346  -49.3759 H         1 UNK         0.0600 
    128 H128       -3.9141  -12.0128  -47.6686 H         1 UNK         0.0600 
    129 H129       -3.7212  -13.7027  -48.1472 H         1 UNK         0.0600 
    130 H130       -1.7489  -11.9446  -50.1436 H         1 UNK         0.3000 
    131 H131        0.3276  -11.3202  -50.3204 H         1 UNK         0.0600 
    132 H132        0.6367  -13.6122  -50.8131 H         1 UNK         0.0800 
    133 H133        2.0560  -13.0529  -50.0073 H         1 UNK         0.0800 
    134 H134       -1.0553  -16.0574  -48.6264 H         1 UNK         0.0800 
    135 H135       -1.0193  -15.1084  -50.0822 H         1 UNK         0.0800 
    136 H136        1.3811  -15.6809  -51.4935 H         1 UNK         0.1150 
    137 H137        1.6050  -19.9043  -52.1641 H         1 UNK         0.1150 
    138 H138       -0.8755  -18.3636  -49.0270 H         1 UNK         0.1150 
    139 H139       -1.0316  -20.7251  -49.6900 H         1 UNK         0.0800 
    140 H140       -0.1579  -21.3088  -51.0811 H         1 UNK         0.0800 
    141 H141       -0.0650  -20.1505  -47.4935 H         1 UNK         0.0800 
    142 H142        1.4554  -20.7030  -46.8584 H         1 UNK         0.0800 
    143 H143        0.5426  -23.0849  -46.8370 H         1 UNK         0.0600 
    144 H144        0.0022  -21.0674  -44.9432 H         1 UNK         0.3000 
    145 H145       -1.6371  -23.0911  -42.4969 H         1 UNK         0.0600 
    146 H146        0.1990  -22.0595  -41.1494 H         1 UNK         0.0600 
    147 H147        0.7841  -23.4075  -42.1129 H         1 UNK         0.0600 
    148 H148        1.1211  -21.7608  -42.6231 H         1 UNK         0.0600 
    149 H149       -0.9231  -20.2970  -42.7364 H         1 UNK         0.3000 
    150 H150       -4.0706  -19.2220  -44.0329 H         1 UNK         0.0600 
    151 H151       -4.4333  -19.4958  -41.5760 H         1 UNK         0.0600 
    152 H152       -4.0119  -17.8394  -41.9796 H         1 UNK         0.0600 
    153 H153       -2.8068  -18.9054  -41.2568 H         1 UNK         0.0600 
    154 H154       -1.7368  -17.7952  -43.2053 H         1 UNK         0.3000 
    155 H155       -0.1069  -17.7707  -46.3888 H         1 UNK         0.0600 
    156 H156       -0.3626  -15.3403  -46.0000 H         1 UNK         0.0600 
    157 H157       -1.5734  -15.6335  -44.7540 H         1 UNK         0.0600 
    158 H158       -1.9213  -16.0294  -46.4289 H         1 UNK         0.0600 
    159 H159        0.7707  -16.4489  -44.1608 H         1 UNK         0.3000 
    160 H160        1.8967  -17.6367  -42.1080 H         1 UNK         0.0600 
    161 H161        3.5922  -19.8149  -43.4424 H         1 UNK         0.0600 
    162 H162        2.6043  -19.9732  -41.9980 H         1 UNK         0.0600 
    163 H163        4.0376  -18.9607  -41.9654 H         1 UNK         0.0600 
    164 H164        3.0484  -16.0875  -43.1776 H         1 UNK         0.3000 
    165 H165        5.4073  -15.8754  -45.6475 H         1 UNK         0.0600 
    166 H166        2.5362  -14.9329  -46.1425 H         1 UNK         0.0600 
    167 H167        3.9918  -14.4260  -47.0065 H         1 UNK         0.0600 
    168 H168        3.3897  -16.0559  -47.1921 H         1 UNK         0.0600 
    169 H169        3.5225  -14.1503  -44.1345 H         1 UNK         0.3000 
    170 H170        5.7680  -13.6397  -41.4643 H         1 UNK         0.0600 
    171 H171        6.6718  -11.9649  -43.0451 H         1 UNK         0.0600 
    172 H172        5.0603  -11.6254  -43.6564 H         1 UNK         0.0600 
    173 H173        5.4756  -11.2253  -41.9914 H         1 UNK         0.0600 
    174 H174        3.1999  -12.5372  -42.2549 H         1 UNK         0.3000 
    175 H175        1.2451  -15.0936  -40.7880 H         1 UNK         0.0600 
    176 H176        1.8706  -12.4120  -39.4397 H         1 UNK         0.0600 
    177 H177        0.4311  -13.3973  -39.1749 H         1 UNK         0.0600 
    178 H178        2.0063  -13.9913  -38.6757 H         1 UNK         0.0600 
    179 H179        0.5253  -12.4557  -41.5186 H         1 UNK         0.3000 
    180 H180       -0.8830  -13.3474  -44.4210 H         1 UNK         0.0600 
    181 H181       -0.0140  -10.8943  -42.7953 H         1 UNK         0.0600 
    182 H182       -1.3960  -11.9328  -42.4387 H         1 UNK         0.0600 
    183 H183       -1.3707  -10.9818  -43.9095 H         1 UNK         0.0600 
    184 H184        0.2665  -12.3983  -46.0330 H         1 UNK         0.3000 
    185 H185        2.3035   -9.9911  -46.4454 H         1 UNK         0.0600 
    186 H186        4.3743  -11.0997  -47.4619 H         1 UNK         0.0600 
    187 H187        4.4960  -10.6670  -45.7678 H         1 UNK         0.0600 
    188 H188        4.2340  -12.3420  -46.2172 H         1 UNK         0.0600 
    189 H189        2.0680  -12.6608  -47.7596 H         1 UNK         0.3000 
    190 H190       -2.3423  -20.9246  -46.5486 H         1 UNK         0.3000 
    191 H191       -3.8287  -22.0180  -48.6651 H         1 UNK         0.0600 
    192 H192       -4.3887  -19.8692  -47.5992 H         1 UNK         0.0600 
    193 H193       -4.7953  -20.6817  -46.0887 H         1 UNK         0.0600 
    194 H194       -5.7766  -20.9444  -47.5264 H         1 UNK         0.0600 
    195 H195       -3.7433  -23.0206  -45.2178 H         1 UNK         0.3000 
    196 H196       -5.7026  -25.0615  -45.3977 H         1 UNK         0.0600 
    197 H197       -4.6861  -25.8667  -43.2631 H         1 UNK         0.0600 
    198 H198       -4.9346  -24.1275  -43.2428 H         1 UNK         0.0600 
    199 H199       -3.3191  -24.7837  -43.4924 H         1 UNK         0.0600 
    200 H200       -2.1149  -25.2477  -45.7374 H         1 UNK         0.3000 
    201 H201       -1.9632  -28.0351  -46.2605 H         1 UNK         0.0600 
    202 H202       -0.0162  -26.6730  -45.5598 H         1 UNK         0.0600 
    203 H203       -0.0763  -25.7556  -47.0629 H         1 UNK         0.0600 
    204 H204        0.3300  -27.4682  -47.0884 H         1 UNK         0.0600 
    205 H205       -2.3786  -25.2532  -48.4355 H         1 UNK         0.3000 
    206 H206       -2.3620  -26.7393  -50.9103 H         1 UNK         0.0600 
    207 H207       -1.7280  -24.3435  -50.7704 H         1 UNK         0.0600 
    208 H208       -3.1444  -24.5074  -51.7942 H         1 UNK         0.0600 
    209 H209       -3.3290  -23.9343  -50.1512 H         1 UNK         0.0600 
    210 H210       -4.6718  -26.6964  -48.4738 H         1 UNK         0.3000 
    211 H211       -6.8156  -27.1288  -48.2020 H         1 UNK         0.0600 
    212 H212       -6.6993  -28.4906  -50.9479 H         1 UNK         0.0600 
    213 H213       -7.8822  -28.7943  -49.6820 H         1 UNK         0.0600 
    214 H214       -6.2015  -29.2328  -49.4277 H         1 UNK         0.0600 
    215 H215       -6.1526  -24.5951  -49.3104 H         1 UNK         0.3000 
    216 H216       -6.8232  -22.7480  -50.2800 H         1 UNK         0.0600 
    217 H217       -8.7706  -23.0447  -48.7342 H         1 UNK         0.0600 
    218 H218       -9.6750  -23.8361  -50.0248 H         1 UNK         0.0600 
    219 H219       -9.2105  -22.1475  -50.1768 H         1 UNK         0.0600 
    220 H220       -6.4763  -25.2796  -52.0847 H         1 UNK         0.3000 
    221 H221       -8.0011  -24.4491  -54.4931 H         1 UNK         0.0600 
    222 H222       -6.3702  -26.9702  -53.8838 H         1 UNK         0.0600 
    223 H223       -8.1221  -26.8213  -53.7935 H         1 UNK         0.0600 
    224 H224       -7.3066  -26.6709  -55.3429 H         1 UNK         0.0600 
    225 H225       -4.6245  -25.2645  -53.5108 H         1 UNK         0.3000 
    226 H226       -3.5472  -24.1828  -56.0171 H         1 UNK         0.0600 
    227 H227       -2.6211  -26.2571  -55.0391 H         1 UNK         0.0600 
    228 H228       -1.3933  -25.0071  -55.1364 H         1 UNK         0.0600 
    229 H229       -2.1261  -25.3917  -53.5887 H         1 UNK         0.0600 
    230 H230       -4.3077  -22.8536  -52.9673 H         1 UNK         0.3000 
    231 H231       -2.2936  -20.7042  -53.0497 H         1 UNK         0.0600 
    232 H232       -3.3309  -20.0805  -50.8508 H         1 UNK         0.0600 
    233 H233       -2.8598  -21.7628  -50.8653 H         1 UNK         0.0600 
    234 H234       -4.5572  -21.3238  -51.0617 H         1 UNK         0.0600 
    235 H235       -4.6613  -18.0483  -53.9547 H         1 UNK         0.3000 
    236 H236       -2.0819  -18.6123  -52.5979 H         1 UNK         0.0600 
    237 H237       -3.7690  -17.8361  -50.8718 H         1 UNK         0.0600 
    238 H238       -2.5466  -16.6187  -51.1799 H         1 UNK         0.0600 
    239 H239       -4.1467  -16.4485  -51.8828 H         1 UNK         0.0600 
    240 H240       -0.5572  -16.8563  -53.0043 H         1 UNK         0.3000 
    241 H241       -0.7056  -15.9076  -55.7131 H         1 UNK         0.0600 
    242 H242       -2.0570  -14.3910  -52.9427 H         1 UNK         0.3800 
    243 H243       -2.0337  -12.7676  -53.5804 H         1 UNK         0.3800 
    244 H244        1.5511  -15.0968  -55.4258 H         1 UNK         0.0800 
    245 H245        1.4549  -15.1803  -53.6965 H         1 UNK         0.0800 
    246 H246        3.2016  -16.6638  -52.8877 H         1 UNK         0.0800 
    247 H247        3.2736  -18.3842  -53.1419 H         1 UNK         0.0800 
@<TRIPOS>BOND
     1    1    2 1    
     2    1  127 1    
     3    1  128 1    
     4    1  129 1    
     5    2    3 2    
     6    2    4 am   BACKBONE|DICT|INTERRES
     7    4    5 1    
     8    4  130 1    
     9    5    6 1    
    10    5   65 1    
    11    5  131 1    
    12    6    7 1    
    13    6  132 1    
    14    6  133 1    
    15    7    8 1    
    16    8    9 1    
    17    8  134 1    
    18    8  135 1    
    19    9   10 ar   
    20    9   14 ar   
    21   10   11 ar   
    22   10  136 1    
    23   11   12 ar   
    24   11  126 1    
    25   12   13 ar   
    26   12  137 1    
    27   13   14 ar   
    28   13   15 1    
    29   14  138 1    
    30   15   16 1    
    31   15  139 1    
    32   15  140 1    
    33   16   17 1    
    34   17   18 1    
    35   17  141 1    
    36   17  142 1    
    37   18   19 1    
    38   18   67 1    
    39   18  143 1    
    40   19   20 am   BACKBONE|DICT|INTERRES
    41   19  144 1    
    42   20   21 2    
    43   20   22 1    
    44   22   23 1    
    45   22   24 1    
    46   22  145 1    
    47   23  146 1    
    48   23  147 1    
    49   23  148 1    
    50   24   25 am   BACKBONE|DICT|INTERRES
    51   24  149 1    
    52   25   26 2    
    53   25   27 1    
    54   27   28 1    
    55   27   29 1    
    56   27  150 1    
    57   28  151 1    
    58   28  152 1    
    59   28  153 1    
    60   29   30 am   BACKBONE|DICT|INTERRES
    61   29  154 1    
    62   30   31 2    
    63   30   32 1    
    64   32   33 1    
    65   32   34 1    
    66   32  155 1    
    67   33  156 1    
    68   33  157 1    
    69   33  158 1    
    70   34   35 am   BACKBONE|DICT|INTERRES
    71   34  159 1    
    72   35   36 2    
    73   35   37 1    
    74   37   38 1    
    75   37   39 1    
    76   37  160 1    
    77   38  161 1    
    78   38  162 1    
    79   38  163 1    
    80   39   40 am   BACKBONE|DICT|INTERRES
    81   39  164 1    
    82   40   41 2    
    83   40   42 1    
    84   42   43 1    
    85   42   44 1    
    86   42  165 1    
    87   43  166 1    
    88   43  167 1    
    89   43  168 1    
    90   44   45 am   BACKBONE|DICT|INTERRES
    91   44  169 1    
    92   45   46 2    
    93   45   47 1    
    94   47   48 1    
    95   47   49 1    
    96   47  170 1    
    97   48  171 1    
    98   48  172 1    
    99   48  173 1    
   100   49   50 am   BACKBONE|DICT|INTERRES
   101   49  174 1    
   102   50   51 2    
   103   50   52 1    
   104   52   53 1    
   105   52   54 1    
   106   52  175 1    
   107   53  176 1    
   108   53  177 1    
   109   53  178 1    
   110   54   55 am   BACKBONE|DICT|INTERRES
   111   54  179 1    
   112   55   56 2    
   113   55   57 1    
   114   57   58 1    
   115   57   59 1    
   116   57  180 1    
   117   58  181 1    
   118   58  182 1    
   119   58  183 1    
   120   59   60 am   BACKBONE|DICT|INTERRES
   121   59  184 1    
   122   60   61 2    
   123   60   62 1    
   124   62   63 1    
   125   62   64 1    
   126   62  185 1    
   127   63  186 1    
   128   63  187 1    
   129   63  188 1    
   130   64   65 am   BACKBONE|DICT|INTERRES
   131   64  189 1    
   132   65   66 2    
   133   67   68 2    
   134   67   69 am   BACKBONE|DICT|INTERRES
   135   69   70 1    
   136   69  190 1    
   137   70   71 1    
   138   70   72 1    
   139   70  191 1    
   140   71  192 1    
   141   71  193 1    
   142   71  194 1    
   143   72   73 2    
   144   72   74 am   BACKBONE|DICT|INTERRES
   145   74   75 1    
   146   74  195 1    
   147   75   76 1    
   148   75   77 1    
   149   75  196 1    
   150   76  197 1    
   151   76  198 1    
   152   76  199 1    
   153   77   78 2    
   154   77   79 am   BACKBONE|DICT|INTERRES
   155   79   80 1    
   156   79  200 1    
   157   80   81 1    
   158   80   82 1    
   159   80  201 1    
   160   81  202 1    
   161   81  203 1    
   162   81  204 1    
   163   82   83 2    
   164   82   84 am   BACKBONE|DICT|INTERRES
   165   84   85 1    
   166   84  205 1    
   167   85   86 1    
   168   85   87 1    
   169   85  206 1    
   170   86  207 1    
   171   86  208 1    
   172   86  209 1    
   173   87   88 2    
   174   87   89 am   BACKBONE|DICT|INTERRES
   175   89   90 1    
   176   89  210 1    
   177   90   91 1    
   178   90   92 1    
   179   90  211 1    
   180   91  212 1    
   181   91  213 1    
   182   91  214 1    
   183   92   93 2    
   184   92   94 am   BACKBONE|DICT|INTERRES
   185   94   95 1    
   186   94  215 1    
   187   95   96 1    
   188   95   97 1    
   189   95  216 1    
   190   96  217 1    
   191   96  218 1    
   192   96  219 1    
   193   97   98 2    
   194   97   99 am   BACKBONE|DICT|INTERRES
   195   99  100 1    
   196   99  220 1    
   197  100  101 1    
   198  100  102 1    
   199  100  221 1    
   200  101  222 1    
   201  101  223 1    
   202  101  224 1    
   203  102  103 2    
   204  102  104 am   BACKBONE|DICT|INTERRES
   205  104  105 1    
   206  104  225 1    
   207  105  106 1    
   208  105  107 1    
   209  105  226 1    
   210  106  227 1    
   211  106  228 1    
   212  106  229 1    
   213  107  108 2    
   214  107  109 am   BACKBONE|DICT|INTERRES
   215  109  110 1    
   216  109  230 1    
   217  110  111 1    
   218  110  112 1    
   219  110  231 1    
   220  111  232 1    
   221  111  233 1    
   222  111  234 1    
   223  112  113 2    
   224  112  114 am   BACKBONE|DICT|INTERRES
   225  114  115 1    
   226  114  235 1    
   227  115  116 1    
   228  115  117 1    
   229  115  236 1    
   230  116  237 1    
   231  116  238 1    
   232  116  239 1    
   233  117  118 2    
   234  117  119 am   BACKBONE|DICT|INTERRES
   235  119  120 1    
   236  119  240 1    
   237  120  121 1    
   238  120  124 1    
   239  120  241 1    
   240  121  122 am   BACKBONE|DICT|INTERRES
   241  121  123 2    
   242  122  242 1    
   243  122  243 1    
   244  124  125 1    
   245  124  244 1    
   246  124  245 1    
   247  125  126 1    
   248  126  246 1    
   249  126  247 1    
@<TRIPOS>SUBSTRUCTURE
     1 UNK         1 GROUP             0       ****    0 ROOT    
