@<TRIPOS>MOLECULE
3R540
247   249    1
SMALL
USER_CHARGES


@<TRIPOS>ATOM
      1 CA          1.9942  -12.3458  -53.1085 C.3       0 UNK        -0.1800 
      2 C           2.1081  -11.9909  -51.6330 C.2       0 UNK         0.5000 
      3 O           2.3304  -10.8274  -51.2969 O.2       0 UNK        -0.5000 
      4 N           1.9591  -12.9901  -50.7566 N.am      1 UNK        -0.5000 
      5 CA          1.9721  -12.8281  -49.2992 C.3       1 UNK         0.1400 
      6 C6          2.4113  -14.1115  -48.5539 C.3       23 UNK        -0.0398 
      7 S7          4.0233  -14.8045  -49.0689 S.3       23 UNK        -0.2404 
      8 C8          3.5864  -16.0205  -50.3614 C.3       23 UNK        -0.0205 
      9 C9          2.7824  -17.2058  -49.8399 C.ar      23 UNK        -0.0193 
     10 C10         1.3879  -17.1503  -49.8381 C.ar      23 UNK        -0.1150 
     11 C11         0.6247  -18.2242  -49.3710 C.ar      23 UNK        -0.0193 
     12 C12         1.2824  -19.3890  -48.9757 C.ar      23 UNK        -0.1150 
     13 C13         2.6798  -19.4781  -48.9700 C.ar      23 UNK        -0.0193 
     14 C14         3.4209  -18.3692  -49.3968 C.ar      23 UNK        -0.1150 
     15 C15         3.4344  -20.7367  -48.5201 C.3       23 UNK        -0.0205 
     16 S16         2.4233  -22.1582  -47.9507 S.3       23 UNK        -0.2404 
     17 C17         1.8014  -21.5184  -46.3573 C.3       23 UNK        -0.0398 
     18 CA          0.6602  -22.3302  -45.6880 C.3       11 UNK         0.1400 
     19 N           0.3609  -21.7601  -44.3727 N.am      11 UNK        -0.5000 
     20 C          -0.2640  -22.3580  -43.3516 C.2       10 UNK         0.5000 
     21 O          -0.6369  -23.5322  -43.3750 O.2       10 UNK        -0.5000 
     22 CA         -0.5249  -21.4975  -42.0988 C.3       10 UNK         0.1400 
     23 CB          0.6330  -21.6406  -41.0998 C.3       10 UNK        -0.1800 
     24 N          -0.7221  -20.0778  -42.4062 N.am      10 UNK        -0.5000 
     25 C          -1.8049  -19.5719  -43.0155 C.2       9 UNK         0.5000 
     26 O          -2.7889  -20.2440  -43.3255 O.2       9 UNK        -0.5000 
     27 CA         -1.7743  -18.0685  -43.3615 C.3       9 UNK         0.1400 
     28 CB         -2.1991  -17.2129  -42.1593 C.3       9 UNK        -0.1800 
     29 N          -0.4637  -17.6235  -43.8371 N.am      9 UNK        -0.5000 
     30 C           0.1010  -18.0377  -44.9796 C.2       8 UNK         0.5000 
     31 O          -0.4541  -18.7845  -45.7812 O.2       8 UNK        -0.5000 
     32 CA          1.5433  -17.5784  -45.2501 C.3       8 UNK         0.1400 
     33 CB          1.5650  -16.2043  -45.9287 C.3       8 UNK        -0.1800 
     34 N           2.3518  -17.5464  -44.0308 N.am      8 UNK        -0.5000 
     35 C           2.7630  -18.6406  -43.3743 C.2       7 UNK         0.5000 
     36 O           2.5245  -19.7874  -43.7458 O.2       7 UNK        -0.5000 
     37 CA          3.5303  -18.4182  -42.0588 C.3       7 UNK         0.1400 
     38 CB          5.0120  -18.1259  -42.3382 C.3       7 UNK        -0.1800 
     39 N           2.9638  -17.3342  -41.2573 N.am      7 UNK        -0.5000 
     40 C           1.7423  -17.3547  -40.7048 C.2       6 UNK         0.5000 
     41 O           0.9791  -18.3177  -40.7674 O.2       6 UNK        -0.5000 
     42 CA          1.2769  -16.0559  -40.0195 C.3       6 UNK         0.1400 
     43 CB          1.7118  -16.0355  -38.5468 C.3       6 UNK        -0.1800 
     44 N           1.7674  -14.8475  -40.6908 N.am      6 UNK        -0.5000 
     45 C           1.4606  -14.5070  -41.9491 C.2       5 UNK         0.5000 
     46 O           0.7341  -15.1829  -42.6825 O.2       5 UNK        -0.5000 
     47 CA          2.1368  -13.2457  -42.5060 C.3       5 UNK         0.1400 
     48 CB          3.4162  -13.6236  -43.2694 C.3       5 UNK        -0.1800 
     49 N           1.2273  -12.5629  -43.4189 N.am      5 UNK        -0.5000 
     50 C           0.3007  -11.6720  -43.0458 C.2       4 UNK         0.5000 
     51 O           0.1987  -11.2221  -41.9036 O.2       4 UNK        -0.5000 
     52 CA         -0.6906  -11.2240  -44.1342 C.3       4 UNK         0.1400 
     53 CB         -0.1425  -10.0125  -44.9032 C.3       4 UNK        -0.1800 
     54 N          -0.9993  -12.2986  -45.0798 N.am      4 UNK        -0.5000 
     55 C          -1.7815  -13.3529  -44.7959 C.2       3 UNK         0.5000 
     56 O          -2.3263  -13.5123  -43.7026 O.2       3 UNK        -0.5000 
     57 CA         -1.9893  -14.4006  -45.9141 C.3       3 UNK         0.1400 
     58 CB         -3.3490  -15.1219  -45.8175 C.3       3 UNK        -0.1800 
     59 N          -1.7749  -13.8719  -47.2662 N.am      3 UNK        -0.5000 
     60 C          -2.4286  -12.8690  -47.8728 C.2       2 UNK         0.5000 
     61 O          -3.3899  -12.2799  -47.3761 O.2       2 UNK        -0.5000 
     62 CA         -1.8970  -12.4385  -49.2600 C.3       2 UNK         0.1400 
     63 CB         -2.1437  -10.9424  -49.5417 C.3       2 UNK        -0.1800 
     64 N          -0.4843  -12.7644  -49.5039 N.am      2 UNK        -0.5000 
     65 C           0.5857  -12.3876  -48.7812 C.2       1 UNK         0.5000 
     66 O           0.5106  -11.7558  -47.7264 O.2       1 UNK        -0.5000 
     67 C          -0.6316  -22.4461  -46.5352 C.2       11 UNK         0.5000 
     68 O          -0.8053  -21.7375  -47.5247 O.2       11 UNK        -0.5000 
     69 N          -1.5429  -23.3328  -46.1171 N.am      12 UNK        -0.5000 
     70 CA         -2.7650  -23.6482  -46.8543 C.3       12 UNK         0.1400 
     71 CB         -3.7961  -24.2786  -45.9063 C.3       12 UNK        -0.1800 
     72 C          -2.4819  -24.5694  -48.0514 C.2       12 UNK         0.5000 
     73 O          -2.9746  -24.3061  -49.1494 O.2       12 UNK        -0.5000 
     74 N          -1.6793  -25.6152  -47.8008 N.am      13 UNK        -0.5000 
     75 CA         -1.3876  -26.7619  -48.6690 C.3       13 UNK         0.1400 
     76 CB         -0.7846  -26.3148  -50.0170 C.3       13 UNK        -0.1800 
     77 C          -2.6066  -27.6911  -48.8553 C.2       13 UNK         0.5000 
     78 O          -3.6973  -27.4141  -48.3460 O.2       13 UNK        -0.5000 
     79 N          -2.3895  -28.8075  -49.5642 N.am      14 UNK        -0.5000 
     80 CA         -3.4045  -29.8146  -49.8808 C.3       14 UNK         0.1400 
     81 CB         -2.7522  -30.9621  -50.6667 C.3       14 UNK        -0.1800 
     82 C          -4.5734  -29.2063  -50.6748 C.2       14 UNK         0.5000 
     83 O          -4.3343  -28.5174  -51.6675 O.2       14 UNK        -0.5000 
     84 N          -5.8035  -29.4279  -50.1906 N.am      15 UNK        -0.5000 
     85 CA         -7.0654  -28.8847  -50.7150 C.3       15 UNK         0.1400 
     86 CB         -7.3875  -29.5058  -52.0907 C.3       15 UNK        -0.1800 
     87 C          -7.1248  -27.3379  -50.7369 C.2       15 UNK         0.5000 
     88 O          -7.8844  -26.7696  -51.5229 O.2       15 UNK        -0.5000 
     89 N          -6.3166  -26.6893  -49.8819 N.am      16 UNK        -0.5000 
     90 CA         -6.1067  -25.2416  -49.7770 C.3       16 UNK         0.1400 
     91 CB         -7.3938  -24.5243  -49.3182 C.3       16 UNK        -0.1800 
     92 C          -5.4918  -24.6152  -51.0504 C.2       16 UNK         0.5000 
     93 O          -5.7206  -23.4355  -51.3194 O.2       16 UNK        -0.5000 
     94 N          -4.7244  -25.4058  -51.8175 N.am      17 UNK        -0.5000 
     95 CA         -4.1786  -25.0330  -53.1248 C.3       17 UNK         0.1400 
     96 CB         -3.4874  -26.2504  -53.7559 C.3       17 UNK        -0.1800 
     97 C          -3.2251  -23.8234  -53.1247 C.2       17 UNK         0.5000 
     98 O          -3.1922  -23.0991  -54.1205 O.2       17 UNK        -0.5000 
     99 N          -2.4738  -23.6127  -52.0341 N.am      18 UNK        -0.5000 
    100 CA        -1.5912  -22.4538  -51.8933 C.3       18 UNK         0.1400 
    101 CB        -0.4546  -22.7456  -50.9028 C.3       18 UNK        -0.1800 
    102 C         -2.3898  -21.2095  -51.4845 C.2       18 UNK         0.5000 
    103 O         -2.2130  -20.1563  -52.0962 O.2       18 UNK        -0.5000 
    104 N         -3.2920  -21.3660  -50.5038 N.am      19 UNK        -0.5000 
    105 CA        -4.1873  -20.3149  -50.0077 C.3       19 UNK         0.1400 
    106 CB        -4.9437  -20.8199  -48.7707 C.3       19 UNK        -0.1800 
    107 C         -5.1687  -19.7771  -51.0666 C.2       19 UNK         0.5000 
    108 O         -5.5317  -18.6021  -51.0126 O.2       19 UNK        -0.5000 
    109 N         -5.5561  -20.6304  -52.0235 N.am      20 UNK        -0.5000 
    110 CA        -6.3859  -20.2847  -53.1785 C.3       20 UNK         0.1400 
    111 CB        -6.7758  -21.5761  -53.9143 C.3       20 UNK        -0.1800 
    112 C         -5.7199  -19.2907  -54.1537 C.2       20 UNK         0.5000 
    113 O         -6.4351  -18.5992  -54.8803 O.2       20 UNK        -0.5000 
    114 N         -4.3815  -19.2344  -54.1563 N.am      21 UNK        -0.5000 
    115 CA        -3.5843  -18.2985  -54.9426 C.3       21 UNK         0.1400 
    116 CB        -2.4410  -19.0656  -55.6333 C.3       21 UNK        -0.1800 
    117 C         -3.0738  -17.1812  -54.0191 C.2       21 UNK         0.5000 
    118 O         -3.6143  -16.0755  -54.0401 O.2       21 UNK        -0.5000 
    119 N         -2.0592  -17.5084  -53.2102 N.am      22 UNK        -0.5000 
    120 CA        -1.4544  -16.6816  -52.1543 C.3       22 UNK         0.1400 
    121 C         -0.7448  -15.3692  -52.6084 C.2       22 UNK         0.5000 
    122 N         -0.5037  -15.1572  -53.8952 N.am      22 UNK        -0.7600 
    123 O         -0.3631  -14.5476  -51.7787 O.2       22 UNK        -0.5000 
    124 C124       -2.4307  -16.4779  -50.9607 C.3       23 UNK        -0.0398 
    125 S125       -1.6414  -16.5123  -49.3154 S.3       23 UNK        -0.2404 
    126 C126       -0.9012  -18.1833  -49.2728 C.3       23 UNK        -0.0205 
    127 H127        2.8363  -11.9313  -53.6626 H         1 UNK         0.0600 
    128 H128        1.0739  -11.9336  -53.5222 H         1 UNK         0.0600 
    129 H129        1.9871  -13.4250  -53.2628 H         1 UNK         0.0600 
    130 H130        1.6975  -13.9034  -51.1019 H         1 UNK         0.3000 
    131 H131        2.6822  -12.0392  -49.0419 H         1 UNK         0.0600 
    132 H132        1.6423  -14.8752  -48.6175 H         1 UNK         0.0800 
    133 H133        2.5031  -13.8846  -47.4904 H         1 UNK         0.0800 
    134 H134        3.0429  -15.5244  -51.1657 H         1 UNK         0.0800 
    135 H135        4.5102  -16.3838  -50.8139 H         1 UNK         0.0800 
    136 H136        0.9039  -16.2553  -50.1946 H         1 UNK         0.1150 
    137 H137        0.6822  -20.2245  -48.6610 H         1 UNK         0.1150 
    138 H138        4.5009  -18.4173  -49.4010 H         1 UNK         0.1150 
    139 H139        4.0460  -21.0803  -49.3553 H         1 UNK         0.0800 
    140 H140        4.1292  -20.4656  -47.7238 H         1 UNK         0.0800 
    141 H141        1.4882  -20.4845  -46.4842 H         1 UNK         0.0800 
    142 H142        2.6595  -21.4883  -45.6854 H         1 UNK         0.0800 
    143 H143        1.0324  -23.3454  -45.5359 H         1 UNK         0.0600 
    144 H144        0.6599  -20.8024  -44.2384 H         1 UNK         0.3000 
    145 H145       -1.4330  -21.8734  -41.6231 H         1 UNK         0.0600 
    146 H146        0.4269  -21.0970  -40.1776 H         1 UNK         0.0600 
    147 H147        0.7932  -22.6859  -40.8327 H         1 UNK         0.0600 
    148 H148        1.5681  -21.2584  -41.5109 H         1 UNK         0.0600 
    149 H149        0.0114  -19.4423  -42.1081 H         1 UNK         0.3000 
    150 H150       -2.4933  -17.9004  -44.1660 H         1 UNK         0.0600 
    151 H151       -3.2034  -17.4789  -41.8279 H         1 UNK         0.0600 
    152 H152       -2.2092  -16.1525  -42.4136 H         1 UNK         0.0600 
    153 H153       -1.5277  -17.3470  -41.3114 H         1 UNK         0.0600 
    154 H154        0.0363  -16.9560  -43.2581 H         1 UNK         0.3000 
    155 H155        1.9973  -18.2903  -45.9418 H         1 UNK         0.0600 
    156 H156        2.5801  -15.9368  -46.2214 H         1 UNK         0.0600 
    157 H157        1.1801  -15.4181  -45.2803 H         1 UNK         0.0600 
    158 H158        0.9541  -16.2176  -46.8318 H         1 UNK         0.0600 
    159 H159        2.5334  -16.6399  -43.6281 H         1 UNK         0.3000 
    160 H160        3.4666  -19.3395  -41.4759 H         1 UNK         0.0600 
    161 H161        5.1433  -17.1979  -42.8962 H         1 UNK         0.0600 
    162 H162        5.4635  -18.9279  -42.9238 H         1 UNK         0.0600 
    163 H163        5.5791  -18.0436  -41.4109 H         1 UNK         0.0600 
    164 H164        3.5251  -16.5026  -41.1506 H         1 UNK         0.3000 
    165 H165        0.1858  -16.0373  -40.0537 H         1 UNK         0.0600 
    166 H166        1.3169  -15.1601  -38.0310 H         1 UNK         0.0600 
    167 H167        1.3423  -16.9159  -38.0191 H         1 UNK         0.0600 
    168 H168        2.7978  -16.0241  -38.4463 H         1 UNK         0.0600 
    169 H169        2.3781  -14.2494  -40.1528 H         1 UNK         0.3000 
    170 H170        2.4032  -12.5814  -41.6811 H         1 UNK         0.0600 
    171 H171        4.1278  -14.1306  -42.6165 H         1 UNK         0.0600 
    172 H172        3.2086  -14.2881  -44.1088 H         1 UNK         0.0600 
    173 H173        3.9139  -12.7370  -43.6628 H         1 UNK         0.0600 
    174 H174        1.1947  -12.9098  -44.3652 H         1 UNK         0.3000 
    175 H175       -1.6168  -10.9217  -43.6408 H         1 UNK         0.0600 
    176 H176        0.7964  -10.2457  -45.4068 H         1 UNK         0.0600 
    177 H177       -0.8510   -9.6714  -45.6585 H         1 UNK         0.0600 
    178 H178        0.0452   -9.1754  -44.2297 H         1 UNK         0.0600 
    179 H179       -0.5998  -12.2136  -46.0085 H         1 UNK         0.3000 
    180 H180       -1.2174  -15.1541  -45.7588 H         1 UNK         0.0600 
    181 H181       -3.4481  -15.8782  -46.5963 H         1 UNK         0.0600 
    182 H182       -4.1838  -14.4275  -45.9139 H         1 UNK         0.0600 
    183 H183       -3.4563  -15.6307  -44.8590 H         1 UNK         0.0600 
    184 H184       -1.0283  -14.3057  -47.7890 H         1 UNK         0.3000 
    185 H185       -2.4677  -13.0131  -49.9910 H         1 UNK         0.0600 
    186 H186       -3.2077  -10.7051  -49.5122 H         1 UNK         0.0600 
    187 H187       -1.6451  -10.3077  -48.8082 H         1 UNK         0.0600 
    188 H188       -1.7788  -10.6628  -50.5301 H         1 UNK         0.0600 
    189 H189       -0.3213  -13.3214  -50.3407 H         1 UNK         0.3000 
    190 H190       -1.3792  -23.8121  -45.2381 H         1 UNK         0.3000 
    191 H191       -3.1906  -22.7230  -47.2405 H         1 UNK         0.0600 
    192 H192       -4.7192  -24.5151  -46.4374 H         1 UNK         0.0600 
    193 H193       -4.0526  -23.5958  -45.0960 H         1 UNK         0.0600 
    194 H194       -3.4274  -25.2035  -45.4614 H         1 UNK         0.0600 
    195 H195       -1.3405  -25.7091  -46.8548 H         1 UNK         0.3000 
    196 H196       -0.6300  -27.3437  -48.1422 H         1 UNK         0.0600 
    197 H197       -1.5346  -25.8765  -50.6740 H         1 UNK         0.0600 
    198 H198        0.0084  -25.5825  -49.8683 H         1 UNK         0.0600 
    199 H199       -0.3446  -27.1570  -50.5513 H         1 UNK         0.0600 
    200 H200       -1.4752  -28.9607  -49.9628 H         1 UNK         0.3000 
    201 H201       -3.7823  -30.2141  -48.9374 H         1 UNK         0.0600 
    202 H202       -2.3276  -30.6137  -51.6093 H         1 UNK         0.0600 
    203 H203       -3.4823  -31.7373  -50.9027 H         1 UNK         0.0600 
    204 H204       -1.9543  -31.4322  -50.0916 H         1 UNK         0.0600 
    205 H205       -5.8926  -29.9864  -49.3528 H         1 UNK         0.3000 
    206 H206       -7.8444  -29.2025  -50.0207 H         1 UNK         0.0600 
    207 H207       -7.3463  -30.5943  -52.0517 H         1 UNK         0.0600 
    208 H208       -8.3909  -29.2334  -52.4198 H         1 UNK         0.0600 
    209 H209       -6.6901  -29.1709  -52.8592 H         1 UNK         0.0600 
    210 H210       -5.7018  -27.2457  -49.2989 H         1 UNK         0.3000 
    211 H211       -5.3737  -25.1111  -48.9830 H         1 UNK         0.0600 
    212 H212       -7.1945  -23.4801  -49.0765 H         1 UNK         0.0600 
    213 H213       -7.8070  -24.9889  -48.4231 H         1 UNK         0.0600 
    214 H214       -8.1633  -24.5362  -50.0903 H         1 UNK         0.0600 
    215 H215       -4.5939  -26.3718  -51.5401 H         1 UNK         0.3000 
    216 H216       -5.0267  -24.7652  -53.7582 H         1 UNK         0.0600 
    217 H217       -2.6876  -26.6319  -53.1199 H         1 UNK         0.0600 
    218 H218       -3.0489  -25.9988  -54.7225 H         1 UNK         0.0600 
    219 H219       -4.1972  -27.0597  -53.9270 H         1 UNK         0.0600 
    220 H220       -2.6101  -24.1922  -51.2131 H         1 UNK         0.3000 
    221 H221       -1.1254  -22.2426  -52.8585 H         1 UNK         0.0600 
    222 H222        0.1975  -21.8782  -50.7918 H         1 UNK         0.0600 
    223 H223        0.1640  -23.5731  -51.2486 H         1 UNK         0.0600 
    224 H224       -0.8272  -22.9950  -49.9114 H         1 UNK         0.0600 
    225 H225       -3.3824  -22.2813  -50.0809 H         1 UNK         0.3000 
    226 H226       -3.5699  -19.4711  -49.6964 H         1 UNK         0.0600 
    227 H227       -4.2740  -20.9034  -47.9166 H         1 UNK         0.0600 
    228 H228       -5.7363  -20.1286  -48.4808 H         1 UNK         0.0600 
    229 H229       -5.4026  -21.7932  -48.9459 H         1 UNK         0.0600 
    230 H230       -5.2982  -21.6083  -51.9266 H         1 UNK         0.3000 
    231 H231       -7.2979  -19.8148  -52.8052 H         1 UNK         0.0600 
    232 H232       -7.3353  -22.2479  -53.2630 H         1 UNK         0.0600 
    233 H233       -5.8971  -22.1129  -54.2740 H         1 UNK         0.0600 
    234 H234       -7.4072  -21.3615  -54.7774 H         1 UNK         0.0600 
    235 H235       -3.8737  -19.7992  -53.4861 H         1 UNK         0.3000 
    236 H236       -4.1886  -17.8316  -55.7232 H         1 UNK         0.0600 
    237 H237       -2.8357  -19.7634  -56.3720 H         1 UNK         0.0600 
    238 H238       -1.7713  -18.3832  -56.1581 H         1 UNK         0.0600 
    239 H239       -1.8424  -19.6431  -54.9277 H         1 UNK         0.0600 
    240 H240       -1.7529  -18.4746  -53.2116 H         1 UNK         0.3000 
    241 H241       -0.6302  -17.3063  -51.8183 H         1 UNK         0.0600 
    242 H242       -0.0440  -14.3090  -54.1812 H         1 UNK         0.3800 
    243 H243       -0.8060  -15.8227  -54.5876 H         1 UNK         0.3800 
    244 H244       -2.9896  -15.5472  -51.0695 H         1 UNK         0.0800 
    245 H245       -3.1846  -17.2651  -50.9520 H         1 UNK         0.0800 
    246 H246       -1.3163  -18.7983  -50.0680 H         1 UNK         0.0800 
    247 H247       -1.2083  -18.6556  -48.3385 H         1 UNK         0.0800 
@<TRIPOS>BOND
     1    1    2 1    
     2    1  127 1    
     3    1  128 1    
     4    1  129 1    
     5    2    3 2    
     6    2    4 am   BACKBONE|DICT|INTERRES
     7    4    5 1    
     8    4  130 1    
     9    5    6 1    
    10    5   65 1    
    11    5  131 1    
    12    6    7 1    
    13    6  132 1    
    14    6  133 1    
    15    7    8 1    
    16    8    9 1    
    17    8  134 1    
    18    8  135 1    
    19    9   10 ar   
    20    9   14 ar   
    21   10   11 ar   
    22   10  136 1    
    23   11   12 ar   
    24   11  126 1    
    25   12   13 ar   
    26   12  137 1    
    27   13   14 ar   
    28   13   15 1    
    29   14  138 1    
    30   15   16 1    
    31   15  139 1    
    32   15  140 1    
    33   16   17 1    
    34   17   18 1    
    35   17  141 1    
    36   17  142 1    
    37   18   19 1    
    38   18   67 1    
    39   18  143 1    
    40   19   20 am   BACKBONE|DICT|INTERRES
    41   19  144 1    
    42   20   21 2    
    43   20   22 1    
    44   22   23 1    
    45   22   24 1    
    46   22  145 1    
    47   23  146 1    
    48   23  147 1    
    49   23  148 1    
    50   24   25 am   BACKBONE|DICT|INTERRES
    51   24  149 1    
    52   25   26 2    
    53   25   27 1    
    54   27   28 1    
    55   27   29 1    
    56   27  150 1    
    57   28  151 1    
    58   28  152 1    
    59   28  153 1    
    60   29   30 am   BACKBONE|DICT|INTERRES
    61   29  154 1    
    62   30   31 2    
    63   30   32 1    
    64   32   33 1    
    65   32   34 1    
    66   32  155 1    
    67   33  156 1    
    68   33  157 1    
    69   33  158 1    
    70   34   35 am   BACKBONE|DICT|INTERRES
    71   34  159 1    
    72   35   36 2    
    73   35   37 1    
    74   37   38 1    
    75   37   39 1    
    76   37  160 1    
    77   38  161 1    
    78   38  162 1    
    79   38  163 1    
    80   39   40 am   BACKBONE|DICT|INTERRES
    81   39  164 1    
    82   40   41 2    
    83   40   42 1    
    84   42   43 1    
    85   42   44 1    
    86   42  165 1    
    87   43  166 1    
    88   43  167 1    
    89   43  168 1    
    90   44   45 am   BACKBONE|DICT|INTERRES
    91   44  169 1    
    92   45   46 2    
    93   45   47 1    
    94   47   48 1    
    95   47   49 1    
    96   47  170 1    
    97   48  171 1    
    98   48  172 1    
    99   48  173 1    
   100   49   50 am   BACKBONE|DICT|INTERRES
   101   49  174 1    
   102   50   51 2    
   103   50   52 1    
   104   52   53 1    
   105   52   54 1    
   106   52  175 1    
   107   53  176 1    
   108   53  177 1    
   109   53  178 1    
   110   54   55 am   BACKBONE|DICT|INTERRES
   111   54  179 1    
   112   55   56 2    
   113   55   57 1    
   114   57   58 1    
   115   57   59 1    
   116   57  180 1    
   117   58  181 1    
   118   58  182 1    
   119   58  183 1    
   120   59   60 am   BACKBONE|DICT|INTERRES
   121   59  184 1    
   122   60   61 2    
   123   60   62 1    
   124   62   63 1    
   125   62   64 1    
   126   62  185 1    
   127   63  186 1    
   128   63  187 1    
   129   63  188 1    
   130   64   65 am   BACKBONE|DICT|INTERRES
   131   64  189 1    
   132   65   66 2    
   133   67   68 2    
   134   67   69 am   BACKBONE|DICT|INTERRES
   135   69   70 1    
   136   69  190 1    
   137   70   71 1    
   138   70   72 1    
   139   70  191 1    
   140   71  192 1    
   141   71  193 1    
   142   71  194 1    
   143   72   73 2    
   144   72   74 am   BACKBONE|DICT|INTERRES
   145   74   75 1    
   146   74  195 1    
   147   75   76 1    
   148   75   77 1    
   149   75  196 1    
   150   76  197 1    
   151   76  198 1    
   152   76  199 1    
   153   77   78 2    
   154   77   79 am   BACKBONE|DICT|INTERRES
   155   79   80 1    
   156   79  200 1    
   157   80   81 1    
   158   80   82 1    
   159   80  201 1    
   160   81  202 1    
   161   81  203 1    
   162   81  204 1    
   163   82   83 2    
   164   82   84 am   BACKBONE|DICT|INTERRES
   165   84   85 1    
   166   84  205 1    
   167   85   86 1    
   168   85   87 1    
   169   85  206 1    
   170   86  207 1    
   171   86  208 1    
   172   86  209 1    
   173   87   88 2    
   174   87   89 am   BACKBONE|DICT|INTERRES
   175   89   90 1    
   176   89  210 1    
   177   90   91 1    
   178   90   92 1    
   179   90  211 1    
   180   91  212 1    
   181   91  213 1    
   182   91  214 1    
   183   92   93 2    
   184   92   94 am   BACKBONE|DICT|INTERRES
   185   94   95 1    
   186   94  215 1    
   187   95   96 1    
   188   95   97 1    
   189   95  216 1    
   190   96  217 1    
   191   96  218 1    
   192   96  219 1    
   193   97   98 2    
   194   97   99 am   BACKBONE|DICT|INTERRES
   195   99  100 1    
   196   99  220 1    
   197  100  101 1    
   198  100  102 1    
   199  100  221 1    
   200  101  222 1    
   201  101  223 1    
   202  101  224 1    
   203  102  103 2    
   204  102  104 am   BACKBONE|DICT|INTERRES
   205  104  105 1    
   206  104  225 1    
   207  105  106 1    
   208  105  107 1    
   209  105  226 1    
   210  106  227 1    
   211  106  228 1    
   212  106  229 1    
   213  107  108 2    
   214  107  109 am   BACKBONE|DICT|INTERRES
   215  109  110 1    
   216  109  230 1    
   217  110  111 1    
   218  110  112 1    
   219  110  231 1    
   220  111  232 1    
   221  111  233 1    
   222  111  234 1    
   223  112  113 2    
   224  112  114 am   BACKBONE|DICT|INTERRES
   225  114  115 1    
   226  114  235 1    
   227  115  116 1    
   228  115  117 1    
   229  115  236 1    
   230  116  237 1    
   231  116  238 1    
   232  116  239 1    
   233  117  118 2    
   234  117  119 am   BACKBONE|DICT|INTERRES
   235  119  120 1    
   236  119  240 1    
   237  120  121 1    
   238  120  124 1    
   239  120  241 1    
   240  121  122 am   BACKBONE|DICT|INTERRES
   241  121  123 2    
   242  122  242 1    
   243  122  243 1    
   244  124  125 1    
   245  124  244 1    
   246  124  245 1    
   247  125  126 1    
   248  126  246 1    
   249  126  247 1    
@<TRIPOS>SUBSTRUCTURE
     1 UNK         1 GROUP             0       ****    0 ROOT    
