@<TRIPOS>MOLECULE
3R540
247   249    1
SMALL
USER_CHARGES


@<TRIPOS>ATOM
      1 CA         -4.2507  -10.0516  -46.7301 C.3       0 UNK        -0.1800 
      2 C          -3.0019  -10.8931  -46.5130 C.2       0 UNK         0.5000 
      3 O          -2.3342  -10.7452  -45.4895 O.2       0 UNK        -0.5000 
      4 N          -2.6928  -11.7884  -47.4613 N.am      1 UNK        -0.5000 
      5 CA         -1.5302  -12.6885  -47.4451 C.3       1 UNK         0.1400 
      6 C6         -1.3840  -13.4963  -48.7610 C.3       23 UNK        -0.0398 
      7 S7         -2.9035  -14.3722  -49.2822 S.3       23 UNK        -0.2404 
      8 C8         -2.5579  -16.0891  -48.7615 C.3       23 UNK        -0.0205 
      9 C9         -1.5688  -16.8827  -49.6192 C.ar      23 UNK        -0.0193 
     10 C10        -1.0065  -16.3977  -50.8072 C.ar      23 UNK        -0.1150 
     11 C11        -0.1399  -17.1939  -51.5620 C.ar      23 UNK        -0.0193 
     12 C12         0.1687  -18.4851  -51.1247 C.ar      23 UNK        -0.1150 
     13 C13        -0.3840  -18.9905  -49.9446 C.ar      23 UNK        -0.0193 
     14 C14        -1.2423  -18.1744  -49.1994 C.ar      23 UNK        -0.1150 
     15 C15        -0.0275  -20.4055  -49.4887 C.3       23 UNK        -0.0205 
     16 S16        -1.4760  -21.4278  -49.0363 S.3       23 UNK        -0.2404 
     17 C17        -1.6879  -21.0021  -47.2746 C.3       23 UNK        -0.0398 
     18 CA         -1.4962  -22.1953  -46.3090 C.3       11 UNK         0.1400 
     19 N          -0.9246  -21.7422  -45.0314 N.am      11 UNK        -0.5000 
     20 C          -0.6059  -22.5010  -43.9732 C.2       10 UNK         0.5000 
     21 O          -0.8226  -23.7114  -43.9206 O.2       10 UNK        -0.5000 
     22 CA          0.0515  -21.8072  -42.7628 C.3       10 UNK         0.1400 
     23 CB          1.4725  -22.3507  -42.5470 C.3       10 UNK        -0.1800 
     24 N           0.1124  -20.3452  -42.8596 N.am      10 UNK        -0.5000 
     25 C          -0.9252  -19.5100  -42.7069 C.2       9 UNK         0.5000 
     26 O          -2.0758  -19.8877  -42.4852 O.2       9 UNK        -0.5000 
     27 CA         -0.6296  -18.0057  -42.8695 C.3       9 UNK         0.1400 
     28 CB         -0.0040  -17.4262  -41.5918 C.3       9 UNK        -0.1800 
     29 N           0.2525  -17.7398  -44.0066 N.am      9 UNK        -0.5000 
     30 C          -0.0986  -17.8919  -45.2902 C.2       8 UNK         0.5000 
     31 O          -1.2437  -18.1612  -45.6496 O.2       8 UNK        -0.5000 
     32 CA          1.0191  -17.7873  -46.3448 C.3       8 UNK         0.1400 
     33 CB          1.1780  -16.3576  -46.8728 C.3       8 UNK        -0.1800 
     34 N           2.3031  -18.2623  -45.8359 N.am      8 UNK        -0.5000 
     35 C           2.6332  -19.5544  -45.7096 C.2       7 UNK         0.5000 
     36 O           1.9004  -20.4833  -46.0481 O.2       7 UNK        -0.5000 
     37 CA          4.0056  -19.8567  -45.0782 C.3       7 UNK         0.1400 
     38 CB          5.0938  -19.9133  -46.1605 C.3       7 UNK        -0.1800 
     39 N           4.3915  -18.8790  -44.0575 N.am      7 UNK        -0.5000 
     40 C           3.7726  -18.7365  -42.8771 C.2       6 UNK         0.5000 
     41 O           2.8263  -19.4334  -42.5166 O.2       6 UNK        -0.5000 
     42 CA          4.2518  -17.5848  -41.9745 C.3       6 UNK         0.1400 
     43 CB          5.4562  -18.0249  -41.1294 C.3       6 UNK        -0.1800 
     44 N           4.5939  -16.3688  -42.7183 N.am      6 UNK        -0.5000 
     45 C           3.7329  -15.6698  -43.4695 C.2       5 UNK         0.5000 
     46 O           2.5605  -16.0029  -43.6517 O.2       5 UNK        -0.5000 
     47 CA          4.3026  -14.4359  -44.1912 C.3       5 UNK         0.1400 
     48 CB          4.8763  -14.8450  -45.5571 C.3       5 UNK        -0.1800 
     49 N           3.3041  -13.3867  -44.3990 N.am      5 UNK        -0.5000 
     50 C           2.7097  -12.6763  -43.4310 C.2       4 UNK         0.5000 
     51 O           2.9440  -12.8340  -42.2313 O.2       4 UNK        -0.5000 
     52 CA          1.7208  -11.5768  -43.8678 C.3       4 UNK         0.1400 
     53 CB          1.7503  -11.2612  -45.3782 C.3       4 UNK        -0.1800 
     54 N           0.3606  -11.9433  -43.4821 N.am      4 UNK        -0.5000 
     55 C          -0.2457  -11.5655  -42.3466 C.2       3 UNK         0.5000 
     56 O           0.2948  -10.8596  -41.4934 O.2       3 UNK        -0.5000 
     57 CA         -1.7034  -12.0184  -42.1168 C.3       3 UNK         0.1400 
     58 CB         -2.6320  -10.8052  -41.9367 C.3       3 UNK        -0.1800 
     59 N          -2.2144  -12.8281  -43.2222 N.am      3 UNK        -0.5000 
     60 C          -2.3496  -14.1611  -43.2029 C.2       2 UNK         0.5000 
     61 O          -2.1270  -14.8527  -42.2099 O.2       2 UNK        -0.5000 
     62 CA         -2.8049  -14.8500  -44.5081 C.3       2 UNK         0.1400 
     63 CB         -4.2669  -15.3076  -44.4015 C.3       2 UNK        -0.1800 
     64 N          -2.6544  -14.0257  -45.7092 N.am      2 UNK        -0.5000 
     65 C          -1.4827  -13.6066  -46.2058 C.2       1 UNK         0.5000 
     66 O          -0.3995  -13.8664  -45.6862 O.2       1 UNK        -0.5000 
     67 C          -2.8033  -23.0075  -46.1622 C.2       11 UNK         0.5000 
     68 O          -3.0905  -23.8606  -47.0029 O.2       11 UNK        -0.5000 
     69 N          -3.5448  -22.7793  -45.0683 N.am      12 UNK        -0.5000 
     70 CA         -4.7273  -23.5433  -44.6659 C.3       12 UNK         0.1400 
     71 CB         -5.3155  -22.9165  -43.3939 C.3       12 UNK        -0.1800 
     72 C          -4.4624  -25.0495  -44.4529 C.2       12 UNK         0.5000 
     73 O          -5.3775  -25.8487  -44.6500 O.2       12 UNK        -0.5000 
     74 N          -3.2182  -25.4274  -44.1166 N.am      13 UNK        -0.5000 
     75 CA         -2.7743  -26.8229  -44.0207 C.3       13 UNK         0.1400 
     76 CB         -1.4104  -26.8776  -43.3163 C.3       13 UNK        -0.1800 
     77 C          -2.7024  -27.5295  -45.3909 C.2       13 UNK         0.5000 
     78 O          -2.7972  -28.7557  -45.4450 O.2       13 UNK        -0.5000 
     79 N          -2.5739  -26.7447  -46.4691 N.am      14 UNK        -0.5000 
     80 CA         -2.6484  -27.1798  -47.8640 C.3       14 UNK         0.1400 
     81 CB         -1.5079  -26.5062  -48.6491 C.3       14 UNK        -0.1800 
     82 C          -4.0277  -26.8481  -48.4731 C.2       14 UNK         0.5000 
     83 O          -4.1458  -26.7550  -49.6956 O.2       14 UNK        -0.5000 
     84 N          -5.0385  -26.6224  -47.6163 N.am      15 UNK        -0.5000 
     85 CA         -6.4225  -26.2469  -47.9350 C.3       15 UNK         0.1400 
     86 CB         -7.1413  -27.4070  -48.6546 C.3       15 UNK        -0.1800 
     87 C          -6.5477  -24.9115  -48.7018 C.2       15 UNK         0.5000 
     88 O          -7.5568  -24.6861  -49.3715 O.2       15 UNK        -0.5000 
     89 N          -5.5116  -24.0629  -48.6074 N.am      16 UNK        -0.5000 
     90 CA         -5.3067  -22.8181  -49.3507 C.3       16 UNK         0.1400 
     91 CB         -6.3315  -21.7464  -48.9280 C.3       16 UNK        -0.1800 
     92 C          -5.2316  -23.0192  -50.8807 C.2       16 UNK         0.5000 
     93 O          -5.5115  -22.0844  -51.6305 O.2       16 UNK        -0.5000 
     94 N          -4.8335  -24.2191  -51.3341 N.am      17 UNK        -0.5000 
     95 CA         -4.7056  -24.5570  -52.7548 C.3       17 UNK         0.1400 
     96 CB         -4.4698  -26.0668  -52.9055 C.3       17 UNK        -0.1800 
     97 C          -3.5907  -23.7591  -53.4544 C.2       17 UNK         0.5000 
     98 O          -3.7679  -23.3239  -54.5921 O.2       17 UNK        -0.5000 
     99 N          -2.4791  -23.5374  -52.7397 N.am      18 UNK        -0.5000 
    100 CA        -1.3477  -22.7340  -53.2028 C.3       18 UNK         0.1400 
    101 CB        -0.1217  -23.0316  -52.3282 C.3       18 UNK        -0.1800 
    102 C         -1.6542  -21.2241  -53.2624 C.2       18 UNK         0.5000 
    103 O         -1.0106  -20.5170  -54.0354 O.2       18 UNK        -0.5000 
    104 N         -2.6640  -20.7607  -52.5092 N.am      19 UNK        -0.5000 
    105 CA        -3.1497  -19.3762  -52.5314 C.3       19 UNK         0.1400 
    106 CB        -4.0247  -19.1115  -51.2958 C.3       19 UNK        -0.1800 
    107 C         -3.9043  -19.0171  -53.8284 C.2       19 UNK         0.5000 
    108 O         -4.1048  -17.8349  -54.1059 O.2       19 UNK        -0.5000 
    109 N         -4.2953  -20.0338  -54.6078 N.am      20 UNK        -0.5000 
    110 CA        -4.8772  -19.8976  -55.9416 C.3       20 UNK         0.1400 
    111 CB        -6.0022  -20.9364  -56.0869 C.3       20 UNK        -0.1800 
    112 C         -3.8221  -20.0668  -57.0562 C.2       20 UNK         0.5000 
    113 O         -4.1900  -20.0373  -58.2317 O.2       20 UNK        -0.5000 
    114 N         -2.5455  -20.2588  -56.6928 N.am      21 UNK        -0.5000 
    115 CA        -1.4493  -20.5789  -57.6066 C.3       21 UNK         0.1400 
    116 CB        -1.2547  -22.1069  -57.6418 C.3       21 UNK        -0.1800 
    117 C         -0.1689  -19.8154  -57.2210 C.2       21 UNK         0.5000 
    118 O          0.9249  -20.3821  -57.2628 O.2       21 UNK        -0.5000 
    119 N         -0.3247  -18.5374  -56.8510 N.am      22 UNK        -0.5000 
    120 CA         0.7735  -17.6431  -56.4364 C.3       22 UNK         0.1400 
    121 C          1.7328  -17.2012  -57.5822 C.2       22 UNK         0.5000 
    122 N          1.3940  -17.3943  -58.8513 N.am      22 UNK        -0.7600 
    123 O          2.8091  -16.6747  -57.3127 O.2       22 UNK        -0.5000 
    124 C124        0.2556  -16.4010  -55.6655 C.3       23 UNK        -0.0398 
    125 S125       -0.7616  -16.8391  -54.2186 S.3       23 UNK        -0.2404 
    126 C126        0.4401  -16.6696  -52.8656 C.3       23 UNK        -0.0205 
    127 H127       -4.9563  -10.2116  -45.9149 H         1 UNK         0.0600 
    128 H128       -4.7498  -10.3006  -47.6668 H         1 UNK         0.0600 
    129 H129       -3.9895   -8.9937  -46.7537 H         1 UNK         0.0600 
    130 H130       -3.2921  -11.8782  -48.2701 H         1 UNK         0.3000 
    131 H131       -0.6517  -12.0443  -47.3702 H         1 UNK         0.0600 
    132 H132       -1.1220  -12.8096  -49.5669 H         1 UNK         0.0800 
    133 H133       -0.5487  -14.1962  -48.7032 H         1 UNK         0.0800 
    134 H134       -3.5063  -16.6279  -48.7646 H         1 UNK         0.0800 
    135 H135       -2.2165  -16.0891  -47.7257 H         1 UNK         0.0800 
    136 H136       -1.2497  -15.4105  -51.1705 H         1 UNK         0.1150 
    137 H137        0.8285  -19.1030  -51.7175 H         1 UNK         0.1150 
    138 H138       -1.6836  -18.5428  -48.2877 H         1 UNK         0.1150 
    139 H139        0.6774  -20.3571  -48.6581 H         1 UNK         0.0800 
    140 H140        0.5024  -20.9231  -50.2883 H         1 UNK         0.0800 
    141 H141       -2.6520  -20.5104  -47.1302 H         1 UNK         0.0800 
    142 H142       -0.9390  -20.2490  -47.0426 H         1 UNK         0.0800 
    143 H143       -0.7532  -22.8713  -46.7369 H         1 UNK         0.0600 
    144 H144       -0.6922  -20.7613  -44.9746 H         1 UNK         0.3000 
    145 H145       -0.5452  -22.0649  -41.8856 H         1 UNK         0.0600 
    146 H146        1.9238  -21.9297  -41.6484 H         1 UNK         0.0600 
    147 H147        1.4674  -23.4349  -42.4273 H         1 UNK         0.0600 
    148 H148        2.1219  -22.1159  -43.3910 H         1 UNK         0.0600 
    149 H149        1.0410  -19.9473  -42.9742 H         1 UNK         0.3000 
    150 H150       -1.5785  -17.4954  -43.0446 H         1 UNK         0.0600 
    151 H151        0.9320  -17.9216  -41.3353 H         1 UNK         0.0600 
    152 H152       -0.6797  -17.5396  -40.7434 H         1 UNK         0.0600 
    153 H153        0.2024  -16.3613  -41.7031 H         1 UNK         0.0600 
    154 H154        1.1920  -17.4180  -43.7960 H         1 UNK         0.3000 
    155 H155        0.7332  -18.4162  -47.1880 H         1 UNK         0.0600 
    156 H156        1.4905  -15.6686  -46.0884 H         1 UNK         0.0600 
    157 H157        0.2359  -15.9930  -47.2796 H         1 UNK         0.0600 
    158 H158        1.9147  -16.3122  -47.6747 H         1 UNK         0.0600 
    159 H159        2.9365  -17.5612  -45.4815 H         1 UNK         0.3000 
    160 H160        3.9438  -20.8385  -44.6040 H         1 UNK         0.0600 
    161 H161        5.2190  -18.9506  -46.6578 H         1 UNK         0.0600 
    162 H162        4.8439  -20.6486  -46.9266 H         1 UNK         0.0600 
    163 H163        6.0563  -20.2012  -45.7374 H         1 UNK         0.0600 
    164 H164        5.1616  -18.2650  -44.2775 H         1 UNK         0.3000 
    165 H165        3.4326  -17.3376  -41.2961 H         1 UNK         0.0600 
    166 H166        5.7451  -17.2490  -40.4202 H         1 UNK         0.0600 
    167 H167        6.3236  -18.2534  -41.7499 H         1 UNK         0.0600 
    168 H168        5.2210  -18.9197  -40.5514 H         1 UNK         0.0600 
    169 H169        5.5454  -16.0418  -42.6298 H         1 UNK         0.3000 
    170 H170        5.1073  -14.0176  -43.5831 H         1 UNK         0.0600 
    171 H171        5.6485  -15.6077  -45.4482 H         1 UNK         0.0600 
    172 H172        4.1052  -15.2503  -46.2136 H         1 UNK         0.0600 
    173 H173        5.3336  -13.9946  -46.0633 H         1 UNK         0.0600 
    174 H174        3.0254  -13.2167  -45.3535 H         1 UNK         0.3000 
    175 H175        2.0178  -10.6637  -43.3479 H         1 UNK         0.0600 
    176 H176        1.4972  -12.1252  -45.9914 H         1 UNK         0.0600 
    177 H177        1.0423  -10.4686  -45.6221 H         1 UNK         0.0600 
    178 H178        2.7375  -10.9138  -45.6855 H         1 UNK         0.0600 
    179 H179       -0.1188  -12.5804  -44.1083 H         1 UNK         0.3000 
    180 H180       -1.7165  -12.5913  -41.1876 H         1 UNK         0.0600 
    181 H181       -2.6272  -10.1604  -42.8161 H         1 UNK         0.0600 
    182 H182       -2.3262  -10.1986  -41.0834 H         1 UNK         0.0600 
    183 H183       -3.6602  -11.1195  -41.7572 H         1 UNK         0.0600 
    184 H184       -2.3992  -12.3250  -44.0833 H         1 UNK         0.3000 
    185 H185       -2.1805  -15.7350  -44.6375 H         1 UNK         0.0600 
    186 H186       -4.5680  -15.8728  -45.2838 H         1 UNK         0.0600 
    187 H187       -4.4112  -15.9574  -43.5373 H         1 UNK         0.0600 
    188 H188       -4.9460  -14.4609  -44.2940 H         1 UNK         0.0600 
    189 H189       -3.5023  -13.7469  -46.1812 H         1 UNK         0.3000 
    190 H190       -3.2277  -22.0706  -44.4221 H         1 UNK         0.3000 
    191 H191       -5.4647  -23.4530  -45.4662 H         1 UNK         0.0600 
    192 H192       -6.2154  -23.4454  -43.0767 H         1 UNK         0.0600 
    193 H193       -5.5933  -21.8753  -43.5589 H         1 UNK         0.0600 
    194 H194       -4.6061  -22.9479  -42.5658 H         1 UNK         0.0600 
    195 H195       -2.4979  -24.7205  -43.9958 H         1 UNK         0.3000 
    196 H196       -3.4955  -27.3659  -43.4063 H         1 UNK         0.0600 
    197 H197       -0.6326  -26.3934  -43.9078 H         1 UNK         0.0600 
    198 H198       -1.4468  -26.3875  -42.3433 H         1 UNK         0.0600 
    199 H199       -1.0991  -27.9096  -43.1501 H         1 UNK         0.0600 
    200 H200       -2.5453  -25.7402  -46.3361 H         1 UNK         0.3000 
    201 H201       -2.5169  -28.2612  -47.9325 H         1 UNK         0.0600 
    202 H202       -1.6231  -25.4220  -48.6795 H         1 UNK         0.0600 
    203 H203       -1.4756  -26.8616  -49.6798 H         1 UNK         0.0600 
    204 H204       -0.5386  -26.7269  -48.2019 H         1 UNK         0.0600 
    205 H205       -4.8379  -26.6854  -46.6262 H         1 UNK         0.3000 
    206 H206       -6.9231  -26.0910  -46.9786 H         1 UNK         0.0600 
    207 H207       -7.0441  -28.3379  -48.0960 H         1 UNK         0.0600 
    208 H208       -8.2077  -27.2042  -48.7591 H         1 UNK         0.0600 
    209 H209       -6.7410  -27.5724  -49.6554 H         1 UNK         0.0600 
    210 H210       -4.7246  -24.3331  -48.0254 H         1 UNK         0.3000 
    211 H211       -4.3224  -22.4549  -49.0557 H         1 UNK         0.0600 
    212 H212       -6.0824  -20.7757  -49.3578 H         1 UNK         0.0600 
    213 H213       -6.3483  -21.6243  -47.8450 H         1 UNK         0.0600 
    214 H214       -7.3405  -21.9987  -49.2548 H         1 UNK         0.0600 
    215 H215       -4.6313  -24.9602  -50.6711 H         1 UNK         0.3000 
    216 H216       -5.6491  -24.3097  -53.2459 H         1 UNK         0.0600 
    217 H217       -3.5414  -26.3797  -52.4260 H         1 UNK         0.0600 
    218 H218       -4.4091  -26.3499  -53.9571 H         1 UNK         0.0600 
    219 H219       -5.2842  -26.6388  -52.4602 H         1 UNK         0.0600 
    220 H220       -2.4177  -23.9233  -51.8089 H         1 UNK         0.3000 
    221 H221       -1.1069  -23.0444  -54.2216 H         1 UNK         0.0600 
    222 H222        0.2205  -24.0563  -52.4740 H         1 UNK         0.0600 
    223 H223       -0.3409  -22.9069  -51.2695 H         1 UNK         0.0600 
    224 H224        0.7118  -22.3732  -52.5768 H         1 UNK         0.0600 
    225 H225       -3.1793  -21.4078  -51.9307 H         1 UNK         0.3000 
    226 H226       -2.2829  -18.7202  -52.4711 H         1 UNK         0.0600 
    227 H227       -5.0011  -19.5865  -51.3793 H         1 UNK         0.0600 
    228 H228       -3.5505  -19.4705  -50.3828 H         1 UNK         0.0600 
    229 H229       -4.1965  -18.0416  -51.1724 H         1 UNK         0.0600 
    230 H230       -4.1050  -20.9793  -54.3016 H         1 UNK         0.3000 
    231 H231       -5.3179  -18.9059  -56.0604 H         1 UNK         0.0600 
    232 H232       -5.6181  -21.9558  -56.0402 H         1 UNK         0.0600 
    233 H233       -6.5198  -20.8246  -57.0403 H         1 UNK         0.0600 
    234 H234       -6.7476  -20.8232  -55.2994 H         1 UNK         0.0600 
    235 H235       -2.2943  -20.2270  -55.7107 H         1 UNK         0.3000 
    236 H236       -1.6973  -20.2471  -58.6167 H         1 UNK         0.0600 
    237 H237       -2.1707  -22.6145  -57.9445 H         1 UNK         0.0600 
    238 H238       -0.4783  -22.3900  -58.3535 H         1 UNK         0.0600 
    239 H239       -0.9660  -22.4941  -56.6642 H         1 UNK         0.0600 
    240 H240       -1.2552  -18.1478  -56.8210 H         1 UNK         0.3000 
    241 H241        1.3941  -18.2122  -55.7412 H         1 UNK         0.0600 
    242 H242        2.0252  -17.1073  -59.5832 H         1 UNK         0.3800 
    243 H243        0.5144  -17.8238  -59.0886 H         1 UNK         0.3800 
    244 H244       -0.3493  -15.7754  -56.3238 H         1 UNK         0.0800 
    245 H245        1.0860  -15.7745  -55.3346 H         1 UNK         0.0800 
    246 H246        0.7207  -15.6212  -52.7538 H         1 UNK         0.0800 
    247 H247        1.3520  -17.2128  -53.1189 H         1 UNK         0.0800 
@<TRIPOS>BOND
     1    1    2 1    
     2    1  127 1    
     3    1  128 1    
     4    1  129 1    
     5    2    3 2    
     6    2    4 am   BACKBONE|DICT|INTERRES
     7    4    5 1    
     8    4  130 1    
     9    5    6 1    
    10    5   65 1    
    11    5  131 1    
    12    6    7 1    
    13    6  132 1    
    14    6  133 1    
    15    7    8 1    
    16    8    9 1    
    17    8  134 1    
    18    8  135 1    
    19    9   10 ar   
    20    9   14 ar   
    21   10   11 ar   
    22   10  136 1    
    23   11   12 ar   
    24   11  126 1    
    25   12   13 ar   
    26   12  137 1    
    27   13   14 ar   
    28   13   15 1    
    29   14  138 1    
    30   15   16 1    
    31   15  139 1    
    32   15  140 1    
    33   16   17 1    
    34   17   18 1    
    35   17  141 1    
    36   17  142 1    
    37   18   19 1    
    38   18   67 1    
    39   18  143 1    
    40   19   20 am   BACKBONE|DICT|INTERRES
    41   19  144 1    
    42   20   21 2    
    43   20   22 1    
    44   22   23 1    
    45   22   24 1    
    46   22  145 1    
    47   23  146 1    
    48   23  147 1    
    49   23  148 1    
    50   24   25 am   BACKBONE|DICT|INTERRES
    51   24  149 1    
    52   25   26 2    
    53   25   27 1    
    54   27   28 1    
    55   27   29 1    
    56   27  150 1    
    57   28  151 1    
    58   28  152 1    
    59   28  153 1    
    60   29   30 am   BACKBONE|DICT|INTERRES
    61   29  154 1    
    62   30   31 2    
    63   30   32 1    
    64   32   33 1    
    65   32   34 1    
    66   32  155 1    
    67   33  156 1    
    68   33  157 1    
    69   33  158 1    
    70   34   35 am   BACKBONE|DICT|INTERRES
    71   34  159 1    
    72   35   36 2    
    73   35   37 1    
    74   37   38 1    
    75   37   39 1    
    76   37  160 1    
    77   38  161 1    
    78   38  162 1    
    79   38  163 1    
    80   39   40 am   BACKBONE|DICT|INTERRES
    81   39  164 1    
    82   40   41 2    
    83   40   42 1    
    84   42   43 1    
    85   42   44 1    
    86   42  165 1    
    87   43  166 1    
    88   43  167 1    
    89   43  168 1    
    90   44   45 am   BACKBONE|DICT|INTERRES
    91   44  169 1    
    92   45   46 2    
    93   45   47 1    
    94   47   48 1    
    95   47   49 1    
    96   47  170 1    
    97   48  171 1    
    98   48  172 1    
    99   48  173 1    
   100   49   50 am   BACKBONE|DICT|INTERRES
   101   49  174 1    
   102   50   51 2    
   103   50   52 1    
   104   52   53 1    
   105   52   54 1    
   106   52  175 1    
   107   53  176 1    
   108   53  177 1    
   109   53  178 1    
   110   54   55 am   BACKBONE|DICT|INTERRES
   111   54  179 1    
   112   55   56 2    
   113   55   57 1    
   114   57   58 1    
   115   57   59 1    
   116   57  180 1    
   117   58  181 1    
   118   58  182 1    
   119   58  183 1    
   120   59   60 am   BACKBONE|DICT|INTERRES
   121   59  184 1    
   122   60   61 2    
   123   60   62 1    
   124   62   63 1    
   125   62   64 1    
   126   62  185 1    
   127   63  186 1    
   128   63  187 1    
   129   63  188 1    
   130   64   65 am   BACKBONE|DICT|INTERRES
   131   64  189 1    
   132   65   66 2    
   133   67   68 2    
   134   67   69 am   BACKBONE|DICT|INTERRES
   135   69   70 1    
   136   69  190 1    
   137   70   71 1    
   138   70   72 1    
   139   70  191 1    
   140   71  192 1    
   141   71  193 1    
   142   71  194 1    
   143   72   73 2    
   144   72   74 am   BACKBONE|DICT|INTERRES
   145   74   75 1    
   146   74  195 1    
   147   75   76 1    
   148   75   77 1    
   149   75  196 1    
   150   76  197 1    
   151   76  198 1    
   152   76  199 1    
   153   77   78 2    
   154   77   79 am   BACKBONE|DICT|INTERRES
   155   79   80 1    
   156   79  200 1    
   157   80   81 1    
   158   80   82 1    
   159   80  201 1    
   160   81  202 1    
   161   81  203 1    
   162   81  204 1    
   163   82   83 2    
   164   82   84 am   BACKBONE|DICT|INTERRES
   165   84   85 1    
   166   84  205 1    
   167   85   86 1    
   168   85   87 1    
   169   85  206 1    
   170   86  207 1    
   171   86  208 1    
   172   86  209 1    
   173   87   88 2    
   174   87   89 am   BACKBONE|DICT|INTERRES
   175   89   90 1    
   176   89  210 1    
   177   90   91 1    
   178   90   92 1    
   179   90  211 1    
   180   91  212 1    
   181   91  213 1    
   182   91  214 1    
   183   92   93 2    
   184   92   94 am   BACKBONE|DICT|INTERRES
   185   94   95 1    
   186   94  215 1    
   187   95   96 1    
   188   95   97 1    
   189   95  216 1    
   190   96  217 1    
   191   96  218 1    
   192   96  219 1    
   193   97   98 2    
   194   97   99 am   BACKBONE|DICT|INTERRES
   195   99  100 1    
   196   99  220 1    
   197  100  101 1    
   198  100  102 1    
   199  100  221 1    
   200  101  222 1    
   201  101  223 1    
   202  101  224 1    
   203  102  103 2    
   204  102  104 am   BACKBONE|DICT|INTERRES
   205  104  105 1    
   206  104  225 1    
   207  105  106 1    
   208  105  107 1    
   209  105  226 1    
   210  106  227 1    
   211  106  228 1    
   212  106  229 1    
   213  107  108 2    
   214  107  109 am   BACKBONE|DICT|INTERRES
   215  109  110 1    
   216  109  230 1    
   217  110  111 1    
   218  110  112 1    
   219  110  231 1    
   220  111  232 1    
   221  111  233 1    
   222  111  234 1    
   223  112  113 2    
   224  112  114 am   BACKBONE|DICT|INTERRES
   225  114  115 1    
   226  114  235 1    
   227  115  116 1    
   228  115  117 1    
   229  115  236 1    
   230  116  237 1    
   231  116  238 1    
   232  116  239 1    
   233  117  118 2    
   234  117  119 am   BACKBONE|DICT|INTERRES
   235  119  120 1    
   236  119  240 1    
   237  120  121 1    
   238  120  124 1    
   239  120  241 1    
   240  121  122 am   BACKBONE|DICT|INTERRES
   241  121  123 2    
   242  122  242 1    
   243  122  243 1    
   244  124  125 1    
   245  124  244 1    
   246  124  245 1    
   247  125  126 1    
   248  126  246 1    
   249  126  247 1    
@<TRIPOS>SUBSTRUCTURE
     1 UNK         1 GROUP             0       ****    0 ROOT    
