@<TRIPOS>MOLECULE
3R540
247   249    1
SMALL
USER_CHARGES


@<TRIPOS>ATOM
      1 CA         -3.9598  -17.0050  -46.1157 C.3       0 UNK        -0.1800 
      2 C          -3.2440  -15.8222  -46.7533 C.2       0 UNK         0.5000 
      3 O          -3.8829  -14.9948  -47.4029 O.2       0 UNK        -0.5000 
      4 N          -1.9185  -15.7496  -46.5824 N.am      1 UNK        -0.5000 
      5 CA         -1.0645  -14.6722  -47.0862 C.3       1 UNK         0.1400 
      6 C6          0.4372  -15.0611  -47.0584 C.3       23 UNK        -0.0398 
      7 S7          0.9619  -16.5333  -48.0129 S.3       23 UNK        -0.2404 
      8 C8         -0.3714  -16.8690  -49.2050 C.3       23 UNK        -0.0205 
      9 C9          0.0567  -17.9267  -50.2077 C.ar      23 UNK        -0.0193 
     10 C10         0.4821  -17.5542  -51.4863 C.ar      23 UNK        -0.1150 
     11 C11         0.8998  -18.5206  -52.4062 C.ar      23 UNK        -0.0193 
     12 C12         0.8999  -19.8666  -52.0307 C.ar      23 UNK        -0.1150 
     13 C13         0.4514  -20.2541  -50.7665 C.ar      23 UNK        -0.0193 
     14 C14         0.0245  -19.2800  -49.8590 C.ar      23 UNK        -0.1150 
     15 C15         0.4013  -21.7291  -50.4065 C.3       23 UNK        -0.0205 
     16 S16         1.9607  -22.3246  -49.6758 S.3       23 UNK        -0.2404 
     17 C17         1.8181  -21.7702  -47.9420 C.3       23 UNK        -0.0398 
     18 CA          1.2108  -22.8529  -47.0148 C.3       11 UNK         0.1400 
     19 N           1.5813  -22.6608  -45.6119 N.am      11 UNK        -0.5000 
     20 C           1.7639  -23.6645  -44.7448 C.2       10 UNK         0.5000 
     21 O           1.7039  -24.8554  -45.0519 O.2       10 UNK        -0.5000 
     22 CA          2.0593  -23.2809  -43.2850 C.3       10 UNK         0.1400 
     23 CB          3.5571  -22.9942  -43.0967 C.3       10 UNK        -0.1800 
     24 N           1.2861  -22.1418  -42.7871 N.am      10 UNK        -0.5000 
     25 C          -0.0444  -22.1325  -42.6170 C.2       9 UNK         0.5000 
     26 O          -0.7945  -23.0160  -43.0315 O.2       9 UNK        -0.5000 
     27 CA         -0.6329  -20.9303  -41.8619 C.3       9 UNK         0.1400 
     28 CB         -0.1963  -20.9330  -40.3878 C.3       9 UNK        -0.1800 
     29 N          -0.1963  -19.6920  -42.4951 N.am      9 UNK        -0.5000 
     30 C          -1.0090  -18.8013  -43.0756 C.2       8 UNK         0.5000 
     31 O          -2.2341  -18.8160  -42.9610 O.2       8 UNK        -0.5000 
     32 CA         -0.3606  -17.7100  -43.9527 C.3       8 UNK         0.1400 
     33 CB         -0.5092  -16.3375  -43.2839 C.3       8 UNK        -0.1800 
     34 N           1.0490  -17.9470  -44.2769 N.am      8 UNK        -0.5000 
     35 C           1.5025  -18.9743  -45.0125 C.2       7 UNK         0.5000 
     36 O           0.7693  -19.8198  -45.5275 O.2       7 UNK        -0.5000 
     37 CA          3.0296  -19.1519  -45.1170 C.3       7 UNK         0.1400 
     38 CB          3.5603  -18.5238  -46.4123 C.3       7 UNK        -0.1800 
     39 N           3.7755  -18.6113  -43.9787 N.am      7 UNK        -0.5000 
     40 C           3.6109  -18.9489  -42.6917 C.2       6 UNK         0.5000 
     41 O           2.7940  -19.7875  -42.3047 O.2       6 UNK        -0.5000 
     42 CA          4.4597  -18.1887  -41.6537 C.3       6 UNK         0.1400 
     43 CB          5.7177  -17.5166  -42.2482 C.3       6 UNK        -0.1800 
     44 N           3.6662  -17.2046  -40.9091 N.am      6 UNK        -0.5000 
     45 C           2.9306  -16.2036  -41.4142 C.2       5 UNK         0.5000 
     46 O           2.7718  -15.9961  -42.6225 O.2       5 UNK        -0.5000 
     47 CA          2.2712  -15.2689  -40.3890 C.3       5 UNK         0.1400 
     48 CB          3.3190  -14.3953  -39.6747 C.3       5 UNK        -0.1800 
     49 N           1.3173  -14.4149  -41.0841 N.am      5 UNK        -0.5000 
     50 C           0.2511  -13.8125  -40.5479 C.2       4 UNK         0.5000 
     51 O          -0.0511  -13.9037  -39.3567 O.2       4 UNK        -0.5000 
     52 CA         -0.6317  -12.9873  -41.5127 C.3       4 UNK         0.1400 
     53 CB         -1.4182  -11.8702  -40.7960 C.3       4 UNK        -0.1800 
     54 N           0.0922  -12.4466  -42.6710 N.am      4 UNK        -0.5000 
     55 C           1.1280  -11.5892  -42.6538 C.2       3 UNK         0.5000 
     56 O           1.6376  -11.1440  -41.6250 O.2       3 UNK        -0.5000 
     57 CA          1.7048  -11.1564  -44.0180 C.3       3 UNK         0.1400 
     58 CB          2.9303  -12.0159  -44.3674 C.3       3 UNK        -0.1800 
     59 N           0.7415  -11.2431  -45.1167 N.am      3 UNK        -0.5000 
     60 C          -0.3774  -10.5129  -45.2284 C.2       2 UNK         0.5000 
     61 O          -0.6703   -9.5932  -44.4637 O.2       2 UNK        -0.5000 
     62 CA         -1.3468  -10.8836  -46.3713 C.3       2 UNK         0.1400 
     63 CB         -1.2542   -9.8528  -47.5074 C.3       2 UNK        -0.1800 
     64 N          -1.1565  -12.2266  -46.9361 N.am      2 UNK        -0.5000 
     65 C          -1.2849  -13.3823  -46.2686 C.2       1 UNK         0.5000 
     66 O          -1.5025  -13.4519  -45.0556 O.2       1 UNK        -0.5000 
     67 C          -0.3207  -22.9187  -47.1344 C.2       11 UNK         0.5000 
     68 O          -0.8320  -23.7959  -47.8287 O.2       11 UNK        -0.5000 
     69 N          -1.0223  -22.0156  -46.4312 N.am      12 UNK        -0.5000 
     70 CA         -2.4818  -21.8693  -46.4411 C.3       12 UNK         0.1400 
     71 CB         -2.8780  -20.7416  -45.4842 C.3       12 UNK        -0.1800 
     72 C          -3.2626  -23.1557  -46.1050 C.2       12 UNK         0.5000 
     73 O          -4.3432  -23.3701  -46.6546 O.2       12 UNK        -0.5000 
     74 N          -2.6941  -23.9963  -45.2296 N.am      13 UNK        -0.5000 
     75 CA         -3.2249  -25.3131  -44.8776 C.3       13 UNK         0.1400 
     76 CB         -2.4984  -25.8221  -43.6233 C.3       13 UNK        -0.1800 
     77 C          -3.1198  -26.3516  -46.0144 C.2       13 UNK         0.5000 
     78 O          -3.9153  -27.2918  -46.0378 O.2       13 UNK        -0.5000 
     79 N          -2.1475  -26.1831  -46.9213 N.am      14 UNK        -0.5000 
     80 CA         -1.9166  -27.0654  -48.0648 C.3       14 UNK         0.1400 
     81 CB         -0.4096  -27.1419  -48.3595 C.3       14 UNK        -0.1800 
     82 C          -2.6935  -26.5935  -49.3050 C.2       14 UNK         0.5000 
     83 O          -3.2873  -27.4222  -49.9963 O.2       14 UNK        -0.5000 
     84 N          -2.6922  -25.2797  -49.5577 N.am      15 UNK        -0.5000 
     85 CA         -3.4135  -24.6342  -50.6486 C.3       15 UNK         0.1400 
     86 CB         -2.5285  -24.5804  -51.9056 C.3       15 UNK        -0.1800 
     87 C          -3.8095  -23.2289  -50.1894 C.2       15 UNK         0.5000 
     88 O          -2.9443  -22.4795  -49.7379 O.2       15 UNK        -0.5000 
     89 N          -5.0973  -22.8883  -50.3154 N.am      16 UNK        -0.5000 
     90 CA         -5.7149  -21.6417  -49.8507 C.3       16 UNK         0.1400 
     91 CB         -7.2399  -21.8473  -49.7954 C.3       16 UNK        -0.1800 
     92 C          -5.3201  -20.3879  -50.6670 C.2       16 UNK         0.5000 
     93 O          -6.1915  -19.6738  -51.1660 O.2       16 UNK        -0.5000 
     94 N          -4.0104  -20.1336  -50.7721 N.am      17 UNK        -0.5000 
     95 CA         -3.3727  -18.9724  -51.3946 C.3       17 UNK         0.1400 
     96 CB         -3.6001  -17.7229  -50.5138 C.3       17 UNK        -0.1800 
     97 C          -3.7872  -18.7834  -52.8689 C.2       17 UNK         0.5000 
     98 O          -3.8896  -19.7689  -53.6028 O.2       17 UNK        -0.5000 
     99 N          -4.0271  -17.5322  -53.2831 N.am      18 UNK        -0.5000 
    100 CA        -4.4172  -17.1487  -54.6412 C.3       18 UNK         0.1400 
    101 CB        -4.4400  -15.6167  -54.7427 C.3       18 UNK        -0.1800 
    102 C         -5.7640  -17.7411  -55.1006 C.2       18 UNK         0.5000 
    103 O         -5.9402  -17.9642  -56.2982 O.2       18 UNK        -0.5000 
    104 N         -6.6689  -18.0389  -54.1555 N.am      19 UNK        -0.5000 
    105 CA        -7.9452  -18.7124  -54.4201 C.3       19 UNK         0.1400 
    106 CB        -8.8594  -18.5853  -53.1923 C.3       19 UNK        -0.1800 
    107 C         -7.7727  -20.1905  -54.8281 C.2       19 UNK         0.5000 
    108 O         -8.6427  -20.7348  -55.5084 O.2       19 UNK        -0.5000 
    109 N         -6.6416  -20.7950  -54.4423 N.am      20 UNK        -0.5000 
    110 CA        -6.1989  -22.1257  -54.8576 C.3       20 UNK         0.1400 
    111 CB        -5.7206  -22.8856  -53.6109 C.3       20 UNK        -0.1800 
    112 C         -5.0832  -22.0431  -55.9206 C.2       20 UNK         0.5000 
    113 O         -4.4055  -23.0433  -56.1633 O.2       20 UNK        -0.5000 
    114 N         -4.8786  -20.8521  -56.5082 N.am      21 UNK        -0.5000 
    115 CA        -3.8516  -20.5069  -57.4985 C.3       21 UNK         0.1400 
    116 CB        -4.1722  -21.1729  -58.8525 C.3       21 UNK        -0.1800 
    117 C         -2.4115  -20.7910  -57.0160 C.2       21 UNK         0.5000 
    118 O         -1.5548  -21.1548  -57.8235 O.2       21 UNK        -0.5000 
    119 N         -2.1845  -20.6440  -55.7027 N.am      22 UNK        -0.5000 
    120 CA        -0.9496  -20.9892  -54.9791 C.3       22 UNK         0.1400 
    121 C         -0.6485  -22.5191  -54.9064 C.2       22 UNK         0.5000 
    122 N         -1.5762  -23.4059  -55.2508 N.am      22 UNK        -0.7600 
    123 O          0.4367  -22.9175  -54.4930 O.2       22 UNK        -0.5000 
    124 C124        0.2797  -20.1489  -55.4325 C.3       23 UNK        -0.0398 
    125 S125        0.0840  -18.3691  -55.0639 S.3       23 UNK        -0.2404 
    126 C126        1.3672  -18.1054  -53.7944 C.3       23 UNK        -0.0205 
    127 H127       -4.8680  -16.6698  -45.6149 H         1 UNK         0.0600 
    128 H128       -3.3360  -17.5056  -45.3755 H         1 UNK         0.0600 
    129 H129       -4.2382  -17.7317  -46.8790 H         1 UNK         0.0600 
    130 H130       -1.4487  -16.4497  -46.0324 H         1 UNK         0.3000 
    131 H131       -1.3545  -14.4609  -48.1168 H         1 UNK         0.0600 
    132 H132        0.7692  -15.2174  -46.0311 H         1 UNK         0.0800 
    133 H133        1.0376  -14.2302  -47.4333 H         1 UNK         0.0800 
    134 H134       -1.2564  -17.2192  -48.6768 H         1 UNK         0.0800 
    135 H135       -0.6470  -15.9516  -49.7260 H         1 UNK         0.0800 
    136 H136        0.4959  -16.5094  -51.7631 H         1 UNK         0.1150 
    137 H137        1.2383  -20.6227  -52.7233 H         1 UNK         0.1150 
    138 H138       -0.3305  -19.5692  -48.8800 H         1 UNK         0.1150 
    139 H139       -0.4323  -21.9180  -49.7340 H         1 UNK         0.0800 
    140 H140        0.1944  -22.3153  -51.3033 H         1 UNK         0.0800 
    141 H141        1.2759  -20.8279  -47.8836 H         1 UNK         0.0800 
    142 H142        2.8325  -21.5414  -47.6131 H         1 UNK         0.0800 
    143 H143        1.6027  -23.8186  -47.3430 H         1 UNK         0.0600 
    144 H144        1.5621  -21.7100  -45.2679 H         1 UNK         0.3000 
    145 H145        1.8028  -24.1429  -42.6655 H         1 UNK         0.0600 
    146 H146        3.7938  -22.8065  -42.0492 H         1 UNK         0.0600 
    147 H147        4.1616  -23.8431  -43.4189 H         1 UNK         0.0600 
    148 H148        3.8779  -22.1255  -43.6721 H         1 UNK         0.0600 
    149 H149        1.8309  -21.3530  -42.4477 H         1 UNK         0.3000 
    150 H150       -1.7204  -21.0244  -41.8949 H         1 UNK         0.0600 
    151 H151       -0.4772  -21.8665  -39.8986 H         1 UNK         0.0600 
    152 H152       -0.6737  -20.1213  -39.8387 H         1 UNK         0.0600 
    153 H153        0.8830  -20.8156  -40.2815 H         1 UNK         0.0600 
    154 H154        0.8040  -19.5838  -42.6187 H         1 UNK         0.3000 
    155 H155       -0.9051  -17.6990  -44.8967 H         1 UNK         0.0600 
    156 H156       -0.1284  -16.3621  -42.2639 H         1 UNK         0.0600 
    157 H157       -1.5575  -16.0405  -43.2323 H         1 UNK         0.0600 
    158 H158        0.0233  -15.5572  -43.8259 H         1 UNK         0.0600 
    159 H159        1.7246  -17.3171  -43.8559 H         1 UNK         0.3000 
    160 H160        3.2287  -20.2238  -45.1557 H         1 UNK         0.0600 
    161 H161        3.4584  -17.4379  -46.4015 H         1 UNK         0.0600 
    162 H162        3.0172  -18.8951  -47.2826 H         1 UNK         0.0600 
    163 H163        4.6135  -18.7605  -46.5632 H         1 UNK         0.0600 
    164 H164        4.4372  -17.8780  -44.1883 H         1 UNK         0.3000 
    165 H165        4.7944  -18.9348  -40.9316 H         1 UNK         0.0600 
    166 H166        6.3431  -17.1015  -41.4578 H         1 UNK         0.0600 
    167 H167        6.3292  -18.2368  -42.7936 H         1 UNK         0.0600 
    168 H168        5.4718  -16.7017  -42.9300 H         1 UNK         0.0600 
    169 H169        3.6991  -17.3064  -39.9044 H         1 UNK         0.3000 
    170 H170        1.7416  -15.8849  -39.6593 H         1 UNK         0.0600 
    171 H171        4.0481  -15.0049  -39.1402 H         1 UNK         0.0600 
    172 H172        3.8661  -13.7704  -40.3819 H         1 UNK         0.0600 
    173 H173        2.8519  -13.7368  -38.9421 H         1 UNK         0.0600 
    174 H174        1.4850  -14.3383  -42.0791 H         1 UNK         0.3000 
    175 H175       -1.3618  -13.6878  -41.9201 H         1 UNK         0.0600 
    176 H176       -2.0813  -12.2829  -40.0349 H         1 UNK         0.0600 
    177 H177       -0.7542  -11.1609  -40.3013 H         1 UNK         0.0600 
    178 H178       -2.0395  -11.3142  -41.4983 H         1 UNK         0.0600 
    179 H179       -0.2714  -12.7387  -43.5726 H         1 UNK         0.3000 
    180 H180        2.0242  -10.1161  -43.9283 H         1 UNK         0.0600 
    181 H181        2.6655  -13.0678  -44.4851 H         1 UNK         0.0600 
    182 H182        3.6864  -11.9554  -43.5833 H         1 UNK         0.0600 
    183 H183        3.3978  -11.6805  -45.2934 H         1 UNK         0.0600 
    184 H184        0.9081  -11.9582  -45.8074 H         1 UNK         0.3000 
    185 H185       -2.3560  -10.8439  -45.9564 H         1 UNK         0.0600 
    186 H186       -1.4247   -8.8418  -47.1348 H         1 UNK         0.0600 
    187 H187       -0.2725   -9.8659  -47.9826 H         1 UNK         0.0600 
    188 H188       -2.0035  -10.0429  -48.2760 H         1 UNK         0.0600 
    189 H189       -0.9587  -12.2573  -47.9262 H         1 UNK         0.3000 
    190 H190       -0.5067  -21.3104  -45.9160 H         1 UNK         0.3000 
    191 H191       -2.7675  -21.5570  -47.4441 H         1 UNK         0.0600 
    192 H192       -2.3641  -19.8135  -45.7340 H         1 UNK         0.0600 
    193 H193       -3.9495  -20.5440  -45.5314 H         1 UNK         0.0600 
    194 H194       -2.6367  -20.9994  -44.4529 H         1 UNK         0.0600 
    195 H195       -1.8365  -23.7140  -44.7681 H         1 UNK         0.3000 
    196 H196       -4.2834  -25.1991  -44.6346 H         1 UNK         0.0600 
    197 H197       -2.8697  -26.8031  -43.3241 H         1 UNK         0.0600 
    198 H198       -2.6493  -25.1477  -42.7802 H         1 UNK         0.0600 
    199 H199       -1.4242  -25.9124  -43.7912 H         1 UNK         0.0600 
    200 H200       -1.5832  -25.3407  -46.8886 H         1 UNK         0.3000 
    201 H201       -2.2549  -28.0747  -47.8208 H         1 UNK         0.0600 
    202 H202        0.1440  -27.4961  -47.4897 H         1 UNK         0.0600 
    203 H203        0.0018  -26.1735  -48.6451 H         1 UNK         0.0600 
    204 H204       -0.2092  -27.8349  -49.1775 H         1 UNK         0.0600 
    205 H205       -2.1736  -24.6507  -48.9474 H         1 UNK         0.3000 
    206 H206       -4.3208  -25.1981  -50.8757 H         1 UNK         0.0600 
    207 H207       -2.2745  -25.5817  -52.2532 H         1 UNK         0.0600 
    208 H208       -3.0390  -24.0722  -52.7238 H         1 UNK         0.0600 
    209 H209       -1.5965  -24.0458  -51.7187 H         1 UNK         0.0600 
    210 H210       -5.7325  -23.5610  -50.7180 H         1 UNK         0.3000 
    211 H211       -5.3730  -21.4649  -48.8286 H         1 UNK         0.0600 
    212 H212       -7.6578  -22.0316  -50.7858 H         1 UNK         0.0600 
    213 H213       -7.7398  -20.9681  -49.3869 H         1 UNK         0.0600 
    214 H214       -7.5020  -22.6907  -49.1562 H         1 UNK         0.0600 
    215 H215       -3.3829  -20.8329  -50.3802 H         1 UNK         0.3000 
    216 H216       -2.3052  -19.1869  -51.4141 H         1 UNK         0.0600 
    217 H217       -2.9771  -16.8878  -50.8356 H         1 UNK         0.0600 
    218 H218       -3.3455  -17.9299  -49.4748 H         1 UNK         0.0600 
    219 H219       -4.6402  -17.3946  -50.5313 H         1 UNK         0.0600 
    220 H220       -3.9320  -16.7804  -52.6163 H         1 UNK         0.3000 
    221 H221       -3.6492  -17.5242  -55.3211 H         1 UNK         0.0600 
    222 H222       -5.1690  -15.1789  -54.0596 H         1 UNK         0.0600 
    223 H223       -3.4632  -15.1914  -54.5112 H         1 UNK         0.0600 
    224 H224       -4.7011  -15.2955  -55.7520 H         1 UNK         0.0600 
    225 H225       -6.4377  -17.8700  -53.1862 H         1 UNK         0.3000 
    226 H226       -8.4301  -18.1991  -55.2532 H         1 UNK         0.0600 
    227 H227       -9.0117  -17.5412  -52.9186 H         1 UNK         0.0600 
    228 H228       -9.8417  -19.0144  -53.3939 H         1 UNK         0.0600 
    229 H229       -8.4503  -19.1044  -52.3260 H         1 UNK         0.0600 
    230 H230       -5.9715  -20.2654  -53.8959 H         1 UNK         0.3000 
    231 H231       -7.0258  -22.6835  -55.3010 H         1 UNK         0.0600 
    232 H232       -6.5126  -22.9459  -52.8652 H         1 UNK         0.0600 
    233 H233       -4.8604  -22.3946  -53.1546 H         1 UNK         0.0600 
    234 H234       -5.4283  -23.9075  -53.8554 H         1 UNK         0.0600 
    235 H235       -5.4796  -20.0844  -56.2361 H         1 UNK         0.3000 
    236 H236       -3.9130  -19.4270  -57.6392 H         1 UNK         0.0600 
    237 H237       -3.4970  -20.8210  -59.6332 H         1 UNK         0.0600 
    238 H238       -4.0771  -22.2580  -58.8012 H         1 UNK         0.0600 
    239 H239       -5.1869  -20.9399  -59.1752 H         1 UNK         0.0600 
    240 H240       -2.9538  -20.3542  -55.1041 H         1 UNK         0.3000 
    241 H241       -1.1539  -20.7218  -53.9419 H         1 UNK         0.0600 
    242 H242       -1.3601  -24.3872  -55.1872 H         1 UNK         0.3800 
    243 H243       -2.4869  -23.1183  -55.5929 H         1 UNK         0.3800 
    244 H244        1.1962  -20.5054  -54.9636 H         1 UNK         0.0800 
    245 H245        0.4548  -20.2611  -56.5022 H         1 UNK         0.0800 
    246 H246        2.2800  -18.6405  -54.0600 H         1 UNK         0.0800 
    247 H247        1.6343  -17.0476  -53.7939 H         1 UNK         0.0800 
@<TRIPOS>BOND
     1    1    2 1    
     2    1  127 1    
     3    1  128 1    
     4    1  129 1    
     5    2    3 2    
     6    2    4 am   BACKBONE|DICT|INTERRES
     7    4    5 1    
     8    4  130 1    
     9    5    6 1    
    10    5   65 1    
    11    5  131 1    
    12    6    7 1    
    13    6  132 1    
    14    6  133 1    
    15    7    8 1    
    16    8    9 1    
    17    8  134 1    
    18    8  135 1    
    19    9   10 ar   
    20    9   14 ar   
    21   10   11 ar   
    22   10  136 1    
    23   11   12 ar   
    24   11  126 1    
    25   12   13 ar   
    26   12  137 1    
    27   13   14 ar   
    28   13   15 1    
    29   14  138 1    
    30   15   16 1    
    31   15  139 1    
    32   15  140 1    
    33   16   17 1    
    34   17   18 1    
    35   17  141 1    
    36   17  142 1    
    37   18   19 1    
    38   18   67 1    
    39   18  143 1    
    40   19   20 am   BACKBONE|DICT|INTERRES
    41   19  144 1    
    42   20   21 2    
    43   20   22 1    
    44   22   23 1    
    45   22   24 1    
    46   22  145 1    
    47   23  146 1    
    48   23  147 1    
    49   23  148 1    
    50   24   25 am   BACKBONE|DICT|INTERRES
    51   24  149 1    
    52   25   26 2    
    53   25   27 1    
    54   27   28 1    
    55   27   29 1    
    56   27  150 1    
    57   28  151 1    
    58   28  152 1    
    59   28  153 1    
    60   29   30 am   BACKBONE|DICT|INTERRES
    61   29  154 1    
    62   30   31 2    
    63   30   32 1    
    64   32   33 1    
    65   32   34 1    
    66   32  155 1    
    67   33  156 1    
    68   33  157 1    
    69   33  158 1    
    70   34   35 am   BACKBONE|DICT|INTERRES
    71   34  159 1    
    72   35   36 2    
    73   35   37 1    
    74   37   38 1    
    75   37   39 1    
    76   37  160 1    
    77   38  161 1    
    78   38  162 1    
    79   38  163 1    
    80   39   40 am   BACKBONE|DICT|INTERRES
    81   39  164 1    
    82   40   41 2    
    83   40   42 1    
    84   42   43 1    
    85   42   44 1    
    86   42  165 1    
    87   43  166 1    
    88   43  167 1    
    89   43  168 1    
    90   44   45 am   BACKBONE|DICT|INTERRES
    91   44  169 1    
    92   45   46 2    
    93   45   47 1    
    94   47   48 1    
    95   47   49 1    
    96   47  170 1    
    97   48  171 1    
    98   48  172 1    
    99   48  173 1    
   100   49   50 am   BACKBONE|DICT|INTERRES
   101   49  174 1    
   102   50   51 2    
   103   50   52 1    
   104   52   53 1    
   105   52   54 1    
   106   52  175 1    
   107   53  176 1    
   108   53  177 1    
   109   53  178 1    
   110   54   55 am   BACKBONE|DICT|INTERRES
   111   54  179 1    
   112   55   56 2    
   113   55   57 1    
   114   57   58 1    
   115   57   59 1    
   116   57  180 1    
   117   58  181 1    
   118   58  182 1    
   119   58  183 1    
   120   59   60 am   BACKBONE|DICT|INTERRES
   121   59  184 1    
   122   60   61 2    
   123   60   62 1    
   124   62   63 1    
   125   62   64 1    
   126   62  185 1    
   127   63  186 1    
   128   63  187 1    
   129   63  188 1    
   130   64   65 am   BACKBONE|DICT|INTERRES
   131   64  189 1    
   132   65   66 2    
   133   67   68 2    
   134   67   69 am   BACKBONE|DICT|INTERRES
   135   69   70 1    
   136   69  190 1    
   137   70   71 1    
   138   70   72 1    
   139   70  191 1    
   140   71  192 1    
   141   71  193 1    
   142   71  194 1    
   143   72   73 2    
   144   72   74 am   BACKBONE|DICT|INTERRES
   145   74   75 1    
   146   74  195 1    
   147   75   76 1    
   148   75   77 1    
   149   75  196 1    
   150   76  197 1    
   151   76  198 1    
   152   76  199 1    
   153   77   78 2    
   154   77   79 am   BACKBONE|DICT|INTERRES
   155   79   80 1    
   156   79  200 1    
   157   80   81 1    
   158   80   82 1    
   159   80  201 1    
   160   81  202 1    
   161   81  203 1    
   162   81  204 1    
   163   82   83 2    
   164   82   84 am   BACKBONE|DICT|INTERRES
   165   84   85 1    
   166   84  205 1    
   167   85   86 1    
   168   85   87 1    
   169   85  206 1    
   170   86  207 1    
   171   86  208 1    
   172   86  209 1    
   173   87   88 2    
   174   87   89 am   BACKBONE|DICT|INTERRES
   175   89   90 1    
   176   89  210 1    
   177   90   91 1    
   178   90   92 1    
   179   90  211 1    
   180   91  212 1    
   181   91  213 1    
   182   91  214 1    
   183   92   93 2    
   184   92   94 am   BACKBONE|DICT|INTERRES
   185   94   95 1    
   186   94  215 1    
   187   95   96 1    
   188   95   97 1    
   189   95  216 1    
   190   96  217 1    
   191   96  218 1    
   192   96  219 1    
   193   97   98 2    
   194   97   99 am   BACKBONE|DICT|INTERRES
   195   99  100 1    
   196   99  220 1    
   197  100  101 1    
   198  100  102 1    
   199  100  221 1    
   200  101  222 1    
   201  101  223 1    
   202  101  224 1    
   203  102  103 2    
   204  102  104 am   BACKBONE|DICT|INTERRES
   205  104  105 1    
   206  104  225 1    
   207  105  106 1    
   208  105  107 1    
   209  105  226 1    
   210  106  227 1    
   211  106  228 1    
   212  106  229 1    
   213  107  108 2    
   214  107  109 am   BACKBONE|DICT|INTERRES
   215  109  110 1    
   216  109  230 1    
   217  110  111 1    
   218  110  112 1    
   219  110  231 1    
   220  111  232 1    
   221  111  233 1    
   222  111  234 1    
   223  112  113 2    
   224  112  114 am   BACKBONE|DICT|INTERRES
   225  114  115 1    
   226  114  235 1    
   227  115  116 1    
   228  115  117 1    
   229  115  236 1    
   230  116  237 1    
   231  116  238 1    
   232  116  239 1    
   233  117  118 2    
   234  117  119 am   BACKBONE|DICT|INTERRES
   235  119  120 1    
   236  119  240 1    
   237  120  121 1    
   238  120  124 1    
   239  120  241 1    
   240  121  122 am   BACKBONE|DICT|INTERRES
   241  121  123 2    
   242  122  242 1    
   243  122  243 1    
   244  124  125 1    
   245  124  244 1    
   246  124  245 1    
   247  125  126 1    
   248  126  246 1    
   249  126  247 1    
@<TRIPOS>SUBSTRUCTURE
     1 UNK         1 GROUP             0       ****    0 ROOT    
