@<TRIPOS>MOLECULE
3R540
247   249    1
SMALL
USER_CHARGES


@<TRIPOS>ATOM
      1 CA          1.9536   -8.1955  -44.2727 C.3       0 UNK        -0.1800 
      2 C           2.5320   -9.2941  -45.1524 C.2       0 UNK         0.5000 
      3 O           3.6410   -9.1445  -45.6672 O.2       0 UNK        -0.5000 
      4 N           1.7992  -10.4023  -45.3211 N.am      1 UNK        -0.5000 
      5 CA          2.2200  -11.5792  -46.0874 C.3       1 UNK         0.1400 
      6 C6          1.0096  -12.3270  -46.7039 C.3       23 UNK        -0.0398 
      7 S7          1.4995  -13.3109  -48.1595 S.3       23 UNK        -0.2404 
      8 C8         -0.1022  -14.0028  -48.6839 C.3       23 UNK        -0.0205 
      9 C9          0.0566  -15.0990  -49.7299 C.ar      23 UNK        -0.0193 
     10 C10        -0.6518  -15.0424  -50.9344 C.ar      23 UNK        -0.1150 
     11 C11        -0.5138  -16.0588  -51.8852 C.ar      23 UNK        -0.0193 
     12 C12         0.3469  -17.1306  -51.6302 C.ar      23 UNK        -0.1150 
     13 C13         1.0460  -17.2100  -50.4223 C.ar      23 UNK        -0.0193 
     14 C14         0.8922  -16.1915  -49.4800 C.ar      23 UNK        -0.1150 
     15 C15         1.9836  -18.3763  -50.1305 C.3       23 UNK        -0.0205 
     16 S16         1.2231  -20.0073  -50.4149 S.3       23 UNK        -0.2404 
     17 C17        -0.2262  -19.9790  -49.3060 C.3       23 UNK        -0.0398 
     18 CA         -0.2790  -21.2471  -48.4143 C.3       11 UNK         0.1400 
     19 N           0.4072  -21.0608  -47.1305 N.am      11 UNK        -0.5000 
     20 C           0.7552  -22.0605  -46.3077 C.2       10 UNK         0.5000 
     21 O           0.5377  -23.2480  -46.5479 O.2       10 UNK        -0.5000 
     22 CA          1.4269  -21.6703  -44.9789 C.3       10 UNK         0.1400 
     23 CB          2.8935  -21.2648  -45.1929 C.3       10 UNK        -0.1800 
     24 N           0.7075  -20.5964  -44.2956 N.am      10 UNK        -0.5000 
     25 C          -0.4978  -20.7408  -43.7260 C.2       9 UNK         0.5000 
     26 O          -1.1021  -21.8118  -43.6653 O.2       9 UNK        -0.5000 
     27 CA         -1.1530  -19.4722  -43.1473 C.3       9 UNK         0.1400 
     28 CB         -0.7003  -19.2432  -41.6976 C.3       9 UNK        -0.1800 
     29 N          -0.8768  -18.2682  -43.9305 N.am      9 UNK        -0.5000 
     30 C          -1.2406  -18.0794  -45.2071 C.2       8 UNK         0.5000 
     31 O          -1.8706  -18.8978  -45.8724 O.2       8 UNK        -0.5000 
     32 CA         -0.7529  -16.7819  -45.8709 C.3       8 UNK         0.1400 
     33 CB         -1.5873  -15.5854  -45.3856 C.3       8 UNK        -0.1800 
     34 N           0.6699  -16.5504  -45.6132 N.am      8 UNK        -0.5000 
     35 C           1.6514  -17.3813  -45.9976 C.2       7 UNK         0.5000 
     36 O           1.4612  -18.4047  -46.6532 O.2       7 UNK        -0.5000 
     37 CA          3.0760  -17.0375  -45.5409 C.3       7 UNK         0.1400 
     38 CB          3.7769  -16.1352  -46.5656 C.3       7 UNK        -0.1800 
     39 N           3.0706  -16.4032  -44.2233 N.am      7 UNK        -0.5000 
     40 C           2.9186  -17.0849  -43.0787 C.2       6 UNK         0.5000 
     41 O           2.8294  -18.3122  -43.0238 O.2       6 UNK        -0.5000 
     42 CA          2.7957  -16.2603  -41.7845 C.3       6 UNK         0.1400 
     43 CB          4.1790  -15.9716  -41.1825 C.3       6 UNK        -0.1800 
     44 N           2.0553  -15.0091  -41.9763 N.am      6 UNK        -0.5000 
     45 C           0.7405  -14.9707  -42.2426 C.2       5 UNK         0.5000 
     46 O           0.0619  -15.9905  -42.3743 O.2       5 UNK        -0.5000 
     47 CA          0.0624  -13.5956  -42.3910 C.3       5 UNK         0.1400 
     48 CB         -1.4049  -13.6134  -41.9092 C.3       5 UNK        -0.1800 
     49 N           0.7875  -12.5408  -41.6851 N.am      5 UNK        -0.5000 
     50 C           0.6902  -11.2377  -41.9780 C.2       4 UNK         0.5000 
     51 O           0.0743  -10.7952  -42.9487 O.2       4 UNK        -0.5000 
     52 CA          1.4256  -10.2725  -41.0419 C.3       4 UNK         0.1400 
     53 CB          0.7593  -10.2141  -39.6546 C.3       4 UNK        -0.1800 
     54 N           2.8165  -10.6888  -40.9417 N.am      4 UNK        -0.5000 
     55 C           3.8460   -9.9555  -40.5159 C.2       3 UNK         0.5000 
     56 O           3.7393   -8.8122  -40.0713 O.2       3 UNK        -0.5000 
     57 CA          5.2413  -10.5993  -40.6455 C.3       3 UNK         0.1400 
     58 CB          5.4826  -11.6450  -39.5390 C.3       3 UNK        -0.1800 
     59 N           5.5180  -11.1488  -41.9827 N.am      3 UNK        -0.5000 
     60 C           4.9403  -12.1885  -42.6015 C.2       2 UNK         0.5000 
     61 O           4.0593  -12.8879  -42.0951 O.2       2 UNK        -0.5000 
     62 CA          5.3837  -12.4338  -44.0534 C.3       2 UNK         0.1400 
     63 CB          5.7995  -13.8932  -44.3049 C.3       2 UNK        -0.1800 
     64 N           4.3545  -11.9784  -44.9909 N.am      2 UNK        -0.5000 
     65 C           3.1202  -12.4632  -45.1964 C.2       1 UNK         0.5000 
     66 O           2.6760  -13.4976  -44.6915 O.2       1 UNK        -0.5000 
     67 C          -1.7258  -21.7593  -48.2546 C.2       11 UNK         0.5000 
     68 O          -2.1950  -22.4769  -49.1347 O.2       11 UNK        -0.5000 
     69 N          -2.4001  -21.4114  -47.1488 N.am      12 UNK        -0.5000 
     70 CA         -3.7696  -21.8249  -46.8254 C.3       12 UNK         0.1400 
     71 CB         -4.2783  -21.0073  -45.6280 C.3       12 UNK        -0.1800 
     72 C          -3.9460  -23.3328  -46.5505 C.2       12 UNK         0.5000 
     73 O          -5.0846  -23.8068  -46.5589 O.2       12 UNK        -0.5000 
     74 N          -2.8448  -24.0605  -46.3150 N.am      13 UNK        -0.5000 
     75 CA         -2.8182  -25.5047  -46.0754 C.3       13 UNK         0.1400 
     76 CB         -1.3650  -25.9453  -45.8490 C.3       13 UNK        -0.1800 
     77 C          -3.4534  -26.3197  -47.2202 C.2       13 UNK         0.5000 
     78 O          -3.3358  -25.9391  -48.3875 O.2       13 UNK        -0.5000 
     79 N          -4.1189  -27.4252  -46.8546 N.am      14 UNK        -0.5000 
     80 CA         -4.8462  -28.3436  -47.7411 C.3       14 UNK         0.1400 
     81 CB         -3.8616  -29.1322  -48.6305 C.3       14 UNK        -0.1800 
     82 C          -5.9576  -27.6380  -48.5488 C.2       14 UNK         0.5000 
     83 O          -6.0936  -27.8741  -49.7502 O.2       14 UNK        -0.5000 
     84 N          -6.7085  -26.7557  -47.8698 N.am      15 UNK        -0.5000 
     85 CA         -7.7707  -25.8993  -48.4124 C.3       15 UNK         0.1400 
     86 CB         -8.9874  -26.7452  -48.8442 C.3       15 UNK        -0.1800 
     87 C          -7.2464  -24.9814  -49.5347 C.2       15 UNK         0.5000 
     88 O          -7.7780  -24.9870  -50.6459 O.2       15 UNK        -0.5000 
     89 N          -6.1681  -24.2491  -49.2251 N.am      16 UNK        -0.5000 
     90 CA         -5.3943  -23.3947  -50.1298 C.3       16 UNK         0.1400 
     91 CB         -6.2000  -22.1416  -50.5276 C.3       16 UNK        -0.1800 
     92 C          -4.8278  -24.1698  -51.3358 C.2       16 UNK         0.5000 
     93 O          -4.9657  -23.7238  -52.4775 O.2       16 UNK        -0.5000 
     94 N          -4.2330  -25.3384  -51.0531 N.am      17 UNK        -0.5000 
     95 CA         -3.7135  -26.3260  -52.0049 C.3       17 UNK         0.1400 
     96 CB         -2.4292  -25.7990  -52.6766 C.3       17 UNK        -0.1800 
     97 C          -4.7829  -26.7809  -53.0213 C.2       17 UNK         0.5000 
     98 O          -4.5275  -26.7865  -54.2257 O.2       17 UNK        -0.5000 
     99 N          -5.9752  -27.1147  -52.5059 N.am      18 UNK        -0.5000 
    100 CA        -7.2106  -27.4063  -53.2403 C.3       18 UNK         0.1400 
    101 CB        -7.0847  -28.7271  -54.0280 C.3       18 UNK        -0.1800 
    102 C         -7.6686  -26.2135  -54.1092 C.2       18 UNK         0.5000 
    103 O         -7.9936  -26.3874  -55.2855 O.2       18 UNK        -0.5000 
    104 N         -7.6755  -25.0221  -53.4932 N.am      19 UNK        -0.5000 
    105 CA        -8.0243  -23.7140  -54.0545 C.3       19 UNK         0.1400 
    106 CB        -9.5425  -23.6338  -54.3155 C.3       19 UNK        -0.1800 
    107 C         -7.1737  -23.3320  -55.2852 C.2       19 UNK         0.5000 
    108 O         -7.7216  -22.9117  -56.3071 O.2       19 UNK        -0.5000 
    109 N         -5.8497  -23.4975  -55.1706 N.am      20 UNK        -0.5000 
    110 CA        -4.8968  -23.2824  -56.2615 C.3       20 UNK         0.1400 
    111 CB        -4.6918  -24.6003  -57.0294 C.3       20 UNK        -0.1800 
    112 C         -3.5513  -22.6810  -55.8150 C.2       20 UNK         0.5000 
    113 O         -2.7200  -22.4125  -56.6842 O.2       20 UNK        -0.5000 
    114 N         -3.3388  -22.4504  -54.5081 N.am      21 UNK        -0.5000 
    115 CA        -2.0768  -21.9477  -53.9395 C.3       21 UNK         0.1400 
    116 CB        -2.1920  -21.8659  -52.4098 C.3       21 UNK        -0.1800 
    117 C         -1.5962  -20.5943  -54.5026 C.2       21 UNK         0.5000 
    118 O         -0.3877  -20.3718  -54.5877 O.2       21 UNK        -0.5000 
    119 N         -2.5450  -19.7364  -54.8941 N.am      22 UNK        -0.5000 
    120 CA        -2.2964  -18.4418  -55.5504 C.3       22 UNK         0.1400 
    121 C         -2.4899  -18.4889  -57.0957 C.2       22 UNK         0.5000 
    122 N         -2.6556  -19.6500  -57.7192 N.am      22 UNK        -0.7600 
    123 O         -2.4730  -17.4515  -57.7527 O.2       22 UNK        -0.5000 
    124 C124       -3.1131  -17.2952  -54.8949 C.3       23 UNK        -0.0398 
    125 S125       -2.7445  -17.1065  -53.1173 S.3       23 UNK        -0.2404 
    126 C126       -1.2915  -16.0129  -53.1894 C.3       23 UNK        -0.0205 
    127 H127        1.9631   -7.2447  -44.8055 H         1 UNK         0.0600 
    128 H128        2.5524   -8.0864  -43.3684 H         1 UNK         0.0600 
    129 H129        0.9250   -8.4079  -43.9814 H         1 UNK         0.0600 
    130 H130        0.9421  -10.5055  -44.7867 H         1 UNK         0.3000 
    131 H131        2.8342  -11.2289  -46.9204 H         1 UNK         0.0600 
    132 H132        0.5059  -12.9586  -45.9719 H         1 UNK         0.0800 
    133 H133        0.2641  -11.6064  -47.0431 H         1 UNK         0.0800 
    134 H134       -0.6192  -14.4251  -47.8260 H         1 UNK         0.0800 
    135 H135       -0.7298  -13.1934  -49.0599 H         1 UNK         0.0800 
    136 H136       -1.3154  -14.2120  -51.1309 H         1 UNK         0.1150 
    137 H137        0.4567  -17.9147  -52.3669 H         1 UNK         0.1150 
    138 H138        1.4353  -16.2382  -48.5490 H         1 UNK         0.1150 
    139 H139        2.8611  -18.2843  -50.7714 H         1 UNK         0.0800 
    140 H140        2.3504  -18.3372  -49.1048 H         1 UNK         0.0800 
    141 H141       -1.1002  -19.8983  -49.9555 H         1 UNK         0.0800 
    142 H142       -0.2322  -19.0738  -48.6968 H         1 UNK         0.0800 
    143 H143        0.2432  -22.0532  -48.9351 H         1 UNK         0.0600 
    144 H144        0.6544  -20.1065  -46.8799 H         1 UNK         0.3000 
    145 H145        1.4165  -22.5485  -44.3297 H         1 UNK         0.0600 
    146 H146        3.4605  -22.0834  -45.6377 H         1 UNK         0.0600 
    147 H147        2.9879  -20.4061  -45.8567 H         1 UNK         0.0600 
    148 H148        3.3745  -21.0109  -44.2480 H         1 UNK         0.0600 
    149 H149        1.1412  -19.6835  -44.2915 H         1 UNK         0.3000 
    150 H150       -2.2336  -19.6276  -43.1487 H         1 UNK         0.0600 
    151 H151       -0.9077  -20.1174  -41.0792 H         1 UNK         0.0600 
    152 H152       -1.2226  -18.3967  -41.2512 H         1 UNK         0.0600 
    153 H153        0.3703  -19.0429  -41.6386 H         1 UNK         0.0600 
    154 H154       -0.3909  -17.5171  -43.4471 H         1 UNK         0.3000 
    155 H155       -0.8799  -16.8780  -46.9513 H         1 UNK         0.0600 
    156 H156       -1.1458  -14.6311  -45.6640 H         1 UNK         0.0600 
    157 H157       -1.7026  -15.5868  -44.3038 H         1 UNK         0.0600 
    158 H158       -2.5900  -15.6207  -45.8127 H         1 UNK         0.0600 
    159 H159        0.9157  -15.7447  -45.0583 H         1 UNK         0.3000 
    160 H160        3.6406  -17.9704  -45.4820 H         1 UNK         0.0600 
    161 H161        3.2755  -15.1745  -46.6701 H         1 UNK         0.0600 
    162 H162        3.7932  -16.6035  -47.5505 H         1 UNK         0.0600 
    163 H163        4.8114  -15.9468  -46.2812 H         1 UNK         0.0600 
    164 H164        3.0812  -15.3869  -44.2010 H         1 UNK         0.3000 
    165 H165        2.2426  -16.8655  -41.0628 H         1 UNK         0.0600 
    166 H166        4.0980  -15.3857  -40.2668 H         1 UNK         0.0600 
    167 H167        4.6935  -16.9000  -40.9319 H         1 UNK         0.0600 
    168 H168        4.8176  -15.4241  -41.8744 H         1 UNK         0.0600 
    169 H169        2.6070  -14.1553  -41.9963 H         1 UNK         0.3000 
    170 H170        0.0731  -13.3763  -43.4604 H         1 UNK         0.0600 
    171 H171       -1.9897  -14.3867  -42.4053 H         1 UNK         0.0600 
    172 H172       -1.4661  -13.7987  -40.8364 H         1 UNK         0.0600 
    173 H173       -1.9022  -12.6651  -42.1122 H         1 UNK         0.0600 
    174 H174        1.3111  -12.8308  -40.8709 H         1 UNK         0.3000 
    175 H175        1.3884   -9.2779  -41.4899 H         1 UNK         0.0600 
    176 H176        1.2180   -9.4508  -39.0262 H         1 UNK         0.0600 
    177 H177       -0.2995   -9.9667  -39.7412 H         1 UNK         0.0600 
    178 H178        0.8335  -11.1664  -39.1287 H         1 UNK         0.0600 
    179 H179        3.0458  -11.5936  -41.3494 H         1 UNK         0.3000 
    180 H180        5.9692   -9.7996  -40.4990 H         1 UNK         0.0600 
    181 H181        4.7768  -12.4742  -39.5927 H         1 UNK         0.0600 
    182 H182        5.3767  -11.1943  -38.5516 H         1 UNK         0.0600 
    183 H183        6.4891  -12.0583  -39.6013 H         1 UNK         0.0600 
    184 H184        6.2005  -10.6210  -42.5092 H         1 UNK         0.3000 
    185 H185        6.2615  -11.8161  -44.2494 H         1 UNK         0.0600 
    186 H186        6.6331  -14.1741  -43.6605 H         1 UNK         0.0600 
    187 H187        4.9900  -14.5889  -44.1033 H         1 UNK         0.0600 
    188 H188        6.1201  -14.0385  -45.3362 H         1 UNK         0.0600 
    189 H189        4.5469  -11.0792  -45.4184 H         1 UNK         0.3000 
    190 H190       -1.9757  -20.7399  -46.5156 H         1 UNK         0.3000 
    191 H191       -4.3990  -21.5816  -47.6830 H         1 UNK         0.0600 
    192 H192       -4.3122  -19.9437  -45.8625 H         1 UNK         0.0600 
    193 H193       -5.2899  -21.3037  -45.3475 H         1 UNK         0.0600 
    194 H194       -3.6422  -21.1408  -44.7526 H         1 UNK         0.0600 
    195 H195       -1.9481  -23.5959  -46.3586 H         1 UNK         0.3000 
    196 H196       -3.3842  -25.6901  -45.1605 H         1 UNK         0.0600 
    197 H197       -1.3080  -27.0099  -45.6187 H         1 UNK         0.0600 
    198 H198       -0.9134  -25.4070  -45.0153 H         1 UNK         0.0600 
    199 H199       -0.7518  -25.7671  -46.7335 H         1 UNK         0.0600 
    200 H200       -4.1593  -27.6547  -45.8710 H         1 UNK         0.3000 
    201 H201       -5.3529  -29.0628  -47.0962 H         1 UNK         0.0600 
    202 H202       -3.1173  -29.6519  -48.0274 H         1 UNK         0.0600 
    203 H203       -3.3317  -28.4823  -49.3268 H         1 UNK         0.0600 
    204 H204       -4.3839  -29.8865  -49.2201 H         1 UNK         0.0600 
    205 H205       -6.4883  -26.6080  -46.8948 H         1 UNK         0.3000 
    206 H206       -8.0927  -25.2447  -47.6012 H         1 UNK         0.0600 
    207 H207       -9.3493  -27.3626  -48.0222 H         1 UNK         0.0600 
    208 H208       -9.8132  -26.1058  -49.1582 H         1 UNK         0.0600 
    209 H209       -8.7510  -27.4047  -49.6797 H         1 UNK         0.0600 
    210 H210       -5.8020  -24.3182  -48.2794 H         1 UNK         0.3000 
    211 H211       -4.5343  -23.0592  -49.5601 H         1 UNK         0.0600 
    212 H212       -7.0948  -22.3956  -51.0946 H         1 UNK         0.0600 
    213 H213       -5.6000  -21.4698  -51.1426 H         1 UNK         0.0600 
    214 H214       -6.5116  -21.5812  -49.6463 H         1 UNK         0.0600 
    215 H215       -4.1206  -25.5875  -50.0726 H         1 UNK         0.3000 
    216 H216       -3.4464  -27.2067  -51.4201 H         1 UNK         0.0600 
    217 H217       -1.9578  -26.5763  -53.2788 H         1 UNK         0.0600 
    218 H218       -1.6999  -25.4749  -51.9341 H         1 UNK         0.0600 
    219 H219       -2.6346  -24.9565  -53.3363 H         1 UNK         0.0600 
    220 H220       -6.0632  -27.1318  -51.4921 H         1 UNK         0.3000 
    221 H221       -7.9843  -27.5474  -52.4840 H         1 UNK         0.0600 
    222 H222       -6.3582  -28.6513  -54.8375 H         1 UNK         0.0600 
    223 H223       -6.7778  -29.5454  -53.3768 H         1 UNK         0.0600 
    224 H224       -8.0402  -29.0071  -54.4726 H         1 UNK         0.0600 
    225 H225       -7.4367  -25.0090  -52.5043 H         1 UNK         0.3000 
    226 H226       -7.7858  -22.9795  -53.2853 H         1 UNK         0.0600 
    227 H227      -10.1085  -23.8672  -53.4136 H         1 UNK         0.0600 
    228 H228       -9.8335  -22.6308  -54.6295 H         1 UNK         0.0600 
    229 H229       -9.8561  -24.3267  -55.0970 H         1 UNK         0.0600 
    230 H230       -5.4793  -23.8318  -54.2841 H         1 UNK         0.3000 
    231 H231       -5.3127  -22.5518  -56.9581 H         1 UNK         0.0600 
    232 H232       -4.2156  -25.3556  -56.4050 H         1 UNK         0.0600 
    233 H233       -4.0581  -24.4523  -57.9045 H         1 UNK         0.0600 
    234 H234       -5.6402  -25.0066  -57.3817 H         1 UNK         0.0600 
    235 H235       -4.0500  -22.7195  -53.8356 H         1 UNK         0.3000 
    236 H236       -1.3035  -22.6808  -54.1775 H         1 UNK         0.0600 
    237 H237       -2.3128  -22.8542  -51.9694 H         1 UNK         0.0600 
    238 H238       -1.2918  -21.4352  -51.9697 H         1 UNK         0.0600 
    239 H239       -3.0366  -21.2501  -52.0990 H         1 UNK         0.0600 
    240 H240       -3.5112  -20.0102  -54.7961 H         1 UNK         0.3000 
    241 H241       -1.2442  -18.1819  -55.4262 H         1 UNK         0.0600 
    242 H242       -2.7707  -19.6556  -58.7203 H         1 UNK         0.3800 
    243 H243       -2.6222  -20.5324  -57.2186 H         1 UNK         0.3800 
    244 H244       -2.9196  -16.3417  -55.3896 H         1 UNK         0.0800 
    245 H245       -4.1821  -17.4825  -55.0054 H         1 UNK         0.0800 
    246 H246       -1.6141  -14.9950  -53.4138 H         1 UNK         0.0800 
    247 H247       -0.6353  -16.3168  -54.0061 H         1 UNK         0.0800 
@<TRIPOS>BOND
     1    1    2 1    
     2    1  127 1    
     3    1  128 1    
     4    1  129 1    
     5    2    3 2    
     6    2    4 am   BACKBONE|DICT|INTERRES
     7    4    5 1    
     8    4  130 1    
     9    5    6 1    
    10    5   65 1    
    11    5  131 1    
    12    6    7 1    
    13    6  132 1    
    14    6  133 1    
    15    7    8 1    
    16    8    9 1    
    17    8  134 1    
    18    8  135 1    
    19    9   10 ar   
    20    9   14 ar   
    21   10   11 ar   
    22   10  136 1    
    23   11   12 ar   
    24   11  126 1    
    25   12   13 ar   
    26   12  137 1    
    27   13   14 ar   
    28   13   15 1    
    29   14  138 1    
    30   15   16 1    
    31   15  139 1    
    32   15  140 1    
    33   16   17 1    
    34   17   18 1    
    35   17  141 1    
    36   17  142 1    
    37   18   19 1    
    38   18   67 1    
    39   18  143 1    
    40   19   20 am   BACKBONE|DICT|INTERRES
    41   19  144 1    
    42   20   21 2    
    43   20   22 1    
    44   22   23 1    
    45   22   24 1    
    46   22  145 1    
    47   23  146 1    
    48   23  147 1    
    49   23  148 1    
    50   24   25 am   BACKBONE|DICT|INTERRES
    51   24  149 1    
    52   25   26 2    
    53   25   27 1    
    54   27   28 1    
    55   27   29 1    
    56   27  150 1    
    57   28  151 1    
    58   28  152 1    
    59   28  153 1    
    60   29   30 am   BACKBONE|DICT|INTERRES
    61   29  154 1    
    62   30   31 2    
    63   30   32 1    
    64   32   33 1    
    65   32   34 1    
    66   32  155 1    
    67   33  156 1    
    68   33  157 1    
    69   33  158 1    
    70   34   35 am   BACKBONE|DICT|INTERRES
    71   34  159 1    
    72   35   36 2    
    73   35   37 1    
    74   37   38 1    
    75   37   39 1    
    76   37  160 1    
    77   38  161 1    
    78   38  162 1    
    79   38  163 1    
    80   39   40 am   BACKBONE|DICT|INTERRES
    81   39  164 1    
    82   40   41 2    
    83   40   42 1    
    84   42   43 1    
    85   42   44 1    
    86   42  165 1    
    87   43  166 1    
    88   43  167 1    
    89   43  168 1    
    90   44   45 am   BACKBONE|DICT|INTERRES
    91   44  169 1    
    92   45   46 2    
    93   45   47 1    
    94   47   48 1    
    95   47   49 1    
    96   47  170 1    
    97   48  171 1    
    98   48  172 1    
    99   48  173 1    
   100   49   50 am   BACKBONE|DICT|INTERRES
   101   49  174 1    
   102   50   51 2    
   103   50   52 1    
   104   52   53 1    
   105   52   54 1    
   106   52  175 1    
   107   53  176 1    
   108   53  177 1    
   109   53  178 1    
   110   54   55 am   BACKBONE|DICT|INTERRES
   111   54  179 1    
   112   55   56 2    
   113   55   57 1    
   114   57   58 1    
   115   57   59 1    
   116   57  180 1    
   117   58  181 1    
   118   58  182 1    
   119   58  183 1    
   120   59   60 am   BACKBONE|DICT|INTERRES
   121   59  184 1    
   122   60   61 2    
   123   60   62 1    
   124   62   63 1    
   125   62   64 1    
   126   62  185 1    
   127   63  186 1    
   128   63  187 1    
   129   63  188 1    
   130   64   65 am   BACKBONE|DICT|INTERRES
   131   64  189 1    
   132   65   66 2    
   133   67   68 2    
   134   67   69 am   BACKBONE|DICT|INTERRES
   135   69   70 1    
   136   69  190 1    
   137   70   71 1    
   138   70   72 1    
   139   70  191 1    
   140   71  192 1    
   141   71  193 1    
   142   71  194 1    
   143   72   73 2    
   144   72   74 am   BACKBONE|DICT|INTERRES
   145   74   75 1    
   146   74  195 1    
   147   75   76 1    
   148   75   77 1    
   149   75  196 1    
   150   76  197 1    
   151   76  198 1    
   152   76  199 1    
   153   77   78 2    
   154   77   79 am   BACKBONE|DICT|INTERRES
   155   79   80 1    
   156   79  200 1    
   157   80   81 1    
   158   80   82 1    
   159   80  201 1    
   160   81  202 1    
   161   81  203 1    
   162   81  204 1    
   163   82   83 2    
   164   82   84 am   BACKBONE|DICT|INTERRES
   165   84   85 1    
   166   84  205 1    
   167   85   86 1    
   168   85   87 1    
   169   85  206 1    
   170   86  207 1    
   171   86  208 1    
   172   86  209 1    
   173   87   88 2    
   174   87   89 am   BACKBONE|DICT|INTERRES
   175   89   90 1    
   176   89  210 1    
   177   90   91 1    
   178   90   92 1    
   179   90  211 1    
   180   91  212 1    
   181   91  213 1    
   182   91  214 1    
   183   92   93 2    
   184   92   94 am   BACKBONE|DICT|INTERRES
   185   94   95 1    
   186   94  215 1    
   187   95   96 1    
   188   95   97 1    
   189   95  216 1    
   190   96  217 1    
   191   96  218 1    
   192   96  219 1    
   193   97   98 2    
   194   97   99 am   BACKBONE|DICT|INTERRES
   195   99  100 1    
   196   99  220 1    
   197  100  101 1    
   198  100  102 1    
   199  100  221 1    
   200  101  222 1    
   201  101  223 1    
   202  101  224 1    
   203  102  103 2    
   204  102  104 am   BACKBONE|DICT|INTERRES
   205  104  105 1    
   206  104  225 1    
   207  105  106 1    
   208  105  107 1    
   209  105  226 1    
   210  106  227 1    
   211  106  228 1    
   212  106  229 1    
   213  107  108 2    
   214  107  109 am   BACKBONE|DICT|INTERRES
   215  109  110 1    
   216  109  230 1    
   217  110  111 1    
   218  110  112 1    
   219  110  231 1    
   220  111  232 1    
   221  111  233 1    
   222  111  234 1    
   223  112  113 2    
   224  112  114 am   BACKBONE|DICT|INTERRES
   225  114  115 1    
   226  114  235 1    
   227  115  116 1    
   228  115  117 1    
   229  115  236 1    
   230  116  237 1    
   231  116  238 1    
   232  116  239 1    
   233  117  118 2    
   234  117  119 am   BACKBONE|DICT|INTERRES
   235  119  120 1    
   236  119  240 1    
   237  120  121 1    
   238  120  124 1    
   239  120  241 1    
   240  121  122 am   BACKBONE|DICT|INTERRES
   241  121  123 2    
   242  122  242 1    
   243  122  243 1    
   244  124  125 1    
   245  124  244 1    
   246  124  245 1    
   247  125  126 1    
   248  126  246 1    
   249  126  247 1    
@<TRIPOS>SUBSTRUCTURE
     1 UNK         1 GROUP             0       ****    0 ROOT    
