@<TRIPOS>MOLECULE
3R540
247   249    1
SMALL
USER_CHARGES


@<TRIPOS>ATOM
      1 CA          6.9971  -11.9966  -49.9085 C.3       0 UNK        -0.1800 
      2 C           5.7738  -11.5470  -49.1221 C.2       0 UNK         0.5000 
      3 O           5.4132  -10.3713  -49.1757 O.2       0 UNK        -0.5000 
      4 N           5.1447  -12.4786  -48.3911 N.am      1 UNK        -0.5000 
      5 CA          3.9385  -12.2810  -47.5711 C.3       1 UNK         0.1400 
      6 C6          2.6711  -11.9163  -48.3930 C.3       23 UNK        -0.0398 
      7 S7          2.2251  -13.2265  -49.5785 S.3       23 UNK        -0.2404 
      8 C8          0.9178  -14.0732  -48.6417 C.3       23 UNK        -0.0205 
      9 C9          0.4810  -15.3474  -49.3403 C.ar      23 UNK        -0.0193 
     10 C10        -0.6312  -15.3438  -50.1834 C.ar      23 UNK        -0.1150 
     11 C11        -1.0509  -16.5219  -50.8046 C.ar      23 UNK        -0.0193 
     12 C12        -0.3501  -17.7097  -50.5735 C.ar      23 UNK        -0.1150 
     13 C13         0.7716  -17.7303  -49.7314 C.ar      23 UNK        -0.0193 
     14 C14         1.1799  -16.5376  -49.1272 C.ar      23 UNK        -0.1150 
     15 C15         1.5713  -18.9964  -49.4122 C.3       23 UNK        -0.0205 
     16 S16         1.0974  -20.5161  -50.3022 S.3       23 UNK        -0.2404 
     17 C17        -0.4962  -20.9394  -49.5248 C.3       23 UNK        -0.0398 
     18 CA         -0.3643  -22.1000  -48.5116 C.3       11 UNK         0.1400 
     19 N           0.2193  -21.6805  -47.2335 N.am      11 UNK        -0.5000 
     20 C           0.6375  -22.5297  -46.2836 C.2       10 UNK         0.5000 
     21 O           0.6280  -23.7539  -46.4096 O.2       10 UNK        -0.5000 
     22 CA          1.0702  -21.9102  -44.9440 C.3       10 UNK         0.1400 
     23 CB          2.5031  -21.3637  -45.0264 C.3       10 UNK        -0.1800 
     24 N           0.1508  -20.8560  -44.5108 N.am      10 UNK        -0.5000 
     25 C          -1.1120  -21.0874  -44.1188 C.2       9 UNK         0.5000 
     26 O          -1.6024  -22.2136  -44.0509 O.2       9 UNK        -0.5000 
     27 CA         -1.9948  -19.8715  -43.7764 C.3       9 UNK         0.1400 
     28 CB         -1.9347  -19.5801  -42.2700 C.3       9 UNK        -0.1800 
     29 N          -1.6610  -18.6588  -44.5233 N.am      9 UNK        -0.5000 
     30 C          -1.6670  -18.5403  -45.8585 C.2       8 UNK         0.5000 
     31 O          -1.9904  -19.4496  -46.6249 O.2       8 UNK        -0.5000 
     32 CA         -1.1571  -17.2042  -46.4321 C.3       8 UNK         0.1400 
     33 CB         -2.2950  -16.1818  -46.5509 C.3       8 UNK        -0.1800 
     34 N          -0.0508  -16.6238  -45.6612 N.am      8 UNK        -0.5000 
     35 C           1.1333  -17.2231  -45.4611 C.2       7 UNK         0.5000 
     36 O           1.4262  -18.3240  -45.9238 O.2       7 UNK        -0.5000 
     37 CA          2.1318  -16.5054  -44.5386 C.3       7 UNK         0.1400 
     38 CB          2.8610  -15.3656  -45.2695 C.3       7 UNK        -0.1800 
     39 N           1.4569  -16.0064  -43.3401 N.am      7 UNK        -0.5000 
     40 C           1.1184  -16.7888  -42.3033 C.2       6 UNK         0.5000 
     41 O           1.4748  -17.9621  -42.1947 O.2       6 UNK        -0.5000 
     42 CA          0.1966  -16.1873  -41.2245 C.3       6 UNK         0.1400 
     43 CB          0.9886  -15.7608  -39.9811 C.3       6 UNK        -0.1800 
     44 N          -0.5940  -15.0581  -41.7165 N.am      6 UNK        -0.5000 
     45 C          -1.6663  -15.1948  -42.5097 C.2       5 UNK         0.5000 
     46 O          -2.0954  -16.2841  -42.8860 O.2       5 UNK        -0.5000 
     47 CA         -2.3487  -13.9073  -43.0077 C.3       5 UNK         0.1400 
     48 CB         -3.4470  -13.4679  -42.0286 C.3       5 UNK        -0.1800 
     49 N          -1.4211  -12.7963  -43.2215 N.am      5 UNK        -0.5000 
     50 C          -0.3905  -12.8045  -44.0769 C.2       4 UNK         0.5000 
     51 O          -0.1092  -13.7696  -44.7902 O.2       4 UNK        -0.5000 
     52 CA          0.4978  -11.5445  -44.1251 C.3       4 UNK         0.1400 
     53 CB         -0.1112  -10.3162  -43.4132 C.3       4 UNK        -0.1800 
     54 N           1.8507  -11.7940  -43.6181 N.am      4 UNK        -0.5000 
     55 C           2.2014  -12.3003  -42.4238 C.2       3 UNK         0.5000 
     56 O           1.3855  -12.6902  -41.5872 O.2       3 UNK        -0.5000 
     57 CA          3.7096  -12.3950  -42.0996 C.3       3 UNK         0.1400 
     58 CB          4.1116  -13.8199  -41.6846 C.3       3 UNK        -0.1800 
     59 N           4.5577  -11.9767  -43.2182 N.am      3 UNK        -0.5000 
     60 C           5.0290  -10.7360  -43.4035 C.2       2 UNK         0.5000 
     61 O           4.8428   -9.8061  -42.6182 O.2       2 UNK        -0.5000 
     62 CA          5.8177  -10.4852  -44.7052 C.3       2 UNK         0.1400 
     63 CB          7.3232  -10.6791  -44.4696 C.3       2 UNK        -0.1800 
     64 N           5.3959  -11.3308  -45.8280 N.am      2 UNK        -0.5000 
     65 C           4.1752  -11.3186  -46.3846 C.2       1 UNK         0.5000 
     66 O           3.2557  -10.6126  -45.9686 O.2       1 UNK        -0.5000 
     67 C          -1.7256  -22.7874  -48.3036 C.2       11 UNK         0.5000 
     68 O          -1.9980  -23.7843  -48.9699 O.2       11 UNK        -0.5000 
     69 N          -2.5438  -22.2669  -47.3776 N.am      12 UNK        -0.5000 
     70 CA         -3.8579  -22.8227  -47.0494 C.3       12 UNK         0.1400 
     71 CB         -4.6374  -21.8322  -46.1746 C.3       12 UNK        -0.1800 
     72 C          -3.7849  -24.2101  -46.3847 C.2       12 UNK         0.5000 
     73 O          -4.6883  -25.0214  -46.5834 O.2       12 UNK        -0.5000 
     74 N          -2.7132  -24.4611  -45.6220 N.am      13 UNK        -0.5000 
     75 CA         -2.3979  -25.7665  -45.0492 C.3       13 UNK         0.1400 
     76 CB         -1.4082  -25.5877  -43.8875 C.3       13 UNK        -0.1800 
     77 C          -1.8331  -26.7370  -46.1026 C.2       13 UNK         0.5000 
     78 O          -2.2101  -27.9095  -46.1062 O.2       13 UNK        -0.5000 
     79 N          -0.9301  -26.2407  -46.9609 N.am      14 UNK        -0.5000 
     80 CA         -0.2406  -27.0264  -47.9839 C.3       14 UNK         0.1400 
     81 CB          0.9613  -26.2331  -48.5202 C.3       14 UNK        -0.1800 
     82 C          -1.1572  -27.4677  -49.1380 C.2       14 UNK         0.5000 
     83 O          -1.1572  -28.6477  -49.4926 O.2       14 UNK        -0.5000 
     84 N          -1.9051  -26.5196  -49.7149 N.am      15 UNK        -0.5000 
     85 CA         -2.8080  -26.7579  -50.8352 C.3       15 UNK         0.1400 
     86 CB         -2.8711  -25.4998  -51.7179 C.3       15 UNK        -0.1800 
     87 C          -4.2027  -27.1214  -50.3117 C.2       15 UNK         0.5000 
     88 O          -4.8082  -26.3254  -49.5920 O.2       15 UNK        -0.5000 
     89 N          -4.7187  -28.2841  -50.7328 N.am      16 UNK        -0.5000 
     90 CA         -6.0527  -28.7923  -50.3847 C.3       16 UNK         0.1400 
     91 CB         -6.1978  -30.2229  -50.9257 C.3       16 UNK        -0.1800 
     92 C          -7.2134  -27.9054  -50.8841 C.2       16 UNK         0.5000 
     93 O          -8.3107  -27.9674  -50.3294 O.2       16 UNK        -0.5000 
     94 N          -6.9387  -27.0747  -51.8990 N.am      17 UNK        -0.5000 
     95 CA         -7.8349  -26.0480  -52.4306 C.3       17 UNK         0.1400 
     96 CB         -7.3663  -25.6869  -53.8489 C.3       17 UNK        -0.1800 
     97 C          -7.9317  -24.7852  -51.5430 C.2       17 UNK         0.5000 
     98 O          -8.7003  -23.8852  -51.8804 O.2       17 UNK        -0.5000 
     99 N          -7.1603  -24.7300  -50.4444 N.am      18 UNK        -0.5000 
    100 CA        -7.1097  -23.6628  -49.4406 C.3       18 UNK         0.1400 
    101 CB        -8.4644  -23.5059  -48.7181 C.3       18 UNK        -0.1800 
    102 C         -6.5628  -22.3417  -50.0167 C.2       18 UNK         0.5000 
    103 O         -7.2028  -21.2958  -49.8993 O.2       18 UNK        -0.5000 
    104 N         -5.3724  -22.4334  -50.6294 N.am      19 UNK        -0.5000 
    105 CA        -4.5946  -21.3377  -51.2243 C.3       19 UNK         0.1400 
    106 CB        -4.1647  -20.3099  -50.1543 C.3       19 UNK        -0.1800 
    107 C         -5.2843  -20.6676  -52.4313 C.2       19 UNK         0.5000 
    108 O         -5.0940  -19.4703  -52.6565 O.2       19 UNK        -0.5000 
    109 N         -6.0515  -21.4492  -53.2062 N.am      20 UNK        -0.5000 
    110 CA        -6.7014  -21.0229  -54.4484 C.3       20 UNK         0.1400 
    111 CB        -7.5307  -22.1824  -55.0178 C.3       20 UNK        -0.1800 
    112 C         -5.6637  -20.5325  -55.4749 C.2       20 UNK         0.5000 
    113 O         -4.7747  -21.3001  -55.8531 O.2       20 UNK        -0.5000 
    114 N         -5.7481  -19.2416  -55.8297 N.am      21 UNK        -0.5000 
    115 CA        -4.7922  -18.4873  -56.6555 C.3       21 UNK         0.1400 
    116 CB        -4.8547  -18.9658  -58.1211 C.3       21 UNK        -0.1800 
    117 C         -3.3494  -18.4869  -56.0935 C.2       21 UNK         0.5000 
    118 O         -2.3949  -18.3157  -56.8537 O.2       21 UNK        -0.5000 
    119 N         -3.2207  -18.7027  -54.7764 N.am      22 UNK        -0.5000 
    120 CA        -1.9675  -18.9257  -54.0389 C.3       22 UNK         0.1400 
    121 C         -1.2201  -20.2395  -54.4250 C.2       22 UNK         0.5000 
    122 N         -1.8754  -21.2205  -55.0377 N.am      22 UNK        -0.7600 
    123 O         -0.0363  -20.3920  -54.1392 O.2       22 UNK        -0.5000 
    124 C124       -1.0383  -17.6781  -53.9979 C.3       23 UNK        -0.0398 
    125 S125       -1.8716  -16.1472  -53.4403 S.3       23 UNK        -0.2404 
    126 C126       -2.2799  -16.5100  -51.7009 C.3       23 UNK        -0.0205 
    127 H127        6.8451  -11.8167  -50.9728 H         1 UNK         0.0600 
    128 H128        7.2019  -13.0584  -49.7695 H         1 UNK         0.0600 
    129 H129        7.8755  -11.4361  -49.5888 H         1 UNK         0.0600 
    130 H130        5.4986  -13.4250  -48.4083 H         1 UNK         0.3000 
    131 H131        3.7460  -13.2469  -47.1036 H         1 UNK         0.0600 
    132 H132        1.8141  -11.7423  -47.7399 H         1 UNK         0.0800 
    133 H133        2.8189  -10.9853  -48.9415 H         1 UNK         0.0800 
    134 H134        1.2749  -14.3113  -47.6398 H         1 UNK         0.0800 
    135 H135        0.0675  -13.4017  -48.5120 H         1 UNK         0.0800 
    136 H136       -1.1733  -14.4241  -50.3535 H         1 UNK         0.1150 
    137 H137       -0.6915  -18.6114  -51.0574 H         1 UNK         0.1150 
    138 H138        2.0390  -16.5385  -48.4709 H         1 UNK         0.1150 
    139 H139        2.6219  -18.8016  -49.6317 H         1 UNK         0.0800 
    140 H140        1.5160  -19.1935  -48.3425 H         1 UNK         0.0800 
    141 H141       -1.1639  -21.2132  -50.3444 H         1 UNK         0.0800 
    142 H142       -0.9423  -20.0620  -49.0545 H         1 UNK         0.0800 
    143 H143        0.2976  -22.8531  -48.9446 H         1 UNK         0.0600 
    144 H144        0.2156  -20.6907  -47.0314 H         1 UNK         0.3000 
    145 H145        1.0557  -22.6995  -44.1893 H         1 UNK         0.0600 
    146 H146        2.8015  -20.8901  -44.0910 H         1 UNK         0.0600 
    147 H147        2.6151  -20.6309  -45.8254 H         1 UNK         0.0600 
    148 H148        3.2115  -22.1688  -45.2252 H         1 UNK         0.0600 
    149 H149        0.4800  -19.9017  -44.5851 H         1 UNK         0.3000 
    150 H150       -3.0242  -20.1294  -44.0264 H         1 UNK         0.0600 
    151 H151       -2.2034  -20.4640  -41.6900 H         1 UNK         0.0600 
    152 H152       -2.6302  -18.7887  -41.9911 H         1 UNK         0.0600 
    153 H153       -0.9350  -19.2766  -41.9597 H         1 UNK         0.0600 
    154 H154       -1.4663  -17.8302  -43.9707 H         1 UNK         0.3000 
    155 H155       -0.7908  -17.4131  -47.4361 H         1 UNK         0.0600 
    156 H156       -3.0974  -16.5661  -47.1818 H         1 UNK         0.0600 
    157 H157       -1.9440  -15.2527  -47.0008 H         1 UNK         0.0600 
    158 H158       -2.7259  -15.9447  -45.5787 H         1 UNK         0.0600 
    159 H159       -0.2001  -15.6991  -45.2702 H         1 UNK         0.3000 
    160 H160        2.8873  -17.2371  -44.2435 H         1 UNK         0.0600 
    161 H161        2.2056  -14.5234  -45.4809 H         1 UNK         0.0600 
    162 H162        3.2682  -15.7113  -46.2205 H         1 UNK         0.0600 
    163 H163        3.6987  -14.9935  -44.6820 H         1 UNK         0.0600 
    164 H164        1.0755  -15.0712  -43.3875 H         1 UNK         0.3000 
    165 H165       -0.4903  -16.9784  -40.9159 H         1 UNK         0.0600 
    166 H166        0.3192  -15.4609  -39.1747 H         1 UNK         0.0600 
    167 H167        1.6029  -16.5802  -39.6057 H         1 UNK         0.0600 
    168 H168        1.6493  -14.9232  -40.1915 H         1 UNK         0.0600 
    169 H169       -0.2532  -14.1293  -41.4944 H         1 UNK         0.3000 
    170 H170       -2.8182  -14.1331  -43.9668 H         1 UNK         0.0600 
    171 H171       -3.0342  -13.1961  -41.0562 H         1 UNK         0.0600 
    172 H172       -3.9980  -12.6091  -42.4124 H         1 UNK         0.0600 
    173 H173       -4.1690  -14.2695  -41.8666 H         1 UNK         0.0600 
    174 H174       -1.5621  -11.9747  -42.6521 H         1 UNK         0.3000 
    175 H175        0.6042  -11.2934  -45.1813 H         1 UNK         0.0600 
    176 H176       -0.2037  -10.4650  -42.3368 H         1 UNK         0.0600 
    177 H177        0.5111   -9.4345  -43.5679 H         1 UNK         0.0600 
    178 H178       -1.1005  -10.0798  -43.8074 H         1 UNK         0.0600 
    179 H179        2.5899  -11.4885  -44.2401 H         1 UNK         0.3000 
    180 H180        3.8917  -11.7414  -41.2441 H         1 UNK         0.0600 
    181 H181        5.1917  -13.9082  -41.5659 H         1 UNK         0.0600 
    182 H182        3.7918  -14.5657  -42.4106 H         1 UNK         0.0600 
    183 H183        3.6684  -14.0819  -40.7250 H         1 UNK         0.0600 
    184 H184        4.7706  -12.6771  -43.9129 H         1 UNK         0.3000 
    185 H185        5.6487   -9.4454  -44.9930 H         1 UNK         0.0600 
    186 H186        7.8988  -10.4174  -45.3577 H         1 UNK         0.0600 
    187 H187        7.6767  -10.0435  -43.6565 H         1 UNK         0.0600 
    188 H188        7.5601  -11.7108  -44.2065 H         1 UNK         0.0600 
    189 H189        6.0994  -11.9332  -46.2303 H         1 UNK         0.3000 
    190 H190       -2.2735  -21.4077  -46.9087 H         1 UNK         0.3000 
    191 H191       -4.3996  -22.9409  -47.9874 H         1 UNK         0.0600 
    192 H192       -4.6768  -20.8429  -46.6313 H         1 UNK         0.0600 
    193 H193       -4.1880  -21.7338  -45.1875 H         1 UNK         0.0600 
    194 H194       -5.6654  -22.1676  -46.0326 H         1 UNK         0.0600 
    195 H195       -2.0641  -23.7071  -45.4281 H         1 UNK         0.3000 
    196 H196       -3.3144  -26.2027  -44.6462 H         1 UNK         0.0600 
    197 H197       -1.8312  -24.9577  -43.1048 H         1 UNK         0.0600 
    198 H198       -0.4761  -25.1274  -44.2173 H         1 UNK         0.0600 
    199 H199       -1.1594  -26.5480  -43.4342 H         1 UNK         0.0600 
    200 H200       -0.6356  -25.2753  -46.8592 H         1 UNK         0.3000 
    201 H201        0.1457  -27.9296  -47.5069 H         1 UNK         0.0600 
    202 H202        1.6705  -26.0067  -47.7238 H         1 UNK         0.0600 
    203 H203        0.6526  -25.2897  -48.9712 H         1 UNK         0.0600 
    204 H204        1.4980  -26.8014  -49.2808 H         1 UNK         0.0600 
    205 H205       -1.8984  -25.5729  -49.3393 H         1 UNK         0.3000 
    206 H206       -2.4258  -27.5754  -51.4505 H         1 UNK         0.0600 
    207 H207       -3.2569  -24.6390  -51.1719 H         1 UNK         0.0600 
    208 H208       -1.8835  -25.2361  -52.0967 H         1 UNK         0.0600 
    209 H209       -3.5192  -25.6588  -52.5806 H         1 UNK         0.0600 
    210 H210       -4.1572  -28.8799  -51.3245 H         1 UNK         0.3000 
    211 H211       -6.1198  -28.8288  -49.2954 H         1 UNK         0.0600 
    212 H212       -6.1146  -30.2521  -52.0128 H         1 UNK         0.0600 
    213 H213       -7.1676  -30.6456  -50.6593 H         1 UNK         0.0600 
    214 H214       -5.4341  -30.8814  -50.5114 H         1 UNK         0.0600 
    215 H215       -6.0126  -27.1111  -52.2975 H         1 UNK         0.3000 
    216 H216       -8.8393  -26.4703  -52.5020 H         1 UNK         0.0600 
    217 H217       -8.0749  -25.0135  -54.3313 H         1 UNK         0.0600 
    218 H218       -7.2914  -26.5735  -54.4788 H         1 UNK         0.0600 
    219 H219       -6.3922  -25.1963  -53.8405 H         1 UNK         0.0600 
    220 H220       -6.5286  -25.5039  -50.2642 H         1 UNK         0.3000 
    221 H221       -6.3897  -23.9951  -48.6922 H         1 UNK         0.0600 
    222 H222       -9.2439  -23.1334  -49.3830 H         1 UNK         0.0600 
    223 H223       -8.8016  -24.4565  -48.3047 H         1 UNK         0.0600 
    224 H224       -8.3815  -22.8028  -47.8886 H         1 UNK         0.0600 
    225 H225       -4.9455  -23.3475  -50.6795 H         1 UNK         0.3000 
    226 H226       -3.6856  -21.7958  -51.6168 H         1 UNK         0.0600 
    227 H227       -3.7151  -20.7931  -49.2914 H         1 UNK         0.0600 
    228 H228       -3.4259  -19.6143  -50.5529 H         1 UNK         0.0600 
    229 H229       -5.0085  -19.7184  -49.7981 H         1 UNK         0.0600 
    230 H230       -6.1619  -22.4181  -52.9498 H         1 UNK         0.3000 
    231 H231       -7.3821  -20.2047  -54.2045 H         1 UNK         0.0600 
    232 H232       -8.0476  -21.8803  -55.9294 H         1 UNK         0.0600 
    233 H233       -8.2903  -22.5097  -54.3078 H         1 UNK         0.0600 
    234 H234       -6.9044  -23.0399  -55.2659 H         1 UNK         0.0600 
    235 H235       -6.4930  -18.6887  -55.4282 H         1 UNK         0.3000 
    236 H236       -5.1223  -17.4479  -56.6328 H         1 UNK         0.0600 
    237 H237       -4.4723  -19.9810  -58.2316 H         1 UNK         0.0600 
    238 H238       -5.8773  -18.9496  -58.4980 H         1 UNK         0.0600 
    239 H239       -4.2618  -18.3209  -58.7706 H         1 UNK         0.0600 
    240 H240       -4.0626  -18.8325  -54.2242 H         1 UNK         0.3000 
    241 H241       -2.2812  -19.1216  -53.0152 H         1 UNK         0.0600 
    242 H242       -2.8520  -21.1265  -55.2977 H         1 UNK         0.3800 
    243 H243       -1.3805  -22.0651  -55.2749 H         1 UNK         0.3800 
    244 H244       -0.6245  -17.4896  -54.9892 H         1 UNK         0.0800 
    245 H245       -0.1780  -17.8557  -53.3521 H         1 UNK         0.0800 
    246 H246       -2.9750  -15.7460  -51.3494 H         1 UNK         0.0800 
    247 H247       -2.8238  -17.4508  -51.6226 H         1 UNK         0.0800 
@<TRIPOS>BOND
     1    1    2 1    
     2    1  127 1    
     3    1  128 1    
     4    1  129 1    
     5    2    3 2    
     6    2    4 am   BACKBONE|DICT|INTERRES
     7    4    5 1    
     8    4  130 1    
     9    5    6 1    
    10    5   65 1    
    11    5  131 1    
    12    6    7 1    
    13    6  132 1    
    14    6  133 1    
    15    7    8 1    
    16    8    9 1    
    17    8  134 1    
    18    8  135 1    
    19    9   10 ar   
    20    9   14 ar   
    21   10   11 ar   
    22   10  136 1    
    23   11   12 ar   
    24   11  126 1    
    25   12   13 ar   
    26   12  137 1    
    27   13   14 ar   
    28   13   15 1    
    29   14  138 1    
    30   15   16 1    
    31   15  139 1    
    32   15  140 1    
    33   16   17 1    
    34   17   18 1    
    35   17  141 1    
    36   17  142 1    
    37   18   19 1    
    38   18   67 1    
    39   18  143 1    
    40   19   20 am   BACKBONE|DICT|INTERRES
    41   19  144 1    
    42   20   21 2    
    43   20   22 1    
    44   22   23 1    
    45   22   24 1    
    46   22  145 1    
    47   23  146 1    
    48   23  147 1    
    49   23  148 1    
    50   24   25 am   BACKBONE|DICT|INTERRES
    51   24  149 1    
    52   25   26 2    
    53   25   27 1    
    54   27   28 1    
    55   27   29 1    
    56   27  150 1    
    57   28  151 1    
    58   28  152 1    
    59   28  153 1    
    60   29   30 am   BACKBONE|DICT|INTERRES
    61   29  154 1    
    62   30   31 2    
    63   30   32 1    
    64   32   33 1    
    65   32   34 1    
    66   32  155 1    
    67   33  156 1    
    68   33  157 1    
    69   33  158 1    
    70   34   35 am   BACKBONE|DICT|INTERRES
    71   34  159 1    
    72   35   36 2    
    73   35   37 1    
    74   37   38 1    
    75   37   39 1    
    76   37  160 1    
    77   38  161 1    
    78   38  162 1    
    79   38  163 1    
    80   39   40 am   BACKBONE|DICT|INTERRES
    81   39  164 1    
    82   40   41 2    
    83   40   42 1    
    84   42   43 1    
    85   42   44 1    
    86   42  165 1    
    87   43  166 1    
    88   43  167 1    
    89   43  168 1    
    90   44   45 am   BACKBONE|DICT|INTERRES
    91   44  169 1    
    92   45   46 2    
    93   45   47 1    
    94   47   48 1    
    95   47   49 1    
    96   47  170 1    
    97   48  171 1    
    98   48  172 1    
    99   48  173 1    
   100   49   50 am   BACKBONE|DICT|INTERRES
   101   49  174 1    
   102   50   51 2    
   103   50   52 1    
   104   52   53 1    
   105   52   54 1    
   106   52  175 1    
   107   53  176 1    
   108   53  177 1    
   109   53  178 1    
   110   54   55 am   BACKBONE|DICT|INTERRES
   111   54  179 1    
   112   55   56 2    
   113   55   57 1    
   114   57   58 1    
   115   57   59 1    
   116   57  180 1    
   117   58  181 1    
   118   58  182 1    
   119   58  183 1    
   120   59   60 am   BACKBONE|DICT|INTERRES
   121   59  184 1    
   122   60   61 2    
   123   60   62 1    
   124   62   63 1    
   125   62   64 1    
   126   62  185 1    
   127   63  186 1    
   128   63  187 1    
   129   63  188 1    
   130   64   65 am   BACKBONE|DICT|INTERRES
   131   64  189 1    
   132   65   66 2    
   133   67   68 2    
   134   67   69 am   BACKBONE|DICT|INTERRES
   135   69   70 1    
   136   69  190 1    
   137   70   71 1    
   138   70   72 1    
   139   70  191 1    
   140   71  192 1    
   141   71  193 1    
   142   71  194 1    
   143   72   73 2    
   144   72   74 am   BACKBONE|DICT|INTERRES
   145   74   75 1    
   146   74  195 1    
   147   75   76 1    
   148   75   77 1    
   149   75  196 1    
   150   76  197 1    
   151   76  198 1    
   152   76  199 1    
   153   77   78 2    
   154   77   79 am   BACKBONE|DICT|INTERRES
   155   79   80 1    
   156   79  200 1    
   157   80   81 1    
   158   80   82 1    
   159   80  201 1    
   160   81  202 1    
   161   81  203 1    
   162   81  204 1    
   163   82   83 2    
   164   82   84 am   BACKBONE|DICT|INTERRES
   165   84   85 1    
   166   84  205 1    
   167   85   86 1    
   168   85   87 1    
   169   85  206 1    
   170   86  207 1    
   171   86  208 1    
   172   86  209 1    
   173   87   88 2    
   174   87   89 am   BACKBONE|DICT|INTERRES
   175   89   90 1    
   176   89  210 1    
   177   90   91 1    
   178   90   92 1    
   179   90  211 1    
   180   91  212 1    
   181   91  213 1    
   182   91  214 1    
   183   92   93 2    
   184   92   94 am   BACKBONE|DICT|INTERRES
   185   94   95 1    
   186   94  215 1    
   187   95   96 1    
   188   95   97 1    
   189   95  216 1    
   190   96  217 1    
   191   96  218 1    
   192   96  219 1    
   193   97   98 2    
   194   97   99 am   BACKBONE|DICT|INTERRES
   195   99  100 1    
   196   99  220 1    
   197  100  101 1    
   198  100  102 1    
   199  100  221 1    
   200  101  222 1    
   201  101  223 1    
   202  101  224 1    
   203  102  103 2    
   204  102  104 am   BACKBONE|DICT|INTERRES
   205  104  105 1    
   206  104  225 1    
   207  105  106 1    
   208  105  107 1    
   209  105  226 1    
   210  106  227 1    
   211  106  228 1    
   212  106  229 1    
   213  107  108 2    
   214  107  109 am   BACKBONE|DICT|INTERRES
   215  109  110 1    
   216  109  230 1    
   217  110  111 1    
   218  110  112 1    
   219  110  231 1    
   220  111  232 1    
   221  111  233 1    
   222  111  234 1    
   223  112  113 2    
   224  112  114 am   BACKBONE|DICT|INTERRES
   225  114  115 1    
   226  114  235 1    
   227  115  116 1    
   228  115  117 1    
   229  115  236 1    
   230  116  237 1    
   231  116  238 1    
   232  116  239 1    
   233  117  118 2    
   234  117  119 am   BACKBONE|DICT|INTERRES
   235  119  120 1    
   236  119  240 1    
   237  120  121 1    
   238  120  124 1    
   239  120  241 1    
   240  121  122 am   BACKBONE|DICT|INTERRES
   241  121  123 2    
   242  122  242 1    
   243  122  243 1    
   244  124  125 1    
   245  124  244 1    
   246  124  245 1    
   247  125  126 1    
   248  126  246 1    
   249  126  247 1    
@<TRIPOS>SUBSTRUCTURE
     1 UNK         1 GROUP             0       ****    0 ROOT    
