@<TRIPOS>MOLECULE
3R540
247   249    1
SMALL
USER_CHARGES


@<TRIPOS>ATOM
      1 CA          8.2789  -13.0810  -45.6092 C.3       0 UNK        -0.1800 
      2 C           6.9088  -13.7117  -45.8116 C.2       0 UNK         0.5000 
      3 O           5.9688  -13.3724  -45.0909 O.2       0 UNK        -0.5000 
      4 N           6.7946  -14.6277  -46.7857 N.am      1 UNK        -0.5000 
      5 CA          5.5804  -15.3730  -47.1387 C.3       1 UNK         0.1400 
      6 C6          4.5034  -14.4479  -47.7804 C.3       23 UNK        -0.0398 
      7 S7          3.1323  -15.3643  -48.5574 S.3       23 UNK        -0.2404 
      8 C8          3.7546  -15.5935  -50.2535 C.3       23 UNK        -0.0205 
      9 C9          3.0501  -16.7614  -50.9250 C.ar      23 UNK        -0.0193 
     10 C10         2.1292  -16.5588  -51.9568 C.ar      23 UNK        -0.1150 
     11 C11         1.4618  -17.6444  -52.5372 C.ar      23 UNK        -0.0193 
     12 C12         1.7151  -18.9366  -52.0637 C.ar      23 UNK        -0.1150 
     13 C13         2.6227  -19.1507  -51.0222 C.ar      23 UNK        -0.0193 
     14 C14         3.3106  -18.0592  -50.4843 C.ar      23 UNK        -0.1150 
     15 C15         2.8214  -20.5567  -50.4618 C.3       23 UNK        -0.0205 
     16 S16         2.9688  -20.6067  -48.6390 S.3       23 UNK        -0.2404 
     17 C17         1.4534  -19.7310  -48.1109 C.3       23 UNK        -0.0398 
     18 CA          0.4322  -20.6549  -47.4159 C.3       11 UNK         0.1400 
     19 N          -0.5608  -19.8817  -46.6720 N.am      11 UNK        -0.5000 
     20 C          -1.4754  -20.4017  -45.8446 C.2       10 UNK         0.5000 
     21 O          -1.5732  -21.6014  -45.5948 O.2       10 UNK        -0.5000 
     22 CA         -2.4763  -19.4168  -45.2255 C.3       10 UNK         0.1400 
     23 CB         -1.8562  -18.6995  -44.0167 C.3       10 UNK        -0.1800 
     24 N          -2.9505  -18.4407  -46.2066 N.am      10 UNK        -0.5000 
     25 C          -3.7646  -18.7402  -47.2287 C.2       9 UNK         0.5000 
     26 O          -4.2446  -19.8568  -47.4281 O.2       9 UNK        -0.5000 
     27 CA         -4.0622  -17.6108  -48.2265 C.3       9 UNK         0.1400 
     28 CB         -5.2184  -16.7285  -47.7367 C.3       9 UNK        -0.1800 
     29 N          -2.8936  -16.7851  -48.5224 N.am      9 UNK        -0.5000 
     30 C          -1.8293  -17.2203  -49.2134 C.2       8 UNK         0.5000 
     31 O          -1.7242  -18.3638  -49.6532 O.2       8 UNK        -0.5000 
     32 CA         -0.6643  -16.2304  -49.3927 C.3       8 UNK         0.1400 
     33 CB         -0.9152  -15.3076  -50.5940 C.3       8 UNK        -0.1800 
     34 N          -0.4183  -15.3992  -48.2159 N.am      8 UNK        -0.5000 
     35 C          -0.1806  -15.8475  -46.9778 C.2       7 UNK         0.5000 
     36 O          -0.1707  -17.0407  -46.6712 O.2       7 UNK        -0.5000 
     37 CA          0.0712  -14.7926  -45.8855 C.3       7 UNK         0.1400 
     38 CB          0.1599  -13.3381  -46.3988 C.3       7 UNK        -0.1800 
     39 N          -0.8982  -14.8919  -44.7912 N.am      7 UNK        -0.5000 
     40 C          -2.2342  -14.8055  -44.8902 C.2       6 UNK         0.5000 
     41 O          -2.8230  -14.6749  -45.9652 O.2       6 UNK        -0.5000 
     42 CA         -3.0617  -14.8892  -43.5868 C.3       6 UNK         0.1400 
     43 CB         -4.3872  -15.6437  -43.8000 C.3       6 UNK        -0.1800 
     44 N          -2.3416  -15.5009  -42.4646 N.am      6 UNK        -0.5000 
     45 C          -1.5092  -14.8605  -41.6340 C.2       5 UNK         0.5000 
     46 O          -1.2437  -13.6620  -41.7446 O.2       5 UNK        -0.5000 
     47 CA         -0.8667  -15.6890  -40.5017 C.3       5 UNK         0.1400 
     48 CB         -0.7775  -17.1960  -40.8179 C.3       5 UNK        -0.1800 
     49 N           0.4817  -15.1887  -40.2620 N.am      5 UNK        -0.5000 
     50 C           0.9393  -14.6394  -39.1304 C.2       4 UNK         0.5000 
     51 O           0.2811  -14.5594  -38.0921 O.2       4 UNK        -0.5000 
     52 CA          2.3815  -14.0848  -39.1553 C.3       4 UNK         0.1400 
     53 CB          3.3479  -15.0724  -38.4831 C.3       4 UNK        -0.1800 
     54 N           2.8643  -13.8015  -40.5093 N.am      4 UNK        -0.5000 
     55 C           2.4290  -12.7953  -41.2801 C.2       3 UNK         0.5000 
     56 O           1.6918  -11.8984  -40.8697 O.2       3 UNK        -0.5000 
     57 CA          2.8684  -12.7915  -42.7604 C.3       3 UNK         0.1400 
     58 CB          3.8913  -11.6741  -43.0166 C.3       3 UNK        -0.1800 
     59 N           3.4154  -14.0586  -43.2662 N.am      3 UNK        -0.5000 
     60 C           2.7611  -15.2291  -43.3278 C.2       2 UNK         0.5000 
     61 O           1.6215  -15.3934  -42.8906 O.2       2 UNK        -0.5000 
     62 CA          3.4812  -16.3739  -44.0575 C.3       2 UNK         0.1400 
     63 CB          2.5937  -17.6120  -44.2919 C.3       2 UNK        -0.1800 
     64 N           3.9765  -15.8565  -45.3283 N.am      2 UNK        -0.5000 
     65 C           5.1154  -16.2172  -45.9257 C.2       1 UNK         0.5000 
     66 O           5.8284  -17.1426  -45.5320 O.2       1 UNK        -0.5000 
     67 C          -0.2278  -21.6405  -48.4025 C.2       11 UNK         0.5000 
     68 O           0.1367  -22.8150  -48.4139 O.2       11 UNK        -0.5000 
     69 N          -1.2190  -21.1691  -49.1721 N.am      12 UNK        -0.5000 
     70 CA         -1.9922  -21.9869  -50.1077 C.3       12 UNK         0.1400 
     71 CB         -2.8830  -21.0726  -50.9560 C.3       12 UNK        -0.1800 
     72 C          -2.8252  -23.0834  -49.4141 C.2       12 UNK         0.5000 
     73 O          -2.9327  -24.1925  -49.9441 O.2       12 UNK        -0.5000 
     74 N          -3.3676  -22.7701  -48.2281 N.am      13 UNK        -0.5000 
     75 CA         -4.0697  -23.7236  -47.3712 C.3       13 UNK         0.1400 
     76 CB         -4.8283  -22.9754  -46.2652 C.3       13 UNK        -0.1800 
     77 C          -3.1172  -24.7778  -46.7773 C.2       13 UNK         0.5000 
     78 O          -3.4379  -25.9651  -46.8125 O.2       13 UNK        -0.5000 
     79 N          -1.9487  -24.3400  -46.2849 N.am      14 UNK        -0.5000 
     80 CA         -0.8870  -25.1970  -45.7463 C.3       14 UNK         0.1400 
     81 CB          0.1937  -24.3263  -45.0881 C.3       14 UNK        -0.1800 
     82 C          -0.2648  -26.1273  -46.8050 C.2       14 UNK         0.5000 
     83 O           0.0521  -27.2762  -46.4956 O.2       14 UNK        -0.5000 
     84 N          -0.1471  -25.6310  -48.0439 N.am      15 UNK        -0.5000 
     85 CA          0.2612  -26.3883  -49.2295 C.3       15 UNK         0.1400 
     86 CB          0.6273  -25.3980  -50.3470 C.3       15 UNK        -0.1800 
     87 C          -0.8086  -27.3851  -49.7253 C.2       15 UNK         0.5000 
     88 O          -0.5059  -28.2000  -50.5978 O.2       15 UNK        -0.5000 
     89 N          -2.0284  -27.3003  -49.1727 N.am      16 UNK        -0.5000 
     90 CA         -3.2095  -28.1128  -49.4700 C.3       16 UNK         0.1400 
     91 CB         -2.9709  -29.5937  -49.1070 C.3       16 UNK        -0.1800 
     92 C          -3.7407  -27.9128  -50.9032 C.2       16 UNK         0.5000 
     93 O          -4.3049  -28.8431  -51.4825 O.2       16 UNK        -0.5000 
     94 N          -3.5718  -26.6983  -51.4454 N.am      17 UNK        -0.5000 
     95 CA         -4.1531  -26.2876  -52.7212 C.3       17 UNK         0.1400 
     96 CB         -3.3474  -25.1133  -53.3047 C.3       17 UNK        -0.1800 
     97 C          -5.6343  -25.9312  -52.5154 C.2       17 UNK         0.5000 
     98 O          -6.5088  -26.6110  -53.0527 O.2       17 UNK        -0.5000 
     99 N          -5.8627  -24.9030  -51.6919 N.am      18 UNK        -0.5000 
    100 CA        -7.1319  -24.3483  -51.2254 C.3       18 UNK         0.1400 
    101 CB        -8.1240  -24.0773  -52.3780 C.3       18 UNK        -0.1800 
    102 C         -6.8015  -23.0291  -50.5153 C.2       18 UNK         0.5000 
    103 O         -5.7548  -22.4353  -50.7874 O.2       18 UNK        -0.5000 
    104 N         -7.7020  -22.5636  -49.6432 N.am      19 UNK        -0.5000 
    105 CA        -7.6050  -21.2461  -49.0163 C.3       19 UNK         0.1400 
    106 CB        -8.6883  -21.1082  -47.9357 C.3       19 UNK        -0.1800 
    107 C         -7.7204  -20.1377  -50.0800 C.2       19 UNK         0.5000 
    108 O         -8.7637  -20.0229  -50.7262 O.2       19 UNK        -0.5000 
    109 N         -6.6283  -19.3832  -50.2570 N.am      20 UNK        -0.5000 
    110 CA        -6.4454  -18.3200  -51.2514 C.3       20 UNK         0.1400 
    111 CB        -7.4329  -17.1569  -51.0182 C.3       20 UNK        -0.1800 
    112 C         -6.4305  -18.8278  -52.7090 C.2       20 UNK         0.5000 
    113 O         -6.8765  -18.1130  -53.6097 O.2       20 UNK        -0.5000 
    114 N         -5.8517  -20.0206  -52.9367 N.am      21 UNK        -0.5000 
    115 CA        -5.6325  -20.6039  -54.2719 C.3       21 UNK         0.1400 
    116 CB        -5.0232  -22.0078  -54.1399 C.3       21 UNK        -0.1800 
    117 C         -4.7473  -19.7450  -55.2022 C.2       21 UNK         0.5000 
    118 O         -4.8156  -19.9070  -56.4212 O.2       21 UNK        -0.5000 
    119 N         -3.9550  -18.8390  -54.6133 N.am      22 UNK        -0.5000 
    120 CA        -3.1844  -17.7902  -55.2987 C.3       22 UNK         0.1400 
    121 C         -4.0510  -16.7668  -56.0955 C.2       22 UNK         0.5000 
    122 N         -5.3438  -16.6254  -55.8198 N.am      22 UNK        -0.7600 
    123 O         -3.5364  -16.0860  -56.9783 O.2       22 UNK        -0.5000 
    124 C124       -2.2640  -17.0225  -54.3137 C.3       23 UNK        -0.0398 
    125 S125       -1.1786  -18.0974  -53.3109 S.3       23 UNK        -0.2404 
    126 C126        0.4741  -17.4161  -53.6762 C.3       23 UNK        -0.0205 
    127 H127        9.0127  -13.4676  -46.3167 H         1 UNK         0.0600 
    128 H128        8.6386  -13.2833  -44.6004 H         1 UNK         0.0600 
    129 H129        8.2164  -12.0007  -45.7396 H         1 UNK         0.0600 
    130 H130        7.6188  -14.8793  -47.3136 H         1 UNK         0.3000 
    131 H131        5.8878  -16.0916  -47.9001 H         1 UNK         0.0600 
    132 H132        4.0923  -13.7483  -47.0514 H         1 UNK         0.0800 
    133 H133        4.9668  -13.8231  -48.5453 H         1 UNK         0.0800 
    134 H134        3.6143  -14.6713  -50.8193 H         1 UNK         0.0800 
    135 H135        4.8274  -15.7905  -50.2347 H         1 UNK         0.0800 
    136 H136        1.9289  -15.5548  -52.3034 H         1 UNK         0.1150 
    137 H137        1.1851  -19.7740  -52.4958 H         1 UNK         0.1150 
    138 H138        4.0191  -18.2098  -49.6821 H         1 UNK         0.1150 
    139 H139        1.9925  -21.2032  -50.7550 H         1 UNK         0.0800 
    140 H140        3.7222  -20.9864  -50.9013 H         1 UNK         0.0800 
    141 H141        0.9861  -19.2042  -48.9436 H         1 UNK         0.0800 
    142 H142        1.7736  -18.9509  -47.4181 H         1 UNK         0.0800 
    143 H143        0.9719  -21.2508  -46.6766 H         1 UNK         0.0600 
    144 H144       -0.5291  -18.8710  -46.7850 H         1 UNK         0.3000 
    145 H145       -3.3328  -19.9953  -44.8723 H         1 UNK         0.0600 
    146 H146       -1.4061  -19.4145  -43.3266 H         1 UNK         0.0600 
    147 H147       -1.0770  -17.9960  -44.3114 H         1 UNK         0.0600 
    148 H148       -2.6144  -18.1560  -43.4575 H         1 UNK         0.0600 
    149 H149       -2.5411  -17.5180  -46.1720 H         1 UNK         0.3000 
    150 H150       -4.3669  -18.0861  -49.1566 H         1 UNK         0.0600 
    151 H151       -5.4789  -15.9734  -48.4784 H         1 UNK         0.0600 
    152 H152       -4.9676  -16.2136  -46.8093 H         1 UNK         0.0600 
    153 H153       -6.1130  -17.3244  -47.5511 H         1 UNK         0.0600 
    154 H154       -2.8782  -15.8510  -48.1339 H         1 UNK         0.3000 
    155 H155        0.2392  -16.8130  -49.5833 H         1 UNK         0.0600 
    156 H156       -1.1023  -15.8825  -51.4989 H         1 UNK         0.0600 
    157 H157       -0.0514  -14.6720  -50.7888 H         1 UNK         0.0600 
    158 H158       -1.7795  -14.6620  -50.4337 H         1 UNK         0.0600 
    159 H159       -0.4218  -14.4015  -48.3665 H         1 UNK         0.3000 
    160 H160        1.0439  -15.0432  -45.4734 H         1 UNK         0.0600 
    161 H161        0.9378  -13.2316  -47.1562 H         1 UNK         0.0600 
    162 H162        0.4149  -12.6580  -45.5859 H         1 UNK         0.0600 
    163 H163       -0.7807  -12.9940  -46.8303 H         1 UNK         0.0600 
    164 H164       -0.4960  -15.0299  -43.8731 H         1 UNK         0.3000 
    165 H165       -3.3150  -13.8619  -43.3171 H         1 UNK         0.0600 
    166 H166       -4.9528  -15.7210  -42.8713 H         1 UNK         0.0600 
    167 H167       -5.0223  -15.1213  -44.5163 H         1 UNK         0.0600 
    168 H168       -4.2285  -16.6514  -44.1826 H         1 UNK         0.0600 
    169 H169       -2.4983  -16.4866  -42.3173 H         1 UNK         0.3000 
    170 H170       -1.4898  -15.5556  -39.6155 H         1 UNK         0.0600 
    171 H171       -0.2545  -17.7289  -40.0235 H         1 UNK         0.0600 
    172 H172       -1.7655  -17.6492  -40.9027 H         1 UNK         0.0600 
    173 H173       -0.2374  -17.3814  -41.7477 H         1 UNK         0.0600 
    174 H174        1.0691  -15.1580  -41.0907 H         1 UNK         0.3000 
    175 H175        2.3881  -13.1547  -38.5832 H         1 UNK         0.0600 
    176 H176        3.3886  -16.0223  -39.0177 H         1 UNK         0.0600 
    177 H177        4.3590  -14.6671  -38.4384 H         1 UNK         0.0600 
    178 H178        3.0390  -15.2853  -37.4588 H         1 UNK         0.0600 
    179 H179        3.4833  -14.4825  -40.9227 H         1 UNK         0.3000 
    180 H180        1.9742  -12.5709  -43.3470 H         1 UNK         0.0600 
    181 H181        4.0994  -11.5676  -44.0813 H         1 UNK         0.0600 
    182 H182        4.8358  -11.8714  -42.5082 H         1 UNK         0.0600 
    183 H183        3.5215  -10.7105  -42.6635 H         1 UNK         0.0600 
    184 H184        4.3405  -14.0008  -43.6779 H         1 UNK         0.3000 
    185 H185        4.3228  -16.6651  -43.4257 H         1 UNK         0.0600 
    186 H186        1.7215  -17.3750  -44.8987 H         1 UNK         0.0600 
    187 H187        3.1455  -18.4037  -44.7988 H         1 UNK         0.0600 
    188 H188        2.2336  -18.0203  -43.3469 H         1 UNK         0.0600 
    189 H189        3.4688  -15.0693  -45.7048 H         1 UNK         0.3000 
    190 H190       -1.4448  -20.1776  -49.1482 H         1 UNK         0.3000 
    191 H191       -1.2870  -22.4846  -50.7761 H         1 UNK         0.0600 
    192 H192       -3.5973  -20.5232  -50.3421 H         1 UNK         0.0600 
    193 H193       -3.4463  -21.6573  -51.6791 H         1 UNK         0.0600 
    194 H194       -2.2899  -20.3492  -51.5149 H         1 UNK         0.0600 
    195 H195       -3.2700  -21.8256  -47.8772 H         1 UNK         0.3000 
    196 H196       -4.8056  -24.2477  -47.9851 H         1 UNK         0.0600 
    197 H197       -5.3693  -23.6719  -45.6236 H         1 UNK         0.0600 
    198 H198       -5.5605  -22.2869  -46.6857 H         1 UNK         0.0600 
    199 H199       -4.1560  -22.3985  -45.6304 H         1 UNK         0.0600 
    200 H200       -1.7789  -23.3374  -46.2464 H         1 UNK         0.3000 
    201 H201       -1.3311  -25.8280  -44.9738 H         1 UNK         0.0600 
    202 H202       -0.2231  -23.7247  -44.2802 H         1 UNK         0.0600 
    203 H203        0.6559  -23.6480  -45.8058 H         1 UNK         0.0600 
    204 H204        0.9856  -24.9421  -44.6600 H         1 UNK         0.0600 
    205 H205       -0.3406  -24.6428  -48.1877 H         1 UNK         0.3000 
    206 H206        1.1528  -26.9653  -48.9769 H         1 UNK         0.0600 
    207 H207        1.4234  -24.7231  -50.0318 H         1 UNK         0.0600 
    208 H208        0.9795  -25.9208  -51.2370 H         1 UNK         0.0600 
    209 H209       -0.2300  -24.7914  -50.6404 H         1 UNK         0.0600 
    210 H210       -2.1731  -26.5909  -48.4650 H         1 UNK         0.3000 
    211 H211       -3.9975  -27.7435  -48.8127 H         1 UNK         0.0600 
    212 H212       -2.2499  -30.0655  -49.7750 H         1 UNK         0.0600 
    213 H213       -3.8970  -30.1660  -49.1712 H         1 UNK         0.0600 
    214 H214       -2.5999  -29.6937  -48.0869 H         1 UNK         0.0600 
    215 H215       -3.1411  -25.9685  -50.8856 H         1 UNK         0.3000 
    216 H216       -4.0953  -27.1165  -53.4300 H         1 UNK         0.0600 
    217 H217       -3.7676  -24.7911  -54.2580 H         1 UNK         0.0600 
    218 H218       -2.3127  -25.4033  -53.4877 H         1 UNK         0.0600 
    219 H219       -3.3347  -24.2483  -52.6413 H         1 UNK         0.0600 
    220 H220       -5.0639  -24.4002  -51.3205 H         1 UNK         0.3000 
    221 H221       -7.5725  -25.0398  -50.5056 H         1 UNK         0.0600 
    222 H222       -7.6731  -23.4890  -53.1764 H         1 UNK         0.0600 
    223 H223       -8.4989  -25.0024  -52.8140 H         1 UNK         0.0600 
    224 H224       -8.9970  -23.5269  -52.0249 H         1 UNK         0.0600 
    225 H225       -8.5576  -23.0766  -49.4892 H         1 UNK         0.3000 
    226 H226       -6.6309  -21.1708  -48.5280 H         1 UNK         0.0600 
    227 H227       -8.5686  -21.8646  -47.1599 H         1 UNK         0.0600 
    228 H228       -8.6303  -20.1331  -47.4504 H         1 UNK         0.0600 
    229 H229       -9.6911  -21.2091  -48.3526 H         1 UNK         0.0600 
    230 H230       -5.8168  -19.6100  -49.6996 H         1 UNK         0.3000 
    231 H231       -5.4454  -17.9185  -51.0919 H         1 UNK         0.0600 
    232 H232       -8.4579  -17.4375  -51.2614 H         1 UNK         0.0600 
    233 H233       -7.4138  -16.8230  -49.9811 H         1 UNK         0.0600 
    234 H234       -7.1767  -16.2973  -51.6387 H         1 UNK         0.0600 
    235 H235       -5.5570  -20.5808  -52.1464 H         1 UNK         0.3000 
    236 H236       -6.6117  -20.7000  -54.7450 H         1 UNK         0.0600 
    237 H237       -3.9797  -21.9682  -53.8295 H         1 UNK         0.0600 
    238 H238       -5.5659  -22.6202  -53.4246 H         1 UNK         0.0600 
    239 H239       -5.0510  -22.5302  -55.0968 H         1 UNK         0.0600 
    240 H240       -3.9340  -18.8103  -53.6059 H         1 UNK         0.3000 
    241 H241       -2.5477  -18.2923  -56.0293 H         1 UNK         0.0600 
    242 H242       -5.8898  -15.9611  -56.3452 H         1 UNK         0.3800 
    243 H243       -5.7916  -17.1771  -55.0964 H         1 UNK         0.3800 
    244 H244       -1.6537  -16.3054  -54.8648 H         1 UNK         0.0800 
    245 H245       -2.8649  -16.4311  -53.6203 H         1 UNK         0.0800 
    246 H246        0.3916  -16.3476  -53.8790 H         1 UNK         0.0800 
    247 H247        0.8589  -17.8765  -54.5870 H         1 UNK         0.0800 
@<TRIPOS>BOND
     1    1    2 1    
     2    1  127 1    
     3    1  128 1    
     4    1  129 1    
     5    2    3 2    
     6    2    4 am   BACKBONE|DICT|INTERRES
     7    4    5 1    
     8    4  130 1    
     9    5    6 1    
    10    5   65 1    
    11    5  131 1    
    12    6    7 1    
    13    6  132 1    
    14    6  133 1    
    15    7    8 1    
    16    8    9 1    
    17    8  134 1    
    18    8  135 1    
    19    9   10 ar   
    20    9   14 ar   
    21   10   11 ar   
    22   10  136 1    
    23   11   12 ar   
    24   11  126 1    
    25   12   13 ar   
    26   12  137 1    
    27   13   14 ar   
    28   13   15 1    
    29   14  138 1    
    30   15   16 1    
    31   15  139 1    
    32   15  140 1    
    33   16   17 1    
    34   17   18 1    
    35   17  141 1    
    36   17  142 1    
    37   18   19 1    
    38   18   67 1    
    39   18  143 1    
    40   19   20 am   BACKBONE|DICT|INTERRES
    41   19  144 1    
    42   20   21 2    
    43   20   22 1    
    44   22   23 1    
    45   22   24 1    
    46   22  145 1    
    47   23  146 1    
    48   23  147 1    
    49   23  148 1    
    50   24   25 am   BACKBONE|DICT|INTERRES
    51   24  149 1    
    52   25   26 2    
    53   25   27 1    
    54   27   28 1    
    55   27   29 1    
    56   27  150 1    
    57   28  151 1    
    58   28  152 1    
    59   28  153 1    
    60   29   30 am   BACKBONE|DICT|INTERRES
    61   29  154 1    
    62   30   31 2    
    63   30   32 1    
    64   32   33 1    
    65   32   34 1    
    66   32  155 1    
    67   33  156 1    
    68   33  157 1    
    69   33  158 1    
    70   34   35 am   BACKBONE|DICT|INTERRES
    71   34  159 1    
    72   35   36 2    
    73   35   37 1    
    74   37   38 1    
    75   37   39 1    
    76   37  160 1    
    77   38  161 1    
    78   38  162 1    
    79   38  163 1    
    80   39   40 am   BACKBONE|DICT|INTERRES
    81   39  164 1    
    82   40   41 2    
    83   40   42 1    
    84   42   43 1    
    85   42   44 1    
    86   42  165 1    
    87   43  166 1    
    88   43  167 1    
    89   43  168 1    
    90   44   45 am   BACKBONE|DICT|INTERRES
    91   44  169 1    
    92   45   46 2    
    93   45   47 1    
    94   47   48 1    
    95   47   49 1    
    96   47  170 1    
    97   48  171 1    
    98   48  172 1    
    99   48  173 1    
   100   49   50 am   BACKBONE|DICT|INTERRES
   101   49  174 1    
   102   50   51 2    
   103   50   52 1    
   104   52   53 1    
   105   52   54 1    
   106   52  175 1    
   107   53  176 1    
   108   53  177 1    
   109   53  178 1    
   110   54   55 am   BACKBONE|DICT|INTERRES
   111   54  179 1    
   112   55   56 2    
   113   55   57 1    
   114   57   58 1    
   115   57   59 1    
   116   57  180 1    
   117   58  181 1    
   118   58  182 1    
   119   58  183 1    
   120   59   60 am   BACKBONE|DICT|INTERRES
   121   59  184 1    
   122   60   61 2    
   123   60   62 1    
   124   62   63 1    
   125   62   64 1    
   126   62  185 1    
   127   63  186 1    
   128   63  187 1    
   129   63  188 1    
   130   64   65 am   BACKBONE|DICT|INTERRES
   131   64  189 1    
   132   65   66 2    
   133   67   68 2    
   134   67   69 am   BACKBONE|DICT|INTERRES
   135   69   70 1    
   136   69  190 1    
   137   70   71 1    
   138   70   72 1    
   139   70  191 1    
   140   71  192 1    
   141   71  193 1    
   142   71  194 1    
   143   72   73 2    
   144   72   74 am   BACKBONE|DICT|INTERRES
   145   74   75 1    
   146   74  195 1    
   147   75   76 1    
   148   75   77 1    
   149   75  196 1    
   150   76  197 1    
   151   76  198 1    
   152   76  199 1    
   153   77   78 2    
   154   77   79 am   BACKBONE|DICT|INTERRES
   155   79   80 1    
   156   79  200 1    
   157   80   81 1    
   158   80   82 1    
   159   80  201 1    
   160   81  202 1    
   161   81  203 1    
   162   81  204 1    
   163   82   83 2    
   164   82   84 am   BACKBONE|DICT|INTERRES
   165   84   85 1    
   166   84  205 1    
   167   85   86 1    
   168   85   87 1    
   169   85  206 1    
   170   86  207 1    
   171   86  208 1    
   172   86  209 1    
   173   87   88 2    
   174   87   89 am   BACKBONE|DICT|INTERRES
   175   89   90 1    
   176   89  210 1    
   177   90   91 1    
   178   90   92 1    
   179   90  211 1    
   180   91  212 1    
   181   91  213 1    
   182   91  214 1    
   183   92   93 2    
   184   92   94 am   BACKBONE|DICT|INTERRES
   185   94   95 1    
   186   94  215 1    
   187   95   96 1    
   188   95   97 1    
   189   95  216 1    
   190   96  217 1    
   191   96  218 1    
   192   96  219 1    
   193   97   98 2    
   194   97   99 am   BACKBONE|DICT|INTERRES
   195   99  100 1    
   196   99  220 1    
   197  100  101 1    
   198  100  102 1    
   199  100  221 1    
   200  101  222 1    
   201  101  223 1    
   202  101  224 1    
   203  102  103 2    
   204  102  104 am   BACKBONE|DICT|INTERRES
   205  104  105 1    
   206  104  225 1    
   207  105  106 1    
   208  105  107 1    
   209  105  226 1    
   210  106  227 1    
   211  106  228 1    
   212  106  229 1    
   213  107  108 2    
   214  107  109 am   BACKBONE|DICT|INTERRES
   215  109  110 1    
   216  109  230 1    
   217  110  111 1    
   218  110  112 1    
   219  110  231 1    
   220  111  232 1    
   221  111  233 1    
   222  111  234 1    
   223  112  113 2    
   224  112  114 am   BACKBONE|DICT|INTERRES
   225  114  115 1    
   226  114  235 1    
   227  115  116 1    
   228  115  117 1    
   229  115  236 1    
   230  116  237 1    
   231  116  238 1    
   232  116  239 1    
   233  117  118 2    
   234  117  119 am   BACKBONE|DICT|INTERRES
   235  119  120 1    
   236  119  240 1    
   237  120  121 1    
   238  120  124 1    
   239  120  241 1    
   240  121  122 am   BACKBONE|DICT|INTERRES
   241  121  123 2    
   242  122  242 1    
   243  122  243 1    
   244  124  125 1    
   245  124  244 1    
   246  124  245 1    
   247  125  126 1    
   248  126  246 1    
   249  126  247 1    
@<TRIPOS>SUBSTRUCTURE
     1 UNK         1 GROUP             0       ****    0 ROOT    
