@<TRIPOS>MOLECULE
3R540
247   249    1
SMALL
USER_CHARGES


@<TRIPOS>ATOM
      1 CA         -2.8444  -15.3593  -46.4915 C.3       0 UNK        -0.1800 
      2 C          -1.4292  -14.8249  -46.6502 C.2       0 UNK         0.5000 
      3 O          -0.5522  -15.1656  -45.8578 O.2       0 UNK        -0.5000 
      4 N          -1.2124  -13.9921  -47.6791 N.am      1 UNK        -0.5000 
      5 CA          0.0437  -13.2910  -47.9860 C.3       1 UNK         0.1400 
      6 C6          1.2077  -14.2404  -48.3962 C.3       23 UNK        -0.0398 
      7 S7          0.8430  -15.2706  -49.8583 S.3       23 UNK        -0.2404 
      8 C8          0.1356  -16.7516  -49.0744 C.3       23 UNK        -0.0205 
      9 C9          0.4913  -18.0184  -49.8291 C.ar      23 UNK        -0.0193 
     10 C10        -0.3681  -18.5274  -50.8054 C.ar      23 UNK        -0.1150 
     11 C11        -0.0600  -19.7166  -51.4729 C.ar      23 UNK        -0.0193 
     12 C12         1.1286  -20.3871  -51.1647 C.ar      23 UNK        -0.1150 
     13 C13         1.9938  -19.8883  -50.1860 C.ar      23 UNK        -0.0193 
     14 C14         1.6697  -18.7021  -49.5232 C.ar      23 UNK        -0.1150 
     15 C15         3.2839  -20.6228  -49.8516 C.3       23 UNK        -0.0205 
     16 S16         2.9999  -22.1276  -48.8649 S.3       23 UNK        -0.2404 
     17 C17         2.4243  -21.4545  -47.2665 C.3       23 UNK        -0.0398 
     18 CA          1.1429  -22.1570  -46.7577 C.3       11 UNK         0.1400 
     19 N           0.9442  -21.9750  -45.3173 N.am      11 UNK        -0.5000 
     20 C           0.0280  -22.6335  -44.5917 C.2       10 UNK         0.5000 
     21 O          -0.7170  -23.4978  -45.0522 O.2       10 UNK        -0.5000 
     22 CA         -0.1180  -22.2285  -43.1160 C.3       10 UNK         0.1400 
     23 CB          0.9931  -22.8613  -42.2655 C.3       10 UNK        -0.1800 
     24 N          -0.1253  -20.7769  -42.9343 N.am      10 UNK        -0.5000 
     25 C          -1.0714  -19.9570  -43.4153 C.2       9 UNK         0.5000 
     26 O          -2.0711  -20.3524  -44.0159 O.2       9 UNK        -0.5000 
     27 CA         -0.8439  -18.4430  -43.2337 C.3       9 UNK         0.1400 
     28 CB         -1.2644  -17.9846  -41.8298 C.3       9 UNK        -0.1800 
     29 N           0.5412  -18.0423  -43.4781 N.am      9 UNK        -0.5000 
     30 C           1.1715  -18.1659  -44.6552 C.2       8 UNK         0.5000 
     31 O           0.6555  -18.6255  -45.6734 O.2       8 UNK        -0.5000 
     32 CA          2.6573  -17.7774  -44.6741 C.3       8 UNK         0.1400 
     33 CB          2.8270  -16.2518  -44.7027 C.3       8 UNK        -0.1800 
     34 N           3.3731  -18.3384  -43.5279 N.am      8 UNK        -0.5000 
     35 C           3.5941  -19.6488  -43.3474 C.2       7 UNK         0.5000 
     36 O           3.2436  -20.5179  -44.1456 O.2       7 UNK        -0.5000 
     37 CA          4.2889  -20.0612  -42.0371 C.3       7 UNK         0.1400 
     38 CB          5.8131  -19.9214  -42.1652 C.3       7 UNK        -0.1800 
     39 N           3.8261  -19.2914  -40.8817 N.am      7 UNK        -0.5000 
     40 C           2.5801  -19.3356  -40.3887 C.2       6 UNK         0.5000 
     41 O           1.6881  -20.0459  -40.8477 O.2       6 UNK        -0.5000 
     42 CA          2.2645  -18.3958  -39.2120 C.3       6 UNK         0.1400 
     43 CB          2.5965  -19.0737  -37.8746 C.3       6 UNK        -0.1800 
     44 N           2.9644  -17.1119  -39.2945 N.am      6 UNK        -0.5000 
     45 C           2.7878  -16.2167  -40.2740 C.2       5 UNK         0.5000 
     46 O           2.0381  -16.3943  -41.2385 O.2       5 UNK        -0.5000 
     47 CA          3.6100  -14.9234  -40.1721 C.3       5 UNK         0.1400 
     48 CB          4.6551  -14.8512  -41.2967 C.3       5 UNK        -0.1800 
     49 N           2.7135  -13.7775  -40.2625 N.am      5 UNK        -0.5000 
     50 C           2.0360  -13.2639  -39.2253 C.2       4 UNK         0.5000 
     51 O           2.2118  -13.6139  -38.0572 O.2       4 UNK        -0.5000 
     52 CA          0.9686  -12.1931  -39.5367 C.3       4 UNK         0.1400 
     53 CB          1.5645  -10.7833  -39.4057 C.3       4 UNK        -0.1800 
     54 N           0.3866  -12.3415  -40.8704 N.am      4 UNK        -0.5000 
     55 C          -0.3531  -13.3840  -41.2720 C.2       3 UNK         0.5000 
     56 O          -0.7784  -14.2479  -40.5043 O.2       3 UNK        -0.5000 
     57 CA         -0.6634  -13.4959  -42.7794 C.3       3 UNK         0.1400 
     58 CB         -2.1559  -13.2377  -43.0394 C.3       3 UNK        -0.1800 
     59 N           0.1209  -12.6268  -43.6673 N.am      3 UNK        -0.5000 
     60 C           1.4535  -12.6141  -43.8087 C.2       2 UNK         0.5000 
     61 O           2.2244  -13.2278  -43.0717 O.2       2 UNK        -0.5000 
     62 CA          2.0021  -11.8029  -45.0005 C.3       2 UNK         0.1400 
     63 CB          3.5361  -11.6779  -44.9737 C.3       2 UNK        -0.1800 
     64 N           1.6043  -12.4411  -46.2548 N.am      2 UNK        -0.5000 
     65 C           0.3933  -12.3352  -46.8191 C.2       1 UNK         0.5000 
     66 O          -0.4641  -11.5441  -46.4163 O.2       1 UNK        -0.5000 
     67 C          -0.1115  -21.7535  -47.5600 C.2       11 UNK         0.5000 
     68 O          -0.5356  -22.5121  -48.4308 O.2       11 UNK        -0.5000 
     69 N          -0.7254  -20.6158  -47.2019 N.am      12 UNK        -0.5000 
     70 CA         -1.9715  -20.1212  -47.7879 C.3       12 UNK         0.1400 
     71 CB         -2.3283  -18.7617  -47.1707 C.3       12 UNK        -0.1800 
     72 C          -3.1503  -21.0956  -47.6288 C.2       12 UNK         0.5000 
     73 O          -3.9312  -21.2581  -48.5668 O.2       12 UNK        -0.5000 
     74 N          -3.2472  -21.7362  -46.4570 N.am      13 UNK        -0.5000 
     75 CA         -4.2332  -22.7735  -46.1694 C.3       13 UNK         0.1400 
     76 CB         -4.2887  -23.0227  -44.6542 C.3       13 UNK        -0.1800 
     77 C          -3.9452  -24.0768  -46.9367 C.2       13 UNK         0.5000 
     78 O          -4.8562  -24.6281  -47.5545 O.2       13 UNK        -0.5000 
     79 N          -2.6880  -24.5396  -46.8901 N.am      14 UNK        -0.5000 
     80 CA         -2.2368  -25.7967  -47.4896 C.3       14 UNK         0.1400 
     81 CB         -0.8155  -26.1155  -47.0006 C.3       14 UNK        -0.1800 
     82 C          -2.2911  -25.8025  -49.0271 C.2       14 UNK         0.5000 
     83 O          -2.7625  -26.7778  -49.6132 O.2       14 UNK        -0.5000 
     84 N          -1.8125  -24.7189  -49.6504 N.am      15 UNK        -0.5000 
     85 CA         -1.7602  -24.5537  -51.1046 C.3       15 UNK         0.1400 
     86 CB         -0.5125  -23.7347  -51.4611 C.3       15 UNK        -0.1800 
     87 C          -3.0373  -23.9157  -51.6876 C.2       15 UNK         0.5000 
     88 O          -3.1311  -23.7878  -52.9081 O.2       15 UNK        -0.5000 
     89 N          -3.9900  -23.5500  -50.8161 N.am      16 UNK        -0.5000 
     90 CA         -5.3150  -22.9981  -51.1050 C.3       16 UNK         0.1400 
     91 CB         -6.1971  -24.0464  -51.8139 C.3       16 UNK        -0.1800 
     92 C          -5.2465  -21.6625  -51.8690 C.2       16 UNK         0.5000 
     93 O          -5.5594  -21.6073  -53.0579 O.2       16 UNK        -0.5000 
     94 N          -4.8526  -20.5993  -51.1557 N.am      17 UNK        -0.5000 
     95 CA         -4.7142  -19.2215  -51.6489 C.3       17 UNK         0.1400 
     96 CB         -4.2604  -18.3231  -50.4898 C.3       17 UNK        -0.1800 
     97 C          -5.9707  -18.6294  -52.3194 C.2       17 UNK         0.5000 
     98 O          -5.8441  -17.7642  -53.1861 O.2       17 UNK        -0.5000 
     99 N          -7.1539  -19.1054  -51.9128 N.am      18 UNK        -0.5000 
    100 CA        -8.4466  -18.7232  -52.4802 C.3       18 UNK         0.1400 
    101 CB        -9.5375  -19.0120  -51.4362 C.3       18 UNK        -0.1800 
    102 C         -8.7753  -19.4348  -53.8102 C.2       18 UNK         0.5000 
    103 O         -9.7152  -19.0162  -54.4883 O.2       18 UNK        -0.5000 
    104 N         -8.0375  -20.4993  -54.1515 N.am      19 UNK        -0.5000 
    105 CA        -8.2570  -21.3300  -55.3326 C.3       19 UNK         0.1400 
    106 CB        -8.2442  -22.8054  -54.8954 C.3       19 UNK        -0.1800 
    107 C         -7.1730  -21.0824  -56.3941 C.2       19 UNK         0.5000 
    108 O         -6.1240  -20.5003  -56.1077 O.2       19 UNK        -0.5000 
    109 N         -7.4312  -21.5925  -57.6055 N.am      20 UNK        -0.5000 
    110 CA        -6.5243  -21.5552  -58.7585 C.3       20 UNK         0.1400 
    111 CB        -7.3179  -21.9394  -60.0178 C.3       20 UNK        -0.1800 
    112 C         -5.2731  -22.4492  -58.6090 C.2       20 UNK         0.5000 
    113 O         -4.3690  -22.3644  -59.4407 O.2       20 UNK        -0.5000 
    114 N         -5.2373  -23.2867  -57.5620 N.am      21 UNK        -0.5000 
    115 CA        -4.0942  -24.1132  -57.1710 C.3       21 UNK         0.1400 
    116 CB        -4.5309  -25.0575  -56.0400 C.3       21 UNK        -0.1800 
    117 C         -2.8671  -23.2859  -56.7365 C.2       21 UNK         0.5000 
    118 O         -1.7369  -23.7403  -56.9197 O.2       21 UNK        -0.5000 
    119 N         -3.1095  -22.0901  -56.1858 N.am      22 UNK        -0.5000 
    120 CA        -2.0802  -21.1108  -55.8283 C.3       22 UNK         0.1400 
    121 C         -1.5363  -20.3847  -57.0896 C.2       22 UNK         0.5000 
    122 N         -0.2267  -20.3768  -57.2994 N.am      22 UNK        -0.7600 
    123 O         -2.2920  -19.8023  -57.8641 O.2       22 UNK        -0.5000 
    124 C124       -2.6316  -20.1206  -54.7764 C.3       23 UNK        -0.0398 
    125 S125       -1.3221  -19.1970  -53.9010 S.3       23 UNK        -0.2404 
    126 C126       -1.0355  -20.3011  -52.4845 C.3       23 UNK        -0.0205 
    127 H127       -3.2400  -15.7017  -47.4478 H         1 UNK         0.0600 
    128 H128       -3.5009  -14.5815  -46.1021 H         1 UNK         0.0600 
    129 H129       -2.8620  -16.1980  -45.7953 H         1 UNK         0.0600 
    130 H130       -1.9903  -13.7433  -48.2733 H         1 UNK         0.3000 
    131 H131       -0.1693  -12.6470  -48.8404 H         1 UNK         0.0600 
    132 H132        1.5056  -14.8842  -47.5690 H         1 UNK         0.0800 
    133 H133        2.0908  -13.6536  -48.6542 H         1 UNK         0.0800 
    134 H134       -0.9476  -16.6356  -49.0298 H         1 UNK         0.0800 
    135 H135        0.4783  -16.8460  -48.0427 H         1 UNK         0.0800 
    136 H136       -1.2821  -18.0023  -51.0417 H         1 UNK         0.1150 
    137 H137        1.3764  -21.3095  -51.6707 H         1 UNK         0.1150 
    138 H138        2.3313  -18.3095  -48.7638 H         1 UNK         0.1150 
    139 H139        3.7844  -20.9026  -50.7797 H         1 UNK         0.0800 
    140 H140        3.9767  -19.9687  -49.3198 H         1 UNK         0.0800 
    141 H141        2.2854  -20.3742  -47.3179 H         1 UNK         0.0800 
    142 H142        3.2370  -21.6147  -46.5575 H         1 UNK         0.0800 
    143 H143        1.2801  -23.2305  -46.9051 H         1 UNK         0.0600 
    144 H144        1.5444  -21.2971  -44.8579 H         1 UNK         0.3000 
    145 H145       -1.0760  -22.6135  -42.7604 H         1 UNK         0.0600 
    146 H146        0.8387  -22.6615  -41.2051 H         1 UNK         0.0600 
    147 H147        1.9772  -22.4793  -42.5383 H         1 UNK         0.0600 
    148 H148        1.0135  -23.9444  -42.3919 H         1 UNK         0.0600 
    149 H149        0.6353  -20.3853  -42.3853 H         1 UNK         0.3000 
    150 H150       -1.4695  -17.9235  -43.9627 H         1 UNK         0.0600 
    151 H151       -2.3060  -18.2397  -41.6313 H         1 UNK         0.0600 
    152 H152       -1.1668  -16.9038  -41.7226 H         1 UNK         0.0600 
    153 H153       -0.6567  -18.4524  -41.0547 H         1 UNK         0.0600 
    154 H154        1.0487  -17.6436  -42.6960 H         1 UNK         0.3000 
    155 H155        3.0994  -18.1852  -45.5858 H         1 UNK         0.0600 
    156 H156        2.3191  -15.8212  -45.5651 H         1 UNK         0.0600 
    157 H157        3.8774  -15.9675  -44.7644 H         1 UNK         0.0600 
    158 H158        2.4027  -15.7844  -43.8147 H         1 UNK         0.0600 
    159 H159        3.6374  -17.6944  -42.7974 H         1 UNK         0.3000 
    160 H160        4.0573  -21.1128  -41.8557 H         1 UNK         0.0600 
    161 H161        6.1126  -18.8838  -42.3182 H         1 UNK         0.0600 
    162 H162        6.1877  -20.4996  -43.0110 H         1 UNK         0.0600 
    163 H163        6.3191  -20.2892  -41.2724 H         1 UNK         0.0600 
    164 H164        4.4954  -18.6774  -40.4420 H         1 UNK         0.3000 
    165 H165        1.1919  -18.1916  -39.2338 H         1 UNK         0.0600 
    166 H166        2.2952  -18.4518  -37.0314 H         1 UNK         0.0600 
    167 H167        2.0712  -20.0251  -37.7787 H         1 UNK         0.0600 
    168 H168        3.6638  -19.2769  -37.7787 H         1 UNK         0.0600 
    169 H169        3.5935  -16.8924  -38.5355 H         1 UNK         0.3000 
    170 H170        4.1396  -14.8986  -39.2173 H         1 UNK         0.0600 
    171 H171        4.1935  -14.8865  -42.2837 H         1 UNK         0.0600 
    172 H172        5.2359  -13.9308  -41.2348 H         1 UNK         0.0600 
    173 H173        5.3558  -15.6844  -41.2326 H         1 UNK         0.0600 
    174 H174        2.4694  -13.4878  -41.2067 H         1 UNK         0.3000 
    175 H175        0.1674  -12.2986  -38.8024 H         1 UNK         0.0600 
    176 H176        2.3619  -10.6148  -40.1308 H         1 UNK         0.0600 
    177 H177        0.8039  -10.0172  -39.5573 H         1 UNK         0.0600 
    178 H178        1.9865  -10.6290  -38.4117 H         1 UNK         0.0600 
    179 H179        0.6888  -11.6835  -41.5730 H         1 UNK         0.3000 
    180 H180       -0.4409  -14.5259  -43.0669 H         1 UNK         0.0600 
    181 H181       -2.4086  -13.3989  -44.0868 H         1 UNK         0.0600 
    182 H182       -2.4361  -12.2161  -42.7800 H         1 UNK         0.0600 
    183 H183       -2.7799  -13.9109  -42.4501 H         1 UNK         0.0600 
    184 H184       -0.4118  -12.1072  -44.3549 H         1 UNK         0.3000 
    185 H185        1.5811  -10.7966  -44.9473 H         1 UNK         0.0600 
    186 H186        3.8722  -11.1995  -44.0528 H         1 UNK         0.0600 
    187 H187        4.0233  -12.6521  -45.0342 H         1 UNK         0.0600 
    188 H188        3.8963  -11.0710  -45.8045 H         1 UNK         0.0600 
    189 H189        2.2473  -13.1315  -46.6113 H         1 UNK         0.3000 
    190 H190       -0.2909  -20.0225  -46.4989 H         1 UNK         0.3000 
    191 H191       -1.7920  -19.9880  -48.8550 H         1 UNK         0.0600 
    192 H192       -1.4982  -18.0626  -47.2395 H         1 UNK         0.0600 
    193 H193       -2.5885  -18.8520  -46.1168 H         1 UNK         0.0600 
    194 H194       -3.1823  -18.3118  -47.6766 H         1 UNK         0.0600 
    195 H195       -2.5933  -21.5027  -45.7179 H         1 UNK         0.3000 
    196 H196       -5.2130  -22.4090  -46.4854 H         1 UNK         0.0600 
    197 H197       -4.5607  -22.1140  -44.1168 H         1 UNK         0.0600 
    198 H198       -3.3301  -23.3646  -44.2633 H         1 UNK         0.0600 
    199 H199       -5.0332  -23.7815  -44.4103 H         1 UNK         0.0600 
    200 H200       -1.9992  -24.0317  -46.3402 H         1 UNK         0.3000 
    201 H201       -2.8992  -26.5886  -47.1340 H         1 UNK         0.0600 
    202 H202       -0.7854  -26.2144  -45.9154 H         1 UNK         0.0600 
    203 H203       -0.1088  -25.3347  -47.2844 H         1 UNK         0.0600 
    204 H204       -0.4565  -27.0548  -47.4229 H         1 UNK         0.0600 
    205 H205       -1.4251  -23.9533  -49.0992 H         1 UNK         0.3000 
    206 H206       -1.6532  -25.5332  -51.5752 H         1 UNK         0.0600 
    207 H207       -0.5663  -22.7351  -51.0336 H         1 UNK         0.0600 
    208 H208       -0.4011  -23.6343  -52.5412 H         1 UNK         0.0600 
    209 H209        0.3935  -24.2086  -51.0831 H         1 UNK         0.0600 
    210 H210       -3.7827  -23.6744  -49.8348 H         1 UNK         0.3000 
    211 H211       -5.7769  -22.7882  -50.1389 H         1 UNK         0.0600 
    212 H212       -5.7994  -24.3232  -52.7906 H         1 UNK         0.0600 
    213 H213       -7.2065  -23.6638  -51.9688 H         1 UNK         0.0600 
    214 H214       -6.2817  -24.9553  -51.2183 H         1 UNK         0.0600 
    215 H215       -4.5848  -20.7599  -50.1855 H         1 UNK         0.3000 
    216 H216       -3.9284  -19.2164  -52.4012 H         1 UNK         0.0600 
    217 H217       -4.1218  -17.2926  -50.8194 H         1 UNK         0.0600 
    218 H218       -3.3097  -18.6625  -50.0849 H         1 UNK         0.0600 
    219 H219       -4.9883  -18.3165  -49.6775 H         1 UNK         0.0600 
    220 H220       -7.1638  -19.8127  -51.1931 H         1 UNK         0.3000 
    221 H221       -8.4416  -17.6490  -52.6770 H         1 UNK         0.0600 
    222 H222       -9.5939  -20.0747  -51.1968 H         1 UNK         0.0600 
    223 H223       -9.3519  -18.4676  -50.5101 H         1 UNK         0.0600 
    224 H224      -10.5192  -18.7051  -51.7996 H         1 UNK         0.0600 
    225 H225       -7.2070  -20.7296  -53.6131 H         1 UNK         0.3000 
    226 H226       -9.2291  -21.1114  -55.7793 H         1 UNK         0.0600 
    227 H227       -8.5026  -23.4667  -55.7231 H         1 UNK         0.0600 
    228 H228       -7.2633  -23.1092  -54.5288 H         1 UNK         0.0600 
    229 H229       -8.9681  -22.9875  -54.1009 H         1 UNK         0.0600 
    230 H230       -8.3114  -22.0652  -57.7543 H         1 UNK         0.3000 
    231 H231       -6.1708  -20.5288  -58.8770 H         1 UNK         0.0600 
    232 H232       -8.1624  -21.2676  -60.1731 H         1 UNK         0.0600 
    233 H233       -7.7041  -22.9575  -59.9543 H         1 UNK         0.0600 
    234 H234       -6.6922  -21.8810  -60.9095 H         1 UNK         0.0600 
    235 H235       -6.0323  -23.2970  -56.9417 H         1 UNK         0.3000 
    236 H236       -3.8016  -24.7163  -58.0329 H         1 UNK         0.0600 
    237 H237       -4.8557  -24.5027  -55.1584 H         1 UNK         0.0600 
    238 H238       -5.3519  -25.7016  -56.3551 H         1 UNK         0.0600 
    239 H239       -3.7085  -25.7048  -55.7324 H         1 UNK         0.0600 
    240 H240       -4.0682  -21.7784  -56.1024 H         1 UNK         0.3000 
    241 H241       -1.2611  -21.6633  -55.3630 H         1 UNK         0.0600 
    242 H242        0.1373  -19.8982  -58.1086 H         1 UNK         0.3800 
    243 H243        0.4106  -20.8412  -56.6713 H         1 UNK         0.3800 
    244 H244       -3.2140  -20.6711  -54.0375 H         1 UNK         0.0800 
    245 H245       -3.3279  -19.4124  -55.2298 H         1 UNK         0.0800 
    246 H246       -1.9753  -20.5190  -51.9764 H         1 UNK         0.0800 
    247 H247       -0.6653  -21.2494  -52.8725 H         1 UNK         0.0800 
@<TRIPOS>BOND
     1    1    2 1    
     2    1  127 1    
     3    1  128 1    
     4    1  129 1    
     5    2    3 2    
     6    2    4 am   BACKBONE|DICT|INTERRES
     7    4    5 1    
     8    4  130 1    
     9    5    6 1    
    10    5   65 1    
    11    5  131 1    
    12    6    7 1    
    13    6  132 1    
    14    6  133 1    
    15    7    8 1    
    16    8    9 1    
    17    8  134 1    
    18    8  135 1    
    19    9   10 ar   
    20    9   14 ar   
    21   10   11 ar   
    22   10  136 1    
    23   11   12 ar   
    24   11  126 1    
    25   12   13 ar   
    26   12  137 1    
    27   13   14 ar   
    28   13   15 1    
    29   14  138 1    
    30   15   16 1    
    31   15  139 1    
    32   15  140 1    
    33   16   17 1    
    34   17   18 1    
    35   17  141 1    
    36   17  142 1    
    37   18   19 1    
    38   18   67 1    
    39   18  143 1    
    40   19   20 am   BACKBONE|DICT|INTERRES
    41   19  144 1    
    42   20   21 2    
    43   20   22 1    
    44   22   23 1    
    45   22   24 1    
    46   22  145 1    
    47   23  146 1    
    48   23  147 1    
    49   23  148 1    
    50   24   25 am   BACKBONE|DICT|INTERRES
    51   24  149 1    
    52   25   26 2    
    53   25   27 1    
    54   27   28 1    
    55   27   29 1    
    56   27  150 1    
    57   28  151 1    
    58   28  152 1    
    59   28  153 1    
    60   29   30 am   BACKBONE|DICT|INTERRES
    61   29  154 1    
    62   30   31 2    
    63   30   32 1    
    64   32   33 1    
    65   32   34 1    
    66   32  155 1    
    67   33  156 1    
    68   33  157 1    
    69   33  158 1    
    70   34   35 am   BACKBONE|DICT|INTERRES
    71   34  159 1    
    72   35   36 2    
    73   35   37 1    
    74   37   38 1    
    75   37   39 1    
    76   37  160 1    
    77   38  161 1    
    78   38  162 1    
    79   38  163 1    
    80   39   40 am   BACKBONE|DICT|INTERRES
    81   39  164 1    
    82   40   41 2    
    83   40   42 1    
    84   42   43 1    
    85   42   44 1    
    86   42  165 1    
    87   43  166 1    
    88   43  167 1    
    89   43  168 1    
    90   44   45 am   BACKBONE|DICT|INTERRES
    91   44  169 1    
    92   45   46 2    
    93   45   47 1    
    94   47   48 1    
    95   47   49 1    
    96   47  170 1    
    97   48  171 1    
    98   48  172 1    
    99   48  173 1    
   100   49   50 am   BACKBONE|DICT|INTERRES
   101   49  174 1    
   102   50   51 2    
   103   50   52 1    
   104   52   53 1    
   105   52   54 1    
   106   52  175 1    
   107   53  176 1    
   108   53  177 1    
   109   53  178 1    
   110   54   55 am   BACKBONE|DICT|INTERRES
   111   54  179 1    
   112   55   56 2    
   113   55   57 1    
   114   57   58 1    
   115   57   59 1    
   116   57  180 1    
   117   58  181 1    
   118   58  182 1    
   119   58  183 1    
   120   59   60 am   BACKBONE|DICT|INTERRES
   121   59  184 1    
   122   60   61 2    
   123   60   62 1    
   124   62   63 1    
   125   62   64 1    
   126   62  185 1    
   127   63  186 1    
   128   63  187 1    
   129   63  188 1    
   130   64   65 am   BACKBONE|DICT|INTERRES
   131   64  189 1    
   132   65   66 2    
   133   67   68 2    
   134   67   69 am   BACKBONE|DICT|INTERRES
   135   69   70 1    
   136   69  190 1    
   137   70   71 1    
   138   70   72 1    
   139   70  191 1    
   140   71  192 1    
   141   71  193 1    
   142   71  194 1    
   143   72   73 2    
   144   72   74 am   BACKBONE|DICT|INTERRES
   145   74   75 1    
   146   74  195 1    
   147   75   76 1    
   148   75   77 1    
   149   75  196 1    
   150   76  197 1    
   151   76  198 1    
   152   76  199 1    
   153   77   78 2    
   154   77   79 am   BACKBONE|DICT|INTERRES
   155   79   80 1    
   156   79  200 1    
   157   80   81 1    
   158   80   82 1    
   159   80  201 1    
   160   81  202 1    
   161   81  203 1    
   162   81  204 1    
   163   82   83 2    
   164   82   84 am   BACKBONE|DICT|INTERRES
   165   84   85 1    
   166   84  205 1    
   167   85   86 1    
   168   85   87 1    
   169   85  206 1    
   170   86  207 1    
   171   86  208 1    
   172   86  209 1    
   173   87   88 2    
   174   87   89 am   BACKBONE|DICT|INTERRES
   175   89   90 1    
   176   89  210 1    
   177   90   91 1    
   178   90   92 1    
   179   90  211 1    
   180   91  212 1    
   181   91  213 1    
   182   91  214 1    
   183   92   93 2    
   184   92   94 am   BACKBONE|DICT|INTERRES
   185   94   95 1    
   186   94  215 1    
   187   95   96 1    
   188   95   97 1    
   189   95  216 1    
   190   96  217 1    
   191   96  218 1    
   192   96  219 1    
   193   97   98 2    
   194   97   99 am   BACKBONE|DICT|INTERRES
   195   99  100 1    
   196   99  220 1    
   197  100  101 1    
   198  100  102 1    
   199  100  221 1    
   200  101  222 1    
   201  101  223 1    
   202  101  224 1    
   203  102  103 2    
   204  102  104 am   BACKBONE|DICT|INTERRES
   205  104  105 1    
   206  104  225 1    
   207  105  106 1    
   208  105  107 1    
   209  105  226 1    
   210  106  227 1    
   211  106  228 1    
   212  106  229 1    
   213  107  108 2    
   214  107  109 am   BACKBONE|DICT|INTERRES
   215  109  110 1    
   216  109  230 1    
   217  110  111 1    
   218  110  112 1    
   219  110  231 1    
   220  111  232 1    
   221  111  233 1    
   222  111  234 1    
   223  112  113 2    
   224  112  114 am   BACKBONE|DICT|INTERRES
   225  114  115 1    
   226  114  235 1    
   227  115  116 1    
   228  115  117 1    
   229  115  236 1    
   230  116  237 1    
   231  116  238 1    
   232  116  239 1    
   233  117  118 2    
   234  117  119 am   BACKBONE|DICT|INTERRES
   235  119  120 1    
   236  119  240 1    
   237  120  121 1    
   238  120  124 1    
   239  120  241 1    
   240  121  122 am   BACKBONE|DICT|INTERRES
   241  121  123 2    
   242  122  242 1    
   243  122  243 1    
   244  124  125 1    
   245  124  244 1    
   246  124  245 1    
   247  125  126 1    
   248  126  246 1    
   249  126  247 1    
@<TRIPOS>SUBSTRUCTURE
     1 UNK         1 GROUP             0       ****    0 ROOT    
