@<TRIPOS>MOLECULE
3R540
247   249    1
SMALL
USER_CHARGES


@<TRIPOS>ATOM
      1 CA         -0.2756   -9.6308  -48.7629 C.3       0 UNK        -0.1800 
      2 C          -0.9080  -10.3499  -47.5802 C.2       0 UNK         0.5000 
      3 O          -1.8532   -9.8338  -46.9853 O.2       0 UNK        -0.5000 
      4 N          -0.3700  -11.5227  -47.2204 N.am      1 UNK        -0.5000 
      5 CA         -0.8167  -12.4500  -46.1642 C.3       1 UNK         0.1400 
      6 C6         -2.2673  -12.9737  -46.3548 C.3       23 UNK        -0.0398 
      7 S7         -2.4671  -13.8998  -47.9179 S.3       23 UNK        -0.2404 
      8 C8         -2.8794  -15.5641  -47.3053 C.3       23 UNK        -0.0205 
      9 C9         -2.7372  -16.6135  -48.3968 C.ar      23 UNK        -0.0193 
     10 C10        -3.8642  -17.1280  -49.0465 C.ar      23 UNK        -0.1150 
     11 C11        -3.7296  -18.1173  -50.0273 C.ar      23 UNK        -0.0193 
     12 C12        -2.4520  -18.5730  -50.3651 C.ar      23 UNK        -0.1150 
     13 C13        -1.3189  -18.0674  -49.7251 C.ar      23 UNK        -0.0193 
     14 C14        -1.4685  -17.0890  -48.7390 C.ar      23 UNK        -0.1150 
     15 C15         0.0650  -18.5733  -50.1053 C.3       23 UNK        -0.0205 
     16 S16         0.3154  -20.3237  -49.6672 S.3       23 UNK        -0.2404 
     17 C17         0.2183  -20.2657  -47.8466 C.3       23 UNK        -0.0398 
     18 CA         -0.6529  -21.3927  -47.2427 C.3       11 UNK         0.1400 
     19 N          -0.3914  -21.5456  -45.8108 N.am      11 UNK        -0.5000 
     20 C          -0.8169  -22.5605  -45.0474 C.2       10 UNK         0.5000 
     21 O          -1.4247  -23.5377  -45.4826 O.2       10 UNK        -0.5000 
     22 CA         -0.5575  -22.4369  -43.5339 C.3       10 UNK         0.1400 
     23 CB          0.8585  -22.9099  -43.1725 C.3       10 UNK        -0.1800 
     24 N          -0.7597  -21.0699  -43.0497 N.am      10 UNK        -0.5000 
     25 C          -1.9522  -20.4576  -43.0109 C.2       9 UNK         0.5000 
     26 O          -3.0106  -21.0065  -43.3164 O.2       9 UNK        -0.5000 
     27 CA         -1.9617  -18.9753  -42.5959 C.3       9 UNK         0.1400 
     28 CB         -1.9679  -18.8449  -41.0658 C.3       9 UNK        -0.1800 
     29 N          -0.8378  -18.2195  -43.1525 N.am      9 UNK        -0.5000 
     30 C          -0.6426  -18.0023  -44.4611 C.2       8 UNK         0.5000 
     31 O          -1.4167  -18.3812  -45.3356 O.2       8 UNK        -0.5000 
     32 CA          0.6588  -17.2963  -44.8770 C.3       8 UNK         0.1400 
     33 CB          0.5282  -15.7778  -44.7304 C.3       8 UNK        -0.1800 
     34 N           1.8181  -17.7615  -44.1221 N.am      8 UNK        -0.5000 
     35 C           2.2870  -19.0157  -44.1365 C.2       7 UNK         0.5000 
     36 O           1.8050  -19.9181  -44.8205 O.2       7 UNK        -0.5000 
     37 CA          3.4618  -19.3174  -43.1935 C.3       7 UNK         0.1400 
     38 CB          4.7970  -18.9096  -43.8343 C.3       7 UNK        -0.1800 
     39 N           3.3030  -18.6333  -41.9105 N.am      7 UNK        -0.5000 
     40 C           2.4427  -19.0132  -40.9564 C.2       6 UNK         0.5000 
     41 O           1.7239  -20.0100  -41.0416 O.2       6 UNK        -0.5000 
     42 CA          2.3505  -18.1078  -39.7130 C.3       6 UNK         0.1400 
     43 CB          3.4866  -18.4210  -38.7277 C.3       6 UNK        -0.1800 
     44 N           2.3715  -16.6796  -40.0412 N.am      6 UNK        -0.5000 
     45 C           1.3925  -16.0488  -40.7041 C.2       5 UNK         0.5000 
     46 O           0.3730  -16.6087  -41.1023 O.2       5 UNK        -0.5000 
     47 CA          1.5897  -14.5505  -41.0026 C.3       5 UNK         0.1400 
     48 CB          1.1292  -13.7022  -39.8080 C.3       5 UNK        -0.1800 
     49 N           2.9482  -14.1493  -41.3816 N.am      5 UNK        -0.5000 
     50 C           3.7170  -14.7148  -42.3244 C.2       4 UNK         0.5000 
     51 O           3.4506  -15.7780  -42.8860 O.2       4 UNK        -0.5000 
     52 CA          4.9801  -13.9208  -42.7199 C.3       4 UNK         0.1400 
     53 CB          5.7299  -14.5413  -43.9175 C.3       4 UNK        -0.1800 
     54 N           4.6847  -12.5021  -42.9688 N.am      4 UNK        -0.5000 
     55 C           3.8055  -12.0096  -43.8552 C.2       3 UNK         0.5000 
     56 O           3.1546  -12.6941  -44.6486 O.2       3 UNK        -0.5000 
     57 CA          3.6266  -10.4827  -43.8641 C.3       3 UNK         0.1400 
     58 CB          4.3558   -9.8557  -45.0623 C.3       3 UNK        -0.1800 
     59 N           2.2060  -10.1548  -43.9437 N.am      3 UNK        -0.5000 
     60 C           1.3577  -10.1884  -42.9074 C.2       2 UNK         0.5000 
     61 O           1.7072  -10.3745  -41.7412 O.2       2 UNK        -0.5000 
     62 CA         -0.1352  -10.0018  -43.2388 C.3       2 UNK         0.1400 
     63 CB         -0.5004   -8.5103  -43.2829 C.3       2 UNK        -0.1800 
     64 N          -0.4974  -10.6248  -44.5134 N.am      2 UNK        -0.5000 
     65 C          -0.5843  -11.9454  -44.7196 C.2       1 UNK         0.5000 
     66 O          -0.4643  -12.7704  -43.8140 O.2       1 UNK        -0.5000 
     67 C          -2.1621  -21.2121  -47.5247 C.2       11 UNK         0.5000 
     68 O          -2.7079  -21.9264  -48.3641 O.2       11 UNK        -0.5000 
     69 N          -2.8236  -20.3283  -46.7618 N.am      12 UNK        -0.5000 
     70 CA         -4.2607  -20.0439  -46.8309 C.3       12 UNK         0.1400 
     71 CB         -4.5948  -18.8758  -45.8915 C.3       12 UNK        -0.1800 
     72 C          -5.1643  -21.2491  -46.5120 C.2       12 UNK         0.5000 
     73 O          -6.3011  -21.2957  -46.9809 O.2       12 UNK        -0.5000 
     74 N          -4.6486  -22.2042  -45.7301 N.am      13 UNK        -0.5000 
     75 CA         -5.3061  -23.4719  -45.4195 C.3       13 UNK         0.1400 
     76 CB         -4.7367  -24.0061  -44.0949 C.3       13 UNK        -0.1800 
     77 C          -5.1644  -24.5225  -46.5425 C.2       13 UNK         0.5000 
     78 O          -5.7753  -25.5874  -46.4360 O.2       13 UNK        -0.5000 
     79 N          -4.3615  -24.2338  -47.5750 N.am      14 UNK        -0.5000 
     80 CA         -4.0302  -25.1383  -48.6679 C.3       14 UNK         0.1400 
     81 CB         -2.5834  -25.6380  -48.4706 C.3       14 UNK        -0.1800 
     82 C          -4.2814  -24.4388  -50.0164 C.2       14 UNK         0.5000 
     83 O          -5.4398  -24.2146  -50.3785 O.2       14 UNK        -0.5000 
     84 N          -3.2089  -24.1462  -50.7578 N.am      15 UNK        -0.5000 
     85 CA         -3.2440  -23.5999  -52.1045 C.3       15 UNK         0.1400 
     86 CB         -3.1848  -24.7669  -53.1059 C.3       15 UNK        -0.1800 
     87 C          -2.0560  -22.6553  -52.3059 C.2       15 UNK         0.5000 
     88 O          -0.9510  -22.9601  -51.8486 O.2       15 UNK        -0.5000 
     89 N          -2.2884  -21.5655  -53.0458 N.am      16 UNK        -0.5000 
     90 CA         -1.2632  -20.6317  -53.4994 C.3       16 UNK         0.1400 
     91 CB         -1.9265  -19.3759  -54.0836 C.3       16 UNK        -0.1800 
     92 C          -0.3593  -21.3163  -54.5354 C.2       16 UNK         0.5000 
     93 O          -0.8674  -21.9532  -55.4649 O.2       16 UNK        -0.5000 
     94 N           0.9592  -21.2345  -54.3066 N.am      17 UNK        -0.5000 
     95 CA          2.0291  -21.9168  -55.0501 C.3       17 UNK         0.1400 
     96 CB          2.1349  -21.3480  -56.4807 C.3       17 UNK        -0.1800 
     97 C           1.9054  -23.4594  -55.0427 C.2       17 UNK         0.5000 
     98 O           2.4793  -24.1200  -55.9096 O.2       17 UNK        -0.5000 
     99 N           1.1327  -23.9979  -54.0835 N.am      18 UNK        -0.5000 
    100 CA         0.6872  -25.3898  -53.9700 C.3       18 UNK         0.1400 
    101 CB         1.8776  -26.3222  -53.6622 C.3       18 UNK        -0.1800 
    102 C         -0.1535  -25.8671  -55.1793 C.2       18 UNK         0.5000 
    103 O         -0.1878  -27.0685  -55.4516 O.2       18 UNK        -0.5000 
    104 N         -0.8049  -24.9314  -55.8883 N.am      19 UNK        -0.5000 
    105 CA        -1.5085  -25.1878  -57.1444 C.3       19 UNK         0.1400 
    106 CB        -0.6820  -24.6159  -58.3089 C.3       19 UNK        -0.1800 
    107 C         -2.9295  -24.6067  -57.1424 C.2       19 UNK         0.5000 
    108 O         -3.8803  -25.3396  -57.4183 O.2       19 UNK        -0.5000 
    109 N         -3.0602  -23.3072  -56.8484 N.am      20 UNK        -0.5000 
    110 CA        -4.3301  -22.5847  -56.8849 C.3       20 UNK         0.1400 
    111 CB        -4.0714  -21.1459  -57.3593 C.3       20 UNK        -0.1800 
    112 C         -4.9890  -22.6287  -55.4990 C.2       20 UNK         0.5000 
    113 O         -4.5960  -21.8627  -54.6179 O.2       20 UNK        -0.5000 
    114 N         -5.9357  -23.5607  -55.3202 N.am      21 UNK        -0.5000 
    115 CA        -6.6711  -23.8187  -54.0780 C.3       21 UNK         0.1400 
    116 CB        -7.7009  -24.9314  -54.3251 C.3       21 UNK        -0.1800 
    117 C         -7.3511  -22.5625  -53.5036 C.2       21 UNK         0.5000 
    118 O         -8.0710  -21.8720  -54.2296 O.2       21 UNK        -0.5000 
    119 N         -7.0953  -22.2914  -52.2207 N.am      22 UNK        -0.5000 
    120 CA        -7.6156  -21.1236  -51.4990 C.3       22 UNK         0.1400 
    121 C         -9.1224  -21.2648  -51.1477 C.2       22 UNK         0.5000 
    122 N         -9.8588  -20.1627  -51.1026 N.am      22 UNK        -0.7600 
    123 O         -9.6244  -22.3546  -50.8799 O.2       22 UNK        -0.5000 
    124 C124       -6.7817  -20.8348  -50.2287 C.3       23 UNK        -0.0398 
    125 S125       -5.0236  -20.5130  -50.6001 S.3       23 UNK        -0.2404 
    126 C126       -4.9598  -18.6931  -50.7197 C.3       23 UNK        -0.0205 
    127 H127        0.0927   -8.6524  -48.4544 H         1 UNK         0.0600 
    128 H128       -1.0147   -9.4852  -49.5507 H         1 UNK         0.0600 
    129 H129        0.5600  -10.1930  -49.1806 H         1 UNK         0.0600 
    130 H130        0.4245  -11.8570  -47.7479 H         1 UNK         0.3000 
    131 H131       -0.1496  -13.3059  -46.2674 H         1 UNK         0.0600 
    132 H132       -2.5520  -13.6214  -45.5235 H         1 UNK         0.0800 
    133 H133       -2.9827  -12.1506  -46.3448 H         1 UNK         0.0800 
    134 H134       -3.8956  -15.5573  -46.9085 H         1 UNK         0.0800 
    135 H135       -2.2288  -15.8319  -46.4734 H         1 UNK         0.0800 
    136 H136       -4.8466  -16.7665  -48.7777 H         1 UNK         0.1150 
    137 H137       -2.3412  -19.3467  -51.1096 H         1 UNK         0.1150 
    138 H138       -0.5987  -16.6937  -48.2337 H         1 UNK         0.1150 
    139 H139        0.2017  -18.4541  -51.1807 H         1 UNK         0.0800 
    140 H140        0.8430  -17.9729  -49.6313 H         1 UNK         0.0800 
    141 H141       -0.1289  -19.2894  -47.5101 H         1 UNK         0.0800 
    142 H142        1.2415  -20.3559  -47.4795 H         1 UNK         0.0800 
    143 H143       -0.3497  -22.3309  -47.7129 H         1 UNK         0.0600 
    144 H144        0.1595  -20.8138  -45.3721 H         1 UNK         0.3000 
    145 H145       -1.2710  -23.0854  -43.0209 H         1 UNK         0.0600 
    146 H146        1.0269  -22.8623  -42.0964 H         1 UNK         0.0600 
    147 H147        1.0133  -23.9444  -43.4814 H         1 UNK         0.0600 
    148 H148        1.6256  -22.3058  -43.6566 H         1 UNK         0.0600 
    149 H149        0.0640  -20.5548  -42.7687 H         1 UNK         0.3000 
    150 H150       -2.8832  -18.5309  -42.9770 H         1 UNK         0.0600 
    151 H151       -2.7885  -19.4138  -40.6268 H         1 UNK         0.0600 
    152 H152       -2.0945  -17.8062  -40.7606 H         1 UNK         0.0600 
    153 H153       -1.0392  -19.2120  -40.6269 H         1 UNK         0.0600 
    154 H154       -0.1914  -17.8115  -42.4826 H         1 UNK         0.3000 
    155 H155        0.8386  -17.5206  -45.9303 H         1 UNK         0.0600 
    156 H156        0.3265  -15.4923  -43.6995 H         1 UNK         0.0600 
    157 H157       -0.2940  -15.4025  -45.3358 H         1 UNK         0.0600 
    158 H158        1.4349  -15.2632  -45.0501 H         1 UNK         0.0600 
    159 H159        2.3098  -17.0674  -43.5632 H         1 UNK         0.3000 
    160 H160        3.4843  -20.3949  -43.0166 H         1 UNK         0.0600 
    161 H161        4.8368  -17.8401  -44.0436 H         1 UNK         0.0600 
    162 H162        4.9507  -19.4337  -44.7784 H         1 UNK         0.0600 
    163 H163        5.6372  -19.1558  -43.1850 H         1 UNK         0.0600 
    164 H164        3.7867  -17.7517  -41.8059 H         1 UNK         0.3000 
    165 H165        1.4023  -18.3259  -39.2168 H         1 UNK         0.0600 
    166 H166        3.3795  -17.8466  -37.8074 H         1 UNK         0.0600 
    167 H167        3.4843  -19.4766  -38.4528 H         1 UNK         0.0600 
    168 H168        4.4648  -18.1946  -39.1536 H         1 UNK         0.0600 
    169 H169        3.1836  -16.1512  -39.7581 H         1 UNK         0.3000 
    170 H170        0.9460  -14.3017  -41.8473 H         1 UNK         0.0600 
    171 H171        0.1114  -13.9611  -39.5131 H         1 UNK         0.0600 
    172 H172        1.7715  -13.8485  -38.9388 H         1 UNK         0.0600 
    173 H173        1.1323  -12.6401  -40.0543 H         1 UNK         0.0600 
    174 H174        3.2638  -13.2730  -40.9923 H         1 UNK         0.3000 
    175 H175        5.6485  -13.9564  -41.8585 H         1 UNK         0.0600 
    176 H176        5.1031  -14.5905  -44.8085 H         1 UNK         0.0600 
    177 H177        6.6214  -13.9656  -44.1660 H         1 UNK         0.0600 
    178 H178        6.0533  -15.5577  -43.6903 H         1 UNK         0.0600 
    179 H179        5.1702  -11.8498  -42.3684 H         1 UNK         0.3000 
    180 H180        4.0415  -10.0602  -42.9463 H         1 UNK         0.0600 
    181 H181        5.4245  -10.0706  -45.0235 H         1 UNK         0.0600 
    182 H182        4.2423   -8.7715  -45.0696 H         1 UNK         0.0600 
    183 H183        3.9781  -10.2393  -46.0111 H         1 UNK         0.0600 
    184 H184        1.8211  -10.0529  -44.8705 H         1 UNK         0.3000 
    185 H185       -0.7169  -10.4732  -42.4437 H         1 UNK         0.0600 
    186 H186       -0.2574   -8.0213  -42.3387 H         1 UNK         0.0600 
    187 H187        0.0380   -7.9857  -44.0733 H         1 UNK         0.0600 
    188 H188       -1.5679   -8.3714  -43.4553 H         1 UNK         0.0600 
    189 H189       -0.6972  -10.0124  -45.2953 H         1 UNK         0.3000 
    190 H190       -2.2892  -19.7436  -46.1216 H         1 UNK         0.3000 
    191 H191       -4.4829  -19.7344  -47.8507 H         1 UNK         0.0600 
    192 H192       -4.4071  -19.1344  -44.8494 H         1 UNK         0.0600 
    193 H193       -5.6446  -18.5931  -45.9771 H         1 UNK         0.0600 
    194 H194       -4.0017  -17.9942  -46.1278 H         1 UNK         0.0600 
    195 H195       -3.7215  -22.0667  -45.3489 H         1 UNK         0.3000 
    196 H196       -6.3733  -23.2903  -45.2773 H         1 UNK         0.0600 
    197 H197       -5.2461  -24.9206  -43.7889 H         1 UNK         0.0600 
    198 H198       -4.8617  -23.2808  -43.2905 H         1 UNK         0.0600 
    199 H199       -3.6740  -24.2347  -44.1764 H         1 UNK         0.0600 
    200 H200       -3.9201  -23.3200  -47.6250 H         1 UNK         0.3000 
    201 H201       -4.6879  -26.0096  -48.6575 H         1 UNK         0.0600 
    202 H202       -2.4931  -26.2015  -47.5417 H         1 UNK         0.0600 
    203 H203       -1.8705  -24.8135  -48.4201 H         1 UNK         0.0600 
    204 H204       -2.2780  -26.3033  -49.2792 H         1 UNK         0.0600 
    205 H205       -2.2827  -24.2664  -50.3699 H         1 UNK         0.3000 
    206 H206       -4.1624  -23.0296  -52.2512 H         1 UNK         0.0600 
    207 H207       -2.3041  -25.3869  -52.9443 H         1 UNK         0.0600 
    208 H208       -4.0550  -25.4162  -53.0170 H         1 UNK         0.0600 
    209 H209       -3.1464  -24.4055  -54.1317 H         1 UNK         0.0600 
    210 H210       -3.2033  -21.4697  -53.4828 H         1 UNK         0.3000 
    211 H211       -0.6647  -20.3371  -52.6358 H         1 UNK         0.0600 
    212 H212       -2.5546  -19.6134  -54.9400 H         1 UNK         0.0600 
    213 H213       -1.1764  -18.6566  -54.4143 H         1 UNK         0.0600 
    214 H214       -2.5553  -18.8752  -53.3485 H         1 UNK         0.0600 
    215 H215        1.2698  -20.7101  -53.5003 H         1 UNK         0.3000 
    216 H216        2.9600  -21.6857  -54.5305 H         1 UNK         0.0600 
    217 H217        3.0191  -21.7311  -56.9912 H         1 UNK         0.0600 
    218 H218        2.2158  -20.2612  -56.4683 H         1 UNK         0.0600 
    219 H219        1.2684  -21.6131  -57.0873 H         1 UNK         0.0600 
    220 H220        0.7139  -23.3661  -53.4119 H         1 UNK         0.3000 
    221 H221        0.0230  -25.4204  -53.1063 H         1 UNK         0.0600 
    222 H222        2.5545  -26.4110  -54.5122 H         1 UNK         0.0600 
    223 H223        2.4531  -25.9589  -52.8109 H         1 UNK         0.0600 
    224 H224        1.5339  -27.3268  -53.4133 H         1 UNK         0.0600 
    225 H225       -0.7406  -23.9606  -55.6000 H         1 UNK         0.3000 
    226 H226       -1.6139  -26.2618  -57.3106 H         1 UNK         0.0600 
    227 H227        0.2897  -25.1057  -58.3759 H         1 UNK         0.0600 
    228 H228       -1.1896  -24.7663  -59.2625 H         1 UNK         0.0600 
    229 H229       -0.5057  -23.5456  -58.1925 H         1 UNK         0.0600 
    230 H230       -2.2493  -22.7729  -56.5492 H         1 UNK         0.3000 
    231 H231       -5.0081  -23.0446  -57.6073 H         1 UNK         0.0600 
    232 H232       -3.7399  -21.1321  -58.3975 H         1 UNK         0.0600 
    233 H233       -3.3037  -20.6558  -56.7634 H         1 UNK         0.0600 
    234 H234       -4.9774  -20.5418  -57.2974 H         1 UNK         0.0600 
    235 H235       -6.1699  -24.1559  -56.1016 H         1 UNK         0.3000 
    236 H236       -5.9576  -24.1872  -53.3425 H         1 UNK         0.0600 
    237 H237       -8.4264  -24.6453  -55.0877 H         1 UNK         0.0600 
    238 H238       -7.2172  -25.8534  -54.6485 H         1 UNK         0.0600 
    239 H239       -8.2551  -25.1585  -53.4133 H         1 UNK         0.0600 
    240 H240       -6.5235  -22.9248  -51.6726 H         1 UNK         0.3000 
    241 H241       -7.5147  -20.2608  -52.1610 H         1 UNK         0.0600 
    242 H242       -9.4726  -19.2558  -51.3155 H         1 UNK         0.3800 
    243 H243      -10.8356  -20.2374  -50.8632 H         1 UNK         0.3800 
    244 H244       -7.1938  -19.9970  -49.6644 H         1 UNK         0.0800 
    245 H245       -6.8242  -21.6946  -49.5580 H         1 UNK         0.0800 
    246 H246       -5.8661  -18.2553  -50.3005 H         1 UNK         0.0800 
    247 H247       -4.9409  -18.4107  -51.7730 H         1 UNK         0.0800 
@<TRIPOS>BOND
     1    1    2 1    
     2    1  127 1    
     3    1  128 1    
     4    1  129 1    
     5    2    3 2    
     6    2    4 am   BACKBONE|DICT|INTERRES
     7    4    5 1    
     8    4  130 1    
     9    5    6 1    
    10    5   65 1    
    11    5  131 1    
    12    6    7 1    
    13    6  132 1    
    14    6  133 1    
    15    7    8 1    
    16    8    9 1    
    17    8  134 1    
    18    8  135 1    
    19    9   10 ar   
    20    9   14 ar   
    21   10   11 ar   
    22   10  136 1    
    23   11   12 ar   
    24   11  126 1    
    25   12   13 ar   
    26   12  137 1    
    27   13   14 ar   
    28   13   15 1    
    29   14  138 1    
    30   15   16 1    
    31   15  139 1    
    32   15  140 1    
    33   16   17 1    
    34   17   18 1    
    35   17  141 1    
    36   17  142 1    
    37   18   19 1    
    38   18   67 1    
    39   18  143 1    
    40   19   20 am   BACKBONE|DICT|INTERRES
    41   19  144 1    
    42   20   21 2    
    43   20   22 1    
    44   22   23 1    
    45   22   24 1    
    46   22  145 1    
    47   23  146 1    
    48   23  147 1    
    49   23  148 1    
    50   24   25 am   BACKBONE|DICT|INTERRES
    51   24  149 1    
    52   25   26 2    
    53   25   27 1    
    54   27   28 1    
    55   27   29 1    
    56   27  150 1    
    57   28  151 1    
    58   28  152 1    
    59   28  153 1    
    60   29   30 am   BACKBONE|DICT|INTERRES
    61   29  154 1    
    62   30   31 2    
    63   30   32 1    
    64   32   33 1    
    65   32   34 1    
    66   32  155 1    
    67   33  156 1    
    68   33  157 1    
    69   33  158 1    
    70   34   35 am   BACKBONE|DICT|INTERRES
    71   34  159 1    
    72   35   36 2    
    73   35   37 1    
    74   37   38 1    
    75   37   39 1    
    76   37  160 1    
    77   38  161 1    
    78   38  162 1    
    79   38  163 1    
    80   39   40 am   BACKBONE|DICT|INTERRES
    81   39  164 1    
    82   40   41 2    
    83   40   42 1    
    84   42   43 1    
    85   42   44 1    
    86   42  165 1    
    87   43  166 1    
    88   43  167 1    
    89   43  168 1    
    90   44   45 am   BACKBONE|DICT|INTERRES
    91   44  169 1    
    92   45   46 2    
    93   45   47 1    
    94   47   48 1    
    95   47   49 1    
    96   47  170 1    
    97   48  171 1    
    98   48  172 1    
    99   48  173 1    
   100   49   50 am   BACKBONE|DICT|INTERRES
   101   49  174 1    
   102   50   51 2    
   103   50   52 1    
   104   52   53 1    
   105   52   54 1    
   106   52  175 1    
   107   53  176 1    
   108   53  177 1    
   109   53  178 1    
   110   54   55 am   BACKBONE|DICT|INTERRES
   111   54  179 1    
   112   55   56 2    
   113   55   57 1    
   114   57   58 1    
   115   57   59 1    
   116   57  180 1    
   117   58  181 1    
   118   58  182 1    
   119   58  183 1    
   120   59   60 am   BACKBONE|DICT|INTERRES
   121   59  184 1    
   122   60   61 2    
   123   60   62 1    
   124   62   63 1    
   125   62   64 1    
   126   62  185 1    
   127   63  186 1    
   128   63  187 1    
   129   63  188 1    
   130   64   65 am   BACKBONE|DICT|INTERRES
   131   64  189 1    
   132   65   66 2    
   133   67   68 2    
   134   67   69 am   BACKBONE|DICT|INTERRES
   135   69   70 1    
   136   69  190 1    
   137   70   71 1    
   138   70   72 1    
   139   70  191 1    
   140   71  192 1    
   141   71  193 1    
   142   71  194 1    
   143   72   73 2    
   144   72   74 am   BACKBONE|DICT|INTERRES
   145   74   75 1    
   146   74  195 1    
   147   75   76 1    
   148   75   77 1    
   149   75  196 1    
   150   76  197 1    
   151   76  198 1    
   152   76  199 1    
   153   77   78 2    
   154   77   79 am   BACKBONE|DICT|INTERRES
   155   79   80 1    
   156   79  200 1    
   157   80   81 1    
   158   80   82 1    
   159   80  201 1    
   160   81  202 1    
   161   81  203 1    
   162   81  204 1    
   163   82   83 2    
   164   82   84 am   BACKBONE|DICT|INTERRES
   165   84   85 1    
   166   84  205 1    
   167   85   86 1    
   168   85   87 1    
   169   85  206 1    
   170   86  207 1    
   171   86  208 1    
   172   86  209 1    
   173   87   88 2    
   174   87   89 am   BACKBONE|DICT|INTERRES
   175   89   90 1    
   176   89  210 1    
   177   90   91 1    
   178   90   92 1    
   179   90  211 1    
   180   91  212 1    
   181   91  213 1    
   182   91  214 1    
   183   92   93 2    
   184   92   94 am   BACKBONE|DICT|INTERRES
   185   94   95 1    
   186   94  215 1    
   187   95   96 1    
   188   95   97 1    
   189   95  216 1    
   190   96  217 1    
   191   96  218 1    
   192   96  219 1    
   193   97   98 2    
   194   97   99 am   BACKBONE|DICT|INTERRES
   195   99  100 1    
   196   99  220 1    
   197  100  101 1    
   198  100  102 1    
   199  100  221 1    
   200  101  222 1    
   201  101  223 1    
   202  101  224 1    
   203  102  103 2    
   204  102  104 am   BACKBONE|DICT|INTERRES
   205  104  105 1    
   206  104  225 1    
   207  105  106 1    
   208  105  107 1    
   209  105  226 1    
   210  106  227 1    
   211  106  228 1    
   212  106  229 1    
   213  107  108 2    
   214  107  109 am   BACKBONE|DICT|INTERRES
   215  109  110 1    
   216  109  230 1    
   217  110  111 1    
   218  110  112 1    
   219  110  231 1    
   220  111  232 1    
   221  111  233 1    
   222  111  234 1    
   223  112  113 2    
   224  112  114 am   BACKBONE|DICT|INTERRES
   225  114  115 1    
   226  114  235 1    
   227  115  116 1    
   228  115  117 1    
   229  115  236 1    
   230  116  237 1    
   231  116  238 1    
   232  116  239 1    
   233  117  118 2    
   234  117  119 am   BACKBONE|DICT|INTERRES
   235  119  120 1    
   236  119  240 1    
   237  120  121 1    
   238  120  124 1    
   239  120  241 1    
   240  121  122 am   BACKBONE|DICT|INTERRES
   241  121  123 2    
   242  122  242 1    
   243  122  243 1    
   244  124  125 1    
   245  124  244 1    
   246  124  245 1    
   247  125  126 1    
   248  126  246 1    
   249  126  247 1    
@<TRIPOS>SUBSTRUCTURE
     1 UNK         1 GROUP             0       ****    0 ROOT    
