@<TRIPOS>MOLECULE
3R540
247   249    1
SMALL
USER_CHARGES


@<TRIPOS>ATOM
      1 CA          3.4903  -16.7205  -52.1840 C.3       0 UNK        -0.1800 
      2 C           3.1686  -15.7077  -51.0946 C.2       0 UNK         0.5000 
      3 O           3.4315  -14.5176  -51.2659 O.2       0 UNK        -0.5000 
      4 N           2.6082  -16.1810  -49.9738 N.am      1 UNK        -0.5000 
      5 CA          2.1861  -15.3926  -48.8067 C.3       1 UNK         0.1400 
      6 C6          1.0531  -14.3660  -49.1285 C.3       23 UNK        -0.0398 
      7 S7         -0.4544  -14.7049  -48.1562 S.3       23 UNK        -0.2404 
      8 C8         -1.5943  -15.3980  -49.4000 C.3       23 UNK        -0.0205 
      9 C9         -0.9595  -16.4788  -50.2651 C.ar      23 UNK        -0.0193 
     10 C10        -0.8011  -16.2632  -51.6369 C.ar      23 UNK        -0.1150 
     11 C11        -0.2540  -17.2531  -52.4576 C.ar      23 UNK        -0.0193 
     12 C12         0.1939  -18.4429  -51.8789 C.ar      23 UNK        -0.1150 
     13 C13         0.0448  -18.6741  -50.5082 C.ar      23 UNK        -0.0193 
     14 C14        -0.5488  -17.6934  -49.7072 C.ar      23 UNK        -0.1150 
     15 C15         0.4597  -20.0150  -49.9229 C.3       23 UNK        -0.0205 
     16 S16         1.9847  -19.9260  -48.9314 S.3       23 UNK        -0.2404 
     17 C17         1.3316  -19.8432  -47.2294 C.3       23 UNK        -0.0398 
     18 CA          1.1186  -21.2388  -46.5737 C.3       11 UNK         0.1400 
     19 N           1.1617  -21.1686  -45.1144 N.am      11 UNK        -0.5000 
     20 C           2.1444  -21.6726  -44.3569 C.2       10 UNK         0.5000 
     21 O           3.1248  -22.2621  -44.8127 O.2       10 UNK        -0.5000 
     22 CA          2.0415  -21.4817  -42.8319 C.3       10 UNK         0.1400 
     23 CB          2.9989  -20.3758  -42.3628 C.3       10 UNK        -0.1800 
     24 N           0.6934  -21.1721  -42.3527 N.am      10 UNK        -0.5000 
     25 C          -0.2894  -22.0746  -42.2325 C.2       9 UNK         0.5000 
     26 O          -0.1908  -23.2380  -42.6195 O.2       9 UNK        -0.5000 
     27 CA         -1.5938  -21.6051  -41.5688 C.3       9 UNK         0.1400 
     28 CB         -1.4347  -21.5764  -40.0407 C.3       9 UNK        -0.1800 
     29 N          -1.9733  -20.2725  -42.0334 N.am      9 UNK        -0.5000 
     30 C          -3.0191  -20.0066  -42.8285 C.2       8 UNK         0.5000 
     31 O          -3.8141  -20.8576  -43.2267 O.2       8 UNK        -0.5000 
     32 CA         -3.1949  -18.5405  -43.2804 C.3       8 UNK         0.1400 
     33 CB         -4.1100  -17.7841  -42.3063 C.3       8 UNK        -0.1800 
     34 N          -1.9283  -17.8161  -43.4047 N.am      8 UNK        -0.5000 
     35 C          -0.9327  -18.1646  -44.2294 C.2       7 UNK         0.5000 
     36 O          -1.0164  -19.0816  -45.0446 O.2       7 UNK        -0.5000 
     37 CA          0.4087  -17.4272  -44.0886 C.3       7 UNK         0.1400 
     38 CB          0.6072  -16.4561  -45.2576 C.3       7 UNK        -0.1800 
     39 N           0.6068  -16.7295  -42.8120 N.am      7 UNK        -0.5000 
     40 C           0.6533  -17.3266  -41.6089 C.2       6 UNK         0.5000 
     41 O           0.4200  -18.5258  -41.4474 O.2       6 UNK        -0.5000 
     42 CA          1.0099  -16.4708  -40.3791 C.3       6 UNK         0.1400 
     43 CB          2.3813  -16.8756  -39.8176 C.3       6 UNK        -0.1800 
     44 N           1.0139  -15.0349  -40.6580 N.am      6 UNK        -0.5000 
     45 C          -0.0763  -14.2566  -40.6116 C.2       5 UNK         0.5000 
     46 O          -1.1951  -14.6709  -40.3058 O.2       5 UNK        -0.5000 
     47 CA          0.1006  -12.7703  -40.9855 C.3       5 UNK         0.1400 
     48 CB          0.2876  -11.9179  -39.7213 C.3       5 UNK        -0.1800 
     49 N           1.2133  -12.5101  -41.9033 N.am      5 UNK        -0.5000 
     50 C           1.3133  -12.9982  -43.1468 C.2       4 UNK         0.5000 
     51 O           0.4707  -13.7422  -43.6466 O.2       4 UNK        -0.5000 
     52 CA          2.5653  -12.6280  -43.9665 C.3       4 UNK         0.1400 
     53 CB          3.4375  -11.5229  -43.3294 C.3       4 UNK        -0.1800 
     54 N           3.3821  -13.8043  -44.2761 N.am      4 UNK        -0.5000 
     55 C           3.9397  -14.6617  -43.4051 C.2       3 UNK         0.5000 
     56 O           3.7734  -14.5931  -42.1860 O.2       3 UNK        -0.5000 
     57 CA          4.8332  -15.7879  -43.9743 C.3       3 UNK         0.1400 
     58 CB          4.2707  -17.1755  -43.6357 C.3       3 UNK        -0.1800 
     59 N           5.0296  -15.7127  -45.4230 N.am      3 UNK        -0.5000 
     60 C           5.8686  -14.8765  -46.0479 C.2       2 UNK         0.5000 
     61 O           6.6301  -14.1074  -45.4609 O.2       2 UNK        -0.5000 
     62 CA          5.8334  -14.8823  -47.5902 C.3       2 UNK         0.1400 
     63 CB          6.9854  -15.7304  -48.1504 C.3       2 UNK        -0.1800 
     64 N           4.5715  -15.3553  -48.1735 N.am      2 UNK        -0.5000 
     65 C           3.3691  -14.7800  -48.0154 C.2       1 UNK         0.5000 
     66 O           3.1793  -13.8284  -47.2559 O.2       1 UNK        -0.5000 
     67 C          -0.1992  -21.9060  -47.0018 C.2       11 UNK         0.5000 
     68 O          -0.1792  -23.0174  -47.5297 O.2       11 UNK        -0.5000 
     69 N          -1.3245  -21.2140  -46.7807 N.am      12 UNK        -0.5000 
     70 CA         -2.6272  -21.5029  -47.3856 C.3       12 UNK         0.1400 
     71 CB         -3.5726  -20.3242  -47.1138 C.3       12 UNK        -0.1800 
     72 C          -3.2726  -22.8311  -46.9557 C.2       12 UNK         0.5000 
     73 O          -4.0773  -23.3738  -47.7113 O.2       12 UNK        -0.5000 
     74 N          -2.9133  -23.3373  -45.7697 N.am      13 UNK        -0.5000 
     75 CA         -3.3800  -24.6315  -45.2698 C.3       13 UNK         0.1400 
     76 CB         -3.2900  -24.6437  -43.7370 C.3       13 UNK        -0.1800 
     77 C          -2.6011  -25.8199  -45.8690 C.2       13 UNK         0.5000 
     78 O          -3.1152  -26.9392  -45.8524 O.2       13 UNK        -0.5000 
     79 N          -1.3824  -25.5697  -46.3673 N.am      14 UNK        -0.5000 
     80 CA         -0.5018  -26.5771  -46.9570 C.3       14 UNK         0.1400 
     81 CB          0.9385  -26.3211  -46.4832 C.3       14 UNK        -0.1800 
     82 C          -0.5783  -26.5578  -48.4920 C.2       14 UNK         0.5000 
     83 O          -0.6639  -27.6184  -49.1129 O.2       14 UNK        -0.5000 
     84 N          -0.5324  -25.3545  -49.0748 N.am      15 UNK        -0.5000 
     85 CA         -0.5847  -25.1110  -50.5129 C.3       15 UNK         0.1400 
     86 CB         -0.0151  -23.7060  -50.7780 C.3       15 UNK        -0.1800 
     87 C          -2.0144  -25.2170  -51.0745 C.2       15 UNK         0.5000 
     88 O          -2.9918  -25.1606  -50.3266 O.2       15 UNK        -0.5000 
     89 N          -2.1092  -25.2802  -52.4091 N.am      16 UNK        -0.5000 
     90 CA         -3.3624  -25.1899  -53.1696 C.3       16 UNK         0.1400 
     91 CB         -3.1327  -25.7736  -54.5726 C.3       16 UNK        -0.1800 
     92 C          -3.9170  -23.7504  -53.2651 C.2       16 UNK         0.5000 
     93 O          -4.9798  -23.5467  -53.8519 O.2       16 UNK        -0.5000 
     94 N          -3.1939  -22.7783  -52.6917 N.am      17 UNK        -0.5000 
     95 CA         -3.4759  -21.3427  -52.6797 C.3       17 UNK         0.1400 
     96 CB         -2.4243  -20.6535  -51.8051 C.3       17 UNK        -0.1800 
     97 C          -4.8864  -20.9574  -52.2037 C.2       17 UNK         0.5000 
     98 O          -5.4513  -20.0002  -52.7306 O.2       17 UNK        -0.5000 
     99 N          -5.4377  -21.7162  -51.2467 N.am      18 UNK        -0.5000 
    100 CA        -6.7965  -21.5340  -50.7345 C.3       18 UNK         0.1400 
    101 CB        -6.9646  -22.3474  -49.4431 C.3       18 UNK        -0.1800 
    102 C         -7.8847  -21.9114  -51.7585 C.2       18 UNK         0.5000 
    103 O         -8.9382  -21.2749  -51.7799 O.2       18 UNK        -0.5000 
    104 N         -7.6092  -22.9203  -52.5971 N.am      19 UNK        -0.5000 
    105 CA        -8.4910  -23.3591  -53.6802 C.3       19 UNK         0.1400 
    106 CB        -8.2038  -24.8319  -54.0123 C.3       19 UNK        -0.1800 
    107 C         -8.3292  -22.4740  -54.9277 C.2       19 UNK         0.5000 
    108 O         -9.3196  -22.1727  -55.5945 O.2       19 UNK        -0.5000 
    109 N         -7.0871  -22.0499  -55.2013 N.am      20 UNK        -0.5000 
    110 CA        -6.7319  -21.1224  -56.2784 C.3       20 UNK         0.1400 
    111 CB        -5.2109  -21.1723  -56.4886 C.3       20 UNK        -0.1800 
    112 C         -7.1881  -19.6713  -56.0164 C.2       20 UNK         0.5000 
    113 O         -7.2656  -18.8864  -56.9620 O.2       20 UNK        -0.5000 
    114 N         -7.4675  -19.3494  -54.7449 N.am      21 UNK        -0.5000 
    115 CA        -7.8476  -18.0423  -54.2040 C.3       21 UNK         0.1400 
    116 CB        -9.2007  -17.5723  -54.7782 C.3       21 UNK        -0.1800 
    117 C         -6.7214  -16.9964  -54.3412 C.2       21 UNK         0.5000 
    118 O         -6.9855  -15.8390  -54.6743 O.2       21 UNK        -0.5000 
    119 N         -5.4808  -17.4269  -54.0782 N.am      22 UNK        -0.5000 
    120 CA        -4.3000  -16.5566  -54.0026 C.3       22 UNK         0.1400 
    121 C         -4.2780  -15.7533  -52.6704 C.2       22 UNK         0.5000 
    122 N         -3.9101  -14.4795  -52.7090 N.am      22 UNK        -0.7600 
    123 O         -4.5754  -16.2792  -51.6004 O.2       22 UNK        -0.5000 
    124 C124       -2.9929  -17.3611  -54.2282 C.3       23 UNK        -0.0398 
    125 S125       -1.6066  -16.2847  -54.7463 S.3       23 UNK        -0.2404 
    126 C126       -0.1466  -17.0649  -53.9687 C.3       23 UNK        -0.0205 
    127 H127        4.5641  -16.7443  -52.3694 H         1 UNK         0.0600 
    128 H128        3.1691  -17.7259  -51.9103 H         1 UNK         0.0600 
    129 H129        2.9891  -16.4453  -53.1115 H         1 UNK         0.0600 
    130 H130        2.4019  -17.1692  -49.9162 H         1 UNK         0.3000 
    131 H131        1.7873  -16.1470  -48.1282 H         1 UNK         0.0600 
    132 H132        0.7992  -14.3720  -50.1882 H         1 UNK         0.0800 
    133 H133        1.3541  -13.3355  -48.9345 H         1 UNK         0.0800 
    134 H134       -2.4637  -15.8160  -48.8910 H         1 UNK         0.0800 
    135 H135       -1.9698  -14.5823  -50.0195 H         1 UNK         0.0800 
    136 H136       -1.1301  -15.3307  -52.0727 H         1 UNK         0.1150 
    137 H137        0.6304  -19.2085  -52.5048 H         1 UNK         0.1150 
    138 H138       -0.6918  -17.8667  -48.6509 H         1 UNK         0.1150 
    139 H139       -0.3668  -20.4145  -49.3396 H         1 UNK         0.0800 
    140 H140        0.6293  -20.7353  -50.7241 H         1 UNK         0.0800 
    141 H141        0.4330  -19.2291  -47.2065 H         1 UNK         0.0800 
    142 H142        2.0721  -19.2870  -46.6530 H         1 UNK         0.0800 
    143 H143        1.9163  -21.8950  -46.9287 H         1 UNK         0.0600 
    144 H144        0.3768  -20.7156  -44.6647 H         1 UNK         0.3000 
    145 H145        2.3616  -22.4177  -42.3689 H         1 UNK         0.0600 
    146 H146        2.9924  -20.2814  -41.2768 H         1 UNK         0.0600 
    147 H147        2.7256  -19.4093  -42.7823 H         1 UNK         0.0600 
    148 H148        4.0254  -20.5871  -42.6650 H         1 UNK         0.0600 
    149 H149        0.5542  -20.2315  -41.9899 H         1 UNK         0.3000 
    150 H150       -2.3691  -22.3343  -41.8112 H         1 UNK         0.0600 
    151 H151       -1.1423  -22.5555  -39.6592 H         1 UNK         0.0600 
    152 H152       -2.3717  -21.3047  -39.5546 H         1 UNK         0.0600 
    153 H153       -0.6751  -20.8592  -39.7262 H         1 UNK         0.0600 
    154 H154       -1.3523  -19.5131  -41.7784 H         1 UNK         0.3000 
    155 H155       -3.6717  -18.5500  -44.2623 H         1 UNK         0.0600 
    156 H156       -5.0734  -18.2858  -42.2058 H         1 UNK         0.0600 
    157 H157       -4.3075  -16.7707  -42.6564 H         1 UNK         0.0600 
    158 H158       -3.6692  -17.7159  -41.3108 H         1 UNK         0.0600 
    159 H159       -1.7741  -17.0503  -42.7653 H         1 UNK         0.3000 
    160 H160        1.1806  -18.1939  -44.1600 H         1 UNK         0.0600 
    161 H161       -0.1665  -15.6884  -45.2702 H         1 UNK         0.0600 
    162 H162        0.5559  -16.9795  -46.2121 H         1 UNK         0.0600 
    163 H163        1.5746  -15.9576  -45.2110 H         1 UNK         0.0600 
    164 H164        0.7370  -15.7258  -42.8670 H         1 UNK         0.3000 
    165 H165        0.2629  -16.6886  -39.6129 H         1 UNK         0.0600 
    166 H166        2.5948  -16.3483  -38.8877 H         1 UNK         0.0600 
    167 H167        2.4189  -17.9439  -39.5995 H         1 UNK         0.0600 
    168 H168        3.1868  -16.6548  -40.5166 H         1 UNK         0.0600 
    169 H169        1.8959  -14.6322  -40.9540 H         1 UNK         0.3000 
    170 H170       -0.8180  -12.4495  -41.4810 H         1 UNK         0.0600 
    171 H171        1.2087  -12.1743  -39.1964 H         1 UNK         0.0600 
    172 H172        0.3219  -10.8552  -39.9624 H         1 UNK         0.0600 
    173 H173       -0.5390  -12.0646  -39.0247 H         1 UNK         0.0600 
    174 H174        1.9617  -11.9295  -41.5540 H         1 UNK         0.3000 
    175 H175        2.1994  -12.2493  -44.9220 H         1 UNK         0.0600 
    176 H176        3.8715  -11.8330  -42.3782 H         1 UNK         0.0600 
    177 H177        4.2609  -11.2529  -43.9908 H         1 UNK         0.0600 
    178 H178        2.8590  -10.6149  -43.1547 H         1 UNK         0.0600 
    179 H179        3.5275  -13.9633  -45.2675 H         1 UNK         0.3000 
    180 H180        5.8052  -15.6938  -43.4856 H         1 UNK         0.0600 
    181 H181        4.9601  -17.9637  -43.9385 H         1 UNK         0.0600 
    182 H182        3.3224  -17.3533  -44.1378 H         1 UNK         0.0600 
    183 H183        4.1074  -17.2879  -42.5643 H         1 UNK         0.0600 
    184 H184        4.4501  -16.3115  -45.9915 H         1 UNK         0.3000 
    185 H185        5.9785  -13.8509  -47.9181 H         1 UNK         0.0600 
    186 H186        7.0327  -15.6637  -49.2375 H         1 UNK         0.0600 
    187 H187        7.9469  -15.3895  -47.7639 H         1 UNK         0.0600 
    188 H188        6.8777  -16.7820  -47.8816 H         1 UNK         0.0600 
    189 H189        4.6372  -16.1363  -48.8098 H         1 UNK         0.3000 
    190 H190       -1.2669  -20.3458  -46.2496 H         1 UNK         0.3000 
    191 H191       -2.4745  -21.5667  -48.4641 H         1 UNK         0.0600 
    192 H192       -3.1546  -19.3877  -47.4842 H         1 UNK         0.0600 
    193 H193       -3.7661  -20.2081  -46.0475 H         1 UNK         0.0600 
    194 H194       -4.5335  -20.4693  -47.6090 H         1 UNK         0.0600 
    195 H195       -2.2636  -22.8221  -45.1945 H         1 UNK         0.3000 
    196 H196       -4.4308  -24.7563  -45.5404 H         1 UNK         0.0600 
    197 H197       -3.8345  -23.8058  -43.3011 H         1 UNK         0.0600 
    198 H198       -2.2570  -24.5926  -43.3958 H         1 UNK         0.0600 
    199 H199       -3.7215  -25.5589  -43.3299 H         1 UNK         0.0600 
    200 H200       -1.0583  -24.6116  -46.4028 H         1 UNK         0.3000 
    201 H201       -0.7895  -27.5751  -46.6198 H         1 UNK         0.0600 
    202 H202        1.0129  -26.3934  -45.3981 H         1 UNK         0.0600 
    203 H203        1.2937  -25.3321  -46.7759 H         1 UNK         0.0600 
    204 H204        1.6250  -27.0557  -46.9061 H         1 UNK         0.0600 
    205 H205       -0.4669  -24.5270  -48.4869 H         1 UNK         0.3000 
    206 H206        0.0436  -25.8480  -51.0175 H         1 UNK         0.0600 
    207 H207       -0.6344  -22.9327  -50.3220 H         1 UNK         0.0600 
    208 H208        0.9914  -23.6054  -50.3709 H         1 UNK         0.0600 
    209 H209        0.0481  -23.4933  -51.8457 H         1 UNK         0.0600 
    210 H210       -1.2616  -25.3223  -52.9576 H         1 UNK         0.3000 
    211 H211       -4.1216  -25.7947  -52.6693 H         1 UNK         0.0600 
    212 H212       -2.3907  -25.2010  -55.1304 H         1 UNK         0.0600 
    213 H213       -4.0551  -25.7704  -55.1553 H         1 UNK         0.0600 
    214 H214       -2.7899  -26.8070  -54.5187 H         1 UNK         0.0600 
    215 H215       -2.3397  -23.0605  -52.2385 H         1 UNK         0.3000 
    216 H216       -3.3619  -20.9776  -53.7011 H         1 UNK         0.0600 
    217 H217       -2.6105  -19.5821  -51.7254 H         1 UNK         0.0600 
    218 H218       -1.4276  -20.7842  -52.2250 H         1 UNK         0.0600 
    219 H219       -2.4195  -21.0554  -50.7924 H         1 UNK         0.0600 
    220 H220       -4.9041  -22.4851  -50.8668 H         1 UNK         0.3000 
    221 H221       -6.9284  -20.4779  -50.4888 H         1 UNK         0.0600 
    222 H222       -6.7827  -23.4101  -49.6082 H         1 UNK         0.0600 
    223 H223       -6.2749  -22.0057  -48.6716 H         1 UNK         0.0600 
    224 H224       -7.9738  -22.2436  -49.0424 H         1 UNK         0.0600 
    225 H225       -6.6909  -23.3441  -52.5673 H         1 UNK         0.3000 
    226 H226       -9.5288  -23.2865  -53.3475 H         1 UNK         0.0600 
    227 H227       -8.3473  -25.4675  -53.1385 H         1 UNK         0.0600 
    228 H228       -8.8773  -25.1926  -54.7907 H         1 UNK         0.0600 
    229 H229       -7.1841  -24.9784  -54.3695 H         1 UNK         0.0600 
    230 H230       -6.3221  -22.4119  -54.6390 H         1 UNK         0.3000 
    231 H231       -7.2172  -21.4619  -57.1958 H         1 UNK         0.0600 
    232 H232       -4.9137  -20.5572  -57.3388 H         1 UNK         0.0600 
    233 H233       -4.8704  -22.1890  -56.6864 H         1 UNK         0.0600 
    234 H234       -4.6757  -20.8024  -55.6148 H         1 UNK         0.0600 
    235 H235       -7.2899  -20.0605  -54.0483 H         1 UNK         0.3000 
    236 H236       -7.9852  -18.1932  -53.1322 H         1 UNK         0.0600 
    237 H237       -9.1328  -17.3343  -55.8400 H         1 UNK         0.0600 
    238 H238       -9.9676  -18.3368  -54.6536 H         1 UNK         0.0600 
    239 H239       -9.5507  -16.6757  -54.2655 H         1 UNK         0.0600 
    240 H240       -5.3742  -18.3718  -53.7193 H         1 UNK         0.3000 
    241 H241       -4.3866  -15.8414  -54.8236 H         1 UNK         0.0600 
    242 H242       -3.6503  -14.0337  -53.5752 H         1 UNK         0.3800 
    243 H243       -3.8996  -13.9465  -51.8545 H         1 UNK         0.3800 
    244 H244       -3.1382  -18.0965  -55.0207 H         1 UNK         0.0800 
    245 H245       -2.7312  -17.9291  -53.3364 H         1 UNK         0.0800 
    246 H246        0.7285  -16.4501  -54.1801 H         1 UNK         0.0800 
    247 H247        0.0247  -18.0243  -54.4593 H         1 UNK         0.0800 
@<TRIPOS>BOND
     1    1    2 1    
     2    1  127 1    
     3    1  128 1    
     4    1  129 1    
     5    2    3 2    
     6    2    4 am   BACKBONE|DICT|INTERRES
     7    4    5 1    
     8    4  130 1    
     9    5    6 1    
    10    5   65 1    
    11    5  131 1    
    12    6    7 1    
    13    6  132 1    
    14    6  133 1    
    15    7    8 1    
    16    8    9 1    
    17    8  134 1    
    18    8  135 1    
    19    9   10 ar   
    20    9   14 ar   
    21   10   11 ar   
    22   10  136 1    
    23   11   12 ar   
    24   11  126 1    
    25   12   13 ar   
    26   12  137 1    
    27   13   14 ar   
    28   13   15 1    
    29   14  138 1    
    30   15   16 1    
    31   15  139 1    
    32   15  140 1    
    33   16   17 1    
    34   17   18 1    
    35   17  141 1    
    36   17  142 1    
    37   18   19 1    
    38   18   67 1    
    39   18  143 1    
    40   19   20 am   BACKBONE|DICT|INTERRES
    41   19  144 1    
    42   20   21 2    
    43   20   22 1    
    44   22   23 1    
    45   22   24 1    
    46   22  145 1    
    47   23  146 1    
    48   23  147 1    
    49   23  148 1    
    50   24   25 am   BACKBONE|DICT|INTERRES
    51   24  149 1    
    52   25   26 2    
    53   25   27 1    
    54   27   28 1    
    55   27   29 1    
    56   27  150 1    
    57   28  151 1    
    58   28  152 1    
    59   28  153 1    
    60   29   30 am   BACKBONE|DICT|INTERRES
    61   29  154 1    
    62   30   31 2    
    63   30   32 1    
    64   32   33 1    
    65   32   34 1    
    66   32  155 1    
    67   33  156 1    
    68   33  157 1    
    69   33  158 1    
    70   34   35 am   BACKBONE|DICT|INTERRES
    71   34  159 1    
    72   35   36 2    
    73   35   37 1    
    74   37   38 1    
    75   37   39 1    
    76   37  160 1    
    77   38  161 1    
    78   38  162 1    
    79   38  163 1    
    80   39   40 am   BACKBONE|DICT|INTERRES
    81   39  164 1    
    82   40   41 2    
    83   40   42 1    
    84   42   43 1    
    85   42   44 1    
    86   42  165 1    
    87   43  166 1    
    88   43  167 1    
    89   43  168 1    
    90   44   45 am   BACKBONE|DICT|INTERRES
    91   44  169 1    
    92   45   46 2    
    93   45   47 1    
    94   47   48 1    
    95   47   49 1    
    96   47  170 1    
    97   48  171 1    
    98   48  172 1    
    99   48  173 1    
   100   49   50 am   BACKBONE|DICT|INTERRES
   101   49  174 1    
   102   50   51 2    
   103   50   52 1    
   104   52   53 1    
   105   52   54 1    
   106   52  175 1    
   107   53  176 1    
   108   53  177 1    
   109   53  178 1    
   110   54   55 am   BACKBONE|DICT|INTERRES
   111   54  179 1    
   112   55   56 2    
   113   55   57 1    
   114   57   58 1    
   115   57   59 1    
   116   57  180 1    
   117   58  181 1    
   118   58  182 1    
   119   58  183 1    
   120   59   60 am   BACKBONE|DICT|INTERRES
   121   59  184 1    
   122   60   61 2    
   123   60   62 1    
   124   62   63 1    
   125   62   64 1    
   126   62  185 1    
   127   63  186 1    
   128   63  187 1    
   129   63  188 1    
   130   64   65 am   BACKBONE|DICT|INTERRES
   131   64  189 1    
   132   65   66 2    
   133   67   68 2    
   134   67   69 am   BACKBONE|DICT|INTERRES
   135   69   70 1    
   136   69  190 1    
   137   70   71 1    
   138   70   72 1    
   139   70  191 1    
   140   71  192 1    
   141   71  193 1    
   142   71  194 1    
   143   72   73 2    
   144   72   74 am   BACKBONE|DICT|INTERRES
   145   74   75 1    
   146   74  195 1    
   147   75   76 1    
   148   75   77 1    
   149   75  196 1    
   150   76  197 1    
   151   76  198 1    
   152   76  199 1    
   153   77   78 2    
   154   77   79 am   BACKBONE|DICT|INTERRES
   155   79   80 1    
   156   79  200 1    
   157   80   81 1    
   158   80   82 1    
   159   80  201 1    
   160   81  202 1    
   161   81  203 1    
   162   81  204 1    
   163   82   83 2    
   164   82   84 am   BACKBONE|DICT|INTERRES
   165   84   85 1    
   166   84  205 1    
   167   85   86 1    
   168   85   87 1    
   169   85  206 1    
   170   86  207 1    
   171   86  208 1    
   172   86  209 1    
   173   87   88 2    
   174   87   89 am   BACKBONE|DICT|INTERRES
   175   89   90 1    
   176   89  210 1    
   177   90   91 1    
   178   90   92 1    
   179   90  211 1    
   180   91  212 1    
   181   91  213 1    
   182   91  214 1    
   183   92   93 2    
   184   92   94 am   BACKBONE|DICT|INTERRES
   185   94   95 1    
   186   94  215 1    
   187   95   96 1    
   188   95   97 1    
   189   95  216 1    
   190   96  217 1    
   191   96  218 1    
   192   96  219 1    
   193   97   98 2    
   194   97   99 am   BACKBONE|DICT|INTERRES
   195   99  100 1    
   196   99  220 1    
   197  100  101 1    
   198  100  102 1    
   199  100  221 1    
   200  101  222 1    
   201  101  223 1    
   202  101  224 1    
   203  102  103 2    
   204  102  104 am   BACKBONE|DICT|INTERRES
   205  104  105 1    
   206  104  225 1    
   207  105  106 1    
   208  105  107 1    
   209  105  226 1    
   210  106  227 1    
   211  106  228 1    
   212  106  229 1    
   213  107  108 2    
   214  107  109 am   BACKBONE|DICT|INTERRES
   215  109  110 1    
   216  109  230 1    
   217  110  111 1    
   218  110  112 1    
   219  110  231 1    
   220  111  232 1    
   221  111  233 1    
   222  111  234 1    
   223  112  113 2    
   224  112  114 am   BACKBONE|DICT|INTERRES
   225  114  115 1    
   226  114  235 1    
   227  115  116 1    
   228  115  117 1    
   229  115  236 1    
   230  116  237 1    
   231  116  238 1    
   232  116  239 1    
   233  117  118 2    
   234  117  119 am   BACKBONE|DICT|INTERRES
   235  119  120 1    
   236  119  240 1    
   237  120  121 1    
   238  120  124 1    
   239  120  241 1    
   240  121  122 am   BACKBONE|DICT|INTERRES
   241  121  123 2    
   242  122  242 1    
   243  122  243 1    
   244  124  125 1    
   245  124  244 1    
   246  124  245 1    
   247  125  126 1    
   248  126  246 1    
   249  126  247 1    
@<TRIPOS>SUBSTRUCTURE
     1 UNK         1 GROUP             0       ****    0 ROOT    
