@<TRIPOS>MOLECULE
3R540
247   249    1
SMALL
USER_CHARGES


@<TRIPOS>ATOM
      1 CA          2.2471   -9.1864  -49.0165 C.3       0 UNK        -0.1800 
      2 C           2.0229  -10.5574  -48.3967 C.2       0 UNK         0.5000 
      3 O           1.0704  -10.7386  -47.6393 O.2       0 UNK        -0.5000 
      4 N           2.8818  -11.5303  -48.7264 N.am      1 UNK        -0.5000 
      5 CA          2.8209  -12.9142  -48.2366 C.3       1 UNK         0.1400 
      6 C6          4.0737  -13.7356  -48.6321 C.3       23 UNK        -0.0398 
      7 S7          4.4217  -13.7324  -50.4270 S.3       23 UNK        -0.2404 
      8 C8          5.5191  -15.1750  -50.5873 C.3       23 UNK        -0.0205 
      9 C9          4.7901  -16.4991  -50.3984 C.ar      23 UNK        -0.0193 
     10 C10         3.7897  -16.8861  -51.2929 C.ar      23 UNK        -0.1150 
     11 C11         3.1495  -18.1220  -51.1600 C.ar      23 UNK        -0.0193 
     12 C12         3.5348  -18.9855  -50.1268 C.ar      23 UNK        -0.1150 
     13 C13         4.5446  -18.6160  -49.2274 C.ar      23 UNK        -0.0193 
     14 C14         5.1549  -17.3644  -49.3639 C.ar      23 UNK        -0.1150 
     15 C15         5.0459  -19.5793  -48.1531 C.3       23 UNK        -0.0205 
     16 S16         3.7789  -20.0200  -46.9193 S.3       23 UNK        -0.2404 
     17 C17         3.0418  -21.5154  -47.6623 C.3       23 UNK        -0.0398 
     18 CA          2.9704  -22.7246  -46.6948 C.3       11 UNK         0.1400 
     19 N           2.2057  -22.4356  -45.4762 N.am      11 UNK        -0.5000 
     20 C           2.2935  -23.1388  -44.3372 C.2       10 UNK         0.5000 
     21 O           3.0467  -24.1033  -44.1971 O.2       10 UNK        -0.5000 
     22 CA          1.4250  -22.6949  -43.1406 C.3       10 UNK         0.1400 
     23 CB          2.2845  -21.9575  -42.1020 C.3       10 UNK        -0.1800 
     24 N           0.3047  -21.8354  -43.5247 N.am      10 UNK        -0.5000 
     25 C          -0.8562  -22.2852  -44.0250 C.2       9 UNK         0.5000 
     26 O          -1.1303  -23.4799  -44.1299 O.2       9 UNK        -0.5000 
     27 CA         -1.8824  -21.2399  -44.5179 C.3       9 UNK         0.1400 
     28 CB         -2.9720  -21.0186  -43.4577 C.3       9 UNK        -0.1800 
     29 N          -1.3096  -19.9421  -44.8834 N.am      9 UNK        -0.5000 
     30 C          -0.3259  -19.7481  -45.7715 C.2       8 UNK         0.5000 
     31 O           0.1648  -20.6572  -46.4347 O.2       8 UNK        -0.5000 
     32 CA          0.2623  -18.3308  -45.8857 C.3       8 UNK         0.1400 
     33 CB         -0.4011  -17.5708  -47.0378 C.3       8 UNK        -0.1800 
     34 N           0.1483  -17.5484  -44.6528 N.am      8 UNK        -0.5000 
     35 C           0.6962  -17.8772  -43.4729 C.2       7 UNK         0.5000 
     36 O           1.3518  -18.9018  -43.2834 O.2       7 UNK        -0.5000 
     37 CA          0.4200  -16.9246  -42.2995 C.3       7 UNK         0.1400 
     38 CB          1.3446  -15.6982  -42.3559 C.3       7 UNK        -0.1800 
     39 N          -0.9767  -16.4922  -42.3085 N.am      7 UNK        -0.5000 
     40 C          -1.9831  -17.1894  -41.7632 C.2       6 UNK         0.5000 
     41 O          -1.8235  -18.2184  -41.1064 O.2       6 UNK        -0.5000 
     42 CA         -3.4124  -16.6620  -41.9982 C.3       6 UNK         0.1400 
     43 CB         -3.8383  -15.7331  -40.8513 C.3       6 UNK        -0.1800 
     44 N          -3.5714  -15.9544  -43.2698 N.am      6 UNK        -0.5000 
     45 C          -3.4930  -16.5293  -44.4778 C.2       5 UNK         0.5000 
     46 O          -3.2944  -17.7308  -44.6526 O.2       5 UNK        -0.5000 
     47 CA         -3.6158  -15.5954  -45.6964 C.3       5 UNK         0.1400 
     48 CB         -5.0891  -15.4255  -46.0918 C.3       5 UNK        -0.1800 
     49 N          -3.0111  -14.2719  -45.5190 N.am      5 UNK        -0.5000 
     50 C          -1.7476  -14.0164  -45.1538 C.2       4 UNK         0.5000 
     51 O          -0.9535  -14.8921  -44.8077 O.2       4 UNK        -0.5000 
     52 CA         -1.3110  -12.5358  -45.1855 C.3       4 UNK         0.1400 
     53 CB          0.1255  -12.3353  -44.6702 C.3       4 UNK        -0.1800 
     54 N          -1.4042  -11.9771  -46.5338 N.am      4 UNK        -0.5000 
     55 C          -2.5314  -11.6300  -47.1693 C.2       3 UNK         0.5000 
     56 O          -3.6472  -11.6707  -46.6484 O.2       3 UNK        -0.5000 
     57 CA         -2.3937  -11.2144  -48.6445 C.3       3 UNK         0.1400 
     58 CB         -2.1043   -9.7107  -48.7692 C.3       3 UNK        -0.1800 
     59 N          -1.3489  -11.9761  -49.3314 N.am      3 UNK        -0.5000 
     60 C          -1.4733  -13.2567  -49.7111 C.2       2 UNK         0.5000 
     61 O          -2.5055  -13.9113  -49.5693 O.2       2 UNK        -0.5000 
     62 CA         -0.2408  -13.9153  -50.3603 C.3       2 UNK         0.1400 
     63 CB         -0.2753  -13.7318  -51.8848 C.3       2 UNK        -0.1800 
     64 N           1.0218  -13.3817  -49.8486 N.am      2 UNK        -0.5000 
     65 C           1.5130  -13.6356  -48.6276 C.2       1 UNK         0.5000 
     66 O           0.9594  -14.3622  -47.8065 O.2       1 UNK        -0.5000 
     67 C           2.3867  -23.9388  -47.4432 C.2       11 UNK         0.5000 
     68 O           3.1455  -24.7517  -47.9735 O.2       11 UNK        -0.5000 
     69 N           1.0517  -24.0173  -47.4952 N.am      12 UNK        -0.5000 
     70 CA          0.3036  -25.0578  -48.1957 C.3       12 UNK         0.1400 
     71 CB         -0.9792  -24.4320  -48.7714 C.3       12 UNK        -0.1800 
     72 C          -0.0384  -26.2441  -47.2797 C.2       12 UNK         0.5000 
     73 O           0.0743  -26.1523  -46.0551 O.2       12 UNK        -0.5000 
     74 N          -0.4957  -27.3302  -47.9131 N.am      13 UNK        -0.5000 
     75 CA         -1.1526  -28.4669  -47.2699 C.3       13 UNK         0.1400 
     76 CB         -0.9849  -29.6973  -48.1815 C.3       13 UNK        -0.1800 
     77 C          -2.6407  -28.1534  -46.9912 C.2       13 UNK         0.5000 
     78 O          -3.0751  -27.0072  -47.1369 O.2       13 UNK        -0.5000 
     79 N          -3.4156  -29.1881  -46.6356 N.am      14 UNK        -0.5000 
     80 CA         -4.8462  -29.1301  -46.2999 C.3       14 UNK         0.1400 
     81 CB         -5.3160  -30.5401  -45.9089 C.3       14 UNK        -0.1800 
     82 C          -5.7679  -28.5404  -47.3920 C.2       14 UNK         0.5000 
     83 O          -6.8848  -28.1278  -47.0772 O.2       14 UNK        -0.5000 
     84 N          -5.2851  -28.4858  -48.6418 N.am      15 UNK        -0.5000 
     85 CA         -5.9234  -27.7986  -49.7668 C.3       15 UNK         0.1400 
     86 CB         -5.1693  -28.1564  -51.0570 C.3       15 UNK        -0.1800 
     87 C          -5.9916  -26.2650  -49.5965 C.2       15 UNK         0.5000 
     88 O          -6.8723  -25.6394  -50.1874 O.2       15 UNK        -0.5000 
     89 N          -5.0719  -25.6954  -48.7982 N.am      16 UNK        -0.5000 
     90 CA         -4.9830  -24.2837  -48.4043 C.3       16 UNK         0.1400 
     91 CB         -6.1733  -23.9040  -47.5002 C.3       16 UNK        -0.1800 
     92 C          -4.7936  -23.3065  -49.5859 C.2       16 UNK         0.5000 
     93 O          -5.2411  -22.1608  -49.5180 O.2       16 UNK        -0.5000 
     94 N          -4.1109  -23.7649  -50.6454 N.am      17 UNK        -0.5000 
     95 CA         -3.8930  -23.0254  -51.8937 C.3       17 UNK         0.1400 
     96 CB         -3.1630  -23.9337  -52.8939 C.3       17 UNK        -0.1800 
     97 C          -3.1309  -21.6980  -51.7152 C.2       17 UNK         0.5000 
     98 O          -3.4272  -20.7274  -52.4096 O.2       17 UNK        -0.5000 
     99 N          -2.1846  -21.6717  -50.7679 N.am      18 UNK        -0.5000 
    100 CA        -1.4202  -20.4812  -50.3988 C.3       18 UNK         0.1400 
    101 CB        -0.1940  -20.8938  -49.5825 C.3       18 UNK        -0.1800 
    102 C         -2.2735  -19.4340  -49.6606 C.2       18 UNK         0.5000 
    103 O         -2.1302  -18.2428  -49.9305 O.2       18 UNK        -0.5000 
    104 N         -3.1831  -19.8928  -48.7868 N.am      19 UNK        -0.5000 
    105 CA        -4.1549  -19.0412  -48.0944 C.3       19 UNK         0.1400 
    106 CB        -4.8343  -19.8259  -46.9650 C.3       19 UNK        -0.1800 
    107 C         -5.1960  -18.4453  -49.0586 C.2       19 UNK         0.5000 
    108 O         -5.6102  -17.3013  -48.8751 O.2       19 UNK        -0.5000 
    109 N         -5.5407  -19.1927  -50.1161 N.am      20 UNK        -0.5000 
    110 CA        -6.3505  -18.7528  -51.2552 C.3       20 UNK         0.1400 
    111 CB        -6.9458  -19.9939  -51.9438 C.3       20 UNK        -0.1800 
    112 C         -5.5578  -17.8480  -52.2311 C.2       20 UNK         0.5000 
    113 O         -5.5804  -18.0693  -53.4442 O.2       20 UNK        -0.5000 
    114 N         -4.8556  -16.8496  -51.6747 N.am      21 UNK        -0.5000 
    115 CA        -4.0474  -15.8182  -52.3357 C.3       21 UNK         0.1400 
    116 CB        -4.9685  -14.7992  -53.0364 C.3       21 UNK        -0.1800 
    117 C         -2.9473  -16.3645  -53.2723 C.2       21 UNK         0.5000 
    118 O         -2.5858  -15.6968  -54.2432 O.2       21 UNK        -0.5000 
    119 N         -2.4460  -17.5700  -52.9742 N.am      22 UNK        -0.5000 
    120 CA        -1.4841  -18.3321  -53.7893 C.3       22 UNK         0.1400 
    121 C         -2.0192  -18.7397  -55.1983 C.2       22 UNK         0.5000 
    122 N         -3.3289  -18.7862  -55.4194 N.am      22 UNK        -0.7600 
    123 O         -1.2432  -19.0478  -56.0993 O.2       22 UNK        -0.5000 
    124 C124       -0.0689  -17.6869  -53.8236 C.3       23 UNK        -0.0398 
    125 S125        0.6474  -17.4234  -52.1580 S.3       23 UNK        -0.2404 
    126 C126        2.0931  -18.5351  -52.1787 C.3       23 UNK        -0.0205 
    127 H127        1.3714   -8.8885  -49.5930 H         1 UNK         0.0600 
    128 H128        3.1119   -9.1780  -49.6804 H         1 UNK         0.0600 
    129 H129        2.4100   -8.4449  -48.2345 H         1 UNK         0.0600 
    130 H130        3.6382  -11.3315  -49.3664 H         1 UNK         0.3000 
    131 H131        2.8155  -12.8527  -47.1460 H         1 UNK         0.0600 
    132 H132        3.9788  -14.7638  -48.2780 H         1 UNK         0.0800 
    133 H133        4.9486  -13.3291  -48.1232 H         1 UNK         0.0800 
    134 H134        6.3449  -15.0764  -49.8810 H         1 UNK         0.0800 
    135 H135        5.9668  -15.1630  -51.5819 H         1 UNK         0.0800 
    136 H136        3.5123  -16.2247  -52.1019 H         1 UNK         0.1150 
    137 H137        3.0654  -19.9539  -50.0390 H         1 UNK         0.1150 
    138 H138        5.9438  -17.0762  -48.6833 H         1 UNK         0.1150 
    139 H139        5.4521  -20.4739  -48.6261 H         1 UNK         0.0800 
    140 H140        5.8822  -19.1329  -47.6132 H         1 UNK         0.0800 
    141 H141        3.6108  -21.7932  -48.5507 H         1 UNK         0.0800 
    142 H142        2.0507  -21.2499  -48.0235 H         1 UNK         0.0800 
    143 H143        3.9922  -22.9778  -46.4037 H         1 UNK         0.0600 
    144 H144        1.5402  -21.6722  -45.5451 H         1 UNK         0.3000 
    145 H145        1.0308  -23.5974  -42.6686 H         1 UNK         0.0600 
    146 H146        2.7555  -21.0705  -42.5268 H         1 UNK         0.0600 
    147 H147        1.6886  -21.6442  -41.2446 H         1 UNK         0.0600 
    148 H148        3.0808  -22.6016  -41.7269 H         1 UNK         0.0600 
    149 H149        0.4679  -20.8355  -43.4767 H         1 UNK         0.3000 
    150 H150       -2.3501  -21.6518  -45.4139 H         1 UNK         0.0600 
    151 H151       -3.4490  -21.9601  -43.1826 H         1 UNK         0.0600 
    152 H152       -3.7547  -20.3543  -43.8237 H         1 UNK         0.0600 
    153 H153       -2.5602  -20.5796  -42.5481 H         1 UNK         0.0600 
    154 H154       -1.7157  -19.1272  -44.4383 H         1 UNK         0.3000 
    155 H155        1.3262  -18.4264  -46.1083 H         1 UNK         0.0600 
    156 H156       -0.1152  -17.9971  -47.9990 H         1 UNK         0.0600 
    157 H157       -1.4859  -17.6098  -46.9689 H         1 UNK         0.0600 
    158 H158       -0.1059  -16.5242  -47.0477 H         1 UNK         0.0600 
    159 H159       -0.3430  -16.6608  -44.7249 H         1 UNK         0.3000 
    160 H160        0.6301  -17.4594  -41.3707 H         1 UNK         0.0600 
    161 H161        1.1571  -15.0249  -41.5194 H         1 UNK         0.0600 
    162 H162        2.3913  -16.0001  -42.3027 H         1 UNK         0.0600 
    163 H163        1.2160  -15.1307  -43.2778 H         1 UNK         0.0600 
    164 H164       -1.1945  -15.6970  -42.8967 H         1 UNK         0.3000 
    165 H165       -4.0827  -17.5242  -42.0070 H         1 UNK         0.0600 
    166 H166       -4.8756  -15.4171  -40.9636 H         1 UNK         0.0600 
    167 H167       -3.7564  -16.2389  -39.8883 H         1 UNK         0.0600 
    168 H168       -3.2164  -14.8381  -40.8060 H         1 UNK         0.0600 
    169 H169       -3.7296  -14.9586  -43.2223 H         1 UNK         0.3000 
    170 H170       -3.0987  -16.0701  -46.5301 H         1 UNK         0.0600 
    171 H171       -5.5733  -16.3939  -46.2251 H         1 UNK         0.0600 
    172 H172       -5.6501  -14.8791  -45.3328 H         1 UNK         0.0600 
    173 H173       -5.1830  -14.8860  -47.0346 H         1 UNK         0.0600 
    174 H174       -3.5698  -13.4778  -45.8151 H         1 UNK         0.3000 
    175 H175       -1.9832  -11.9812  -44.5279 H         1 UNK         0.0600 
    176 H176        0.8506  -12.8683  -45.2868 H         1 UNK         0.0600 
    177 H177        0.4007  -11.2805  -44.6698 H         1 UNK         0.0600 
    178 H178        0.2303  -12.6996  -43.6475 H         1 UNK         0.0600 
    179 H179       -0.5268  -11.8723  -47.0319 H         1 UNK         0.3000 
    180 H180       -3.3477  -11.4149  -49.1371 H         1 UNK         0.0600 
    181 H181       -1.1689   -9.4339  -48.2827 H         1 UNK         0.0600 
    182 H182       -2.8984   -9.1236  -48.3062 H         1 UNK         0.0600 
    183 H183       -2.0424   -9.4060  -49.8140 H         1 UNK         0.0600 
    184 H184       -0.4543  -11.5222  -49.4425 H         1 UNK         0.3000 
    185 H185       -0.2800  -14.9853  -50.1423 H         1 UNK         0.0600 
    186 H186        0.5466  -14.2638  -52.3644 H         1 UNK         0.0600 
    187 H187       -1.2018  -14.1235  -52.3042 H         1 UNK         0.0600 
    188 H188       -0.2070  -12.6807  -52.1674 H         1 UNK         0.0600 
    189 H189        1.5506  -12.7807  -50.4637 H         1 UNK         0.3000 
    190 H190        0.5105  -23.3458  -46.9696 H         1 UNK         0.3000 
    191 H191        0.8980  -25.4406  -49.0283 H         1 UNK         0.0600 
    192 H192       -1.5541  -23.9128  -48.0036 H         1 UNK         0.0600 
    193 H193       -1.6316  -25.1834  -49.2179 H         1 UNK         0.0600 
    194 H194       -0.7321  -23.7221  -49.5579 H         1 UNK         0.0600 
    195 H195       -0.5646  -27.3018  -48.9195 H         1 UNK         0.3000 
    196 H196       -0.6677  -28.6718  -46.3133 H         1 UNK         0.0600 
    197 H197       -1.3437  -30.6072  -47.6995 H         1 UNK         0.0600 
    198 H198        0.0647  -29.8641  -48.4250 H         1 UNK         0.0600 
    199 H199       -1.5294  -29.5824  -49.1198 H         1 UNK         0.0600 
    200 H200       -2.9867  -30.0989  -46.5574 H         1 UNK         0.3000 
    201 H201       -4.9444  -28.4842  -45.4251 H         1 UNK         0.0600 
    202 H202       -4.7483  -30.9259  -45.0619 H         1 UNK         0.0600 
    203 H203       -5.2071  -31.2426  -46.7361 H         1 UNK         0.0600 
    204 H204       -6.3672  -30.5373  -45.6170 H         1 UNK         0.0600 
    205 H205       -4.3642  -28.8631  -48.8067 H         1 UNK         0.3000 
    206 H206       -6.9477  -28.1672  -49.8518 H         1 UNK         0.0600 
    207 H207       -5.1794  -29.2319  -51.2347 H         1 UNK         0.0600 
    208 H208       -5.6303  -27.6812  -51.9240 H         1 UNK         0.0600 
    209 H209       -4.1288  -27.8312  -51.0192 H         1 UNK         0.0600 
    210 H210       -4.3964  -26.3025  -48.3402 H         1 UNK         0.3000 
    211 H211       -4.0788  -24.2005  -47.8002 H         1 UNK         0.0600 
    212 H212       -7.1113  -23.8815  -48.0558 H         1 UNK         0.0600 
    213 H213       -6.0322  -22.9193  -47.0553 H         1 UNK         0.0600 
    214 H214       -6.2863  -24.6136  -46.6803 H         1 UNK         0.0600 
    215 H215       -3.7913  -24.7216  -50.6244 H         1 UNK         0.3000 
    216 H216       -4.8746  -22.7841  -52.3063 H         1 UNK         0.0600 
    217 H217       -3.0038  -23.4204  -53.8434 H         1 UNK         0.0600 
    218 H218       -2.1862  -24.2427  -52.5195 H         1 UNK         0.0600 
    219 H219       -3.7420  -24.8329  -53.1057 H         1 UNK         0.0600 
    220 H220       -2.0057  -22.5160  -50.2474 H         1 UNK         0.3000 
    221 H221       -1.0451  -20.0135  -51.3061 H         1 UNK         0.0600 
    222 H222       -0.4813  -21.4712  -48.7058 H         1 UNK         0.0600 
    223 H223        0.4880  -21.5030  -50.1757 H         1 UNK         0.0600 
    224 H224        0.3635  -20.0196  -49.2443 H         1 UNK         0.0600 
    225 H225       -3.2910  -20.8889  -48.6702 H         1 UNK         0.3000 
    226 H226       -3.6137  -18.2092  -47.6427 H         1 UNK         0.0600 
    227 H227       -4.0996  -20.2385  -46.2761 H         1 UNK         0.0600 
    228 H228       -5.4906  -19.1765  -46.3843 H         1 UNK         0.0600 
    229 H229       -5.4407  -20.6454  -47.3480 H         1 UNK         0.0600 
    230 H230       -5.1765  -20.1374  -50.1650 H         1 UNK         0.3000 
    231 H231       -7.1826  -18.1564  -50.8759 H         1 UNK         0.0600 
    232 H232       -7.6287  -19.7084  -52.7447 H         1 UNK         0.0600 
    233 H233       -7.5097  -20.6048  -51.2385 H         1 UNK         0.0600 
    234 H234       -6.1694  -20.6209  -52.3818 H         1 UNK         0.0600 
    235 H235       -4.9069  -16.7741  -50.6636 H         1 UNK         0.3000 
    236 H236       -3.5219  -15.2948  -51.5381 H         1 UNK         0.0600 
    237 H237       -4.3997  -13.9497  -53.4162 H         1 UNK         0.0600 
    238 H238       -5.7145  -14.4035  -52.3472 H         1 UNK         0.0600 
    239 H239       -5.4943  -15.2475  -53.8801 H         1 UNK         0.0600 
    240 H240       -2.7837  -18.0347  -52.1420 H         1 UNK         0.3000 
    241 H241       -1.3714  -19.2919  -53.2945 H         1 UNK         0.0600 
    242 H242       -3.6701  -19.0598  -56.3266 H         1 UNK         0.3800 
    243 H243       -3.9880  -18.5589  -54.6820 H         1 UNK         0.3800 
    244 H244       -0.1033  -16.7243  -54.3350 H         1 UNK         0.0800 
    245 H245        0.6129  -18.3067  -54.4070 H         1 UNK         0.0800 
    246 H246        2.5555  -18.5230  -53.1665 H         1 UNK         0.0800 
    247 H247        1.7570  -19.5581  -52.0033 H         1 UNK         0.0800 
@<TRIPOS>BOND
     1    1    2 1    
     2    1  127 1    
     3    1  128 1    
     4    1  129 1    
     5    2    3 2    
     6    2    4 am   BACKBONE|DICT|INTERRES
     7    4    5 1    
     8    4  130 1    
     9    5    6 1    
    10    5   65 1    
    11    5  131 1    
    12    6    7 1    
    13    6  132 1    
    14    6  133 1    
    15    7    8 1    
    16    8    9 1    
    17    8  134 1    
    18    8  135 1    
    19    9   10 ar   
    20    9   14 ar   
    21   10   11 ar   
    22   10  136 1    
    23   11   12 ar   
    24   11  126 1    
    25   12   13 ar   
    26   12  137 1    
    27   13   14 ar   
    28   13   15 1    
    29   14  138 1    
    30   15   16 1    
    31   15  139 1    
    32   15  140 1    
    33   16   17 1    
    34   17   18 1    
    35   17  141 1    
    36   17  142 1    
    37   18   19 1    
    38   18   67 1    
    39   18  143 1    
    40   19   20 am   BACKBONE|DICT|INTERRES
    41   19  144 1    
    42   20   21 2    
    43   20   22 1    
    44   22   23 1    
    45   22   24 1    
    46   22  145 1    
    47   23  146 1    
    48   23  147 1    
    49   23  148 1    
    50   24   25 am   BACKBONE|DICT|INTERRES
    51   24  149 1    
    52   25   26 2    
    53   25   27 1    
    54   27   28 1    
    55   27   29 1    
    56   27  150 1    
    57   28  151 1    
    58   28  152 1    
    59   28  153 1    
    60   29   30 am   BACKBONE|DICT|INTERRES
    61   29  154 1    
    62   30   31 2    
    63   30   32 1    
    64   32   33 1    
    65   32   34 1    
    66   32  155 1    
    67   33  156 1    
    68   33  157 1    
    69   33  158 1    
    70   34   35 am   BACKBONE|DICT|INTERRES
    71   34  159 1    
    72   35   36 2    
    73   35   37 1    
    74   37   38 1    
    75   37   39 1    
    76   37  160 1    
    77   38  161 1    
    78   38  162 1    
    79   38  163 1    
    80   39   40 am   BACKBONE|DICT|INTERRES
    81   39  164 1    
    82   40   41 2    
    83   40   42 1    
    84   42   43 1    
    85   42   44 1    
    86   42  165 1    
    87   43  166 1    
    88   43  167 1    
    89   43  168 1    
    90   44   45 am   BACKBONE|DICT|INTERRES
    91   44  169 1    
    92   45   46 2    
    93   45   47 1    
    94   47   48 1    
    95   47   49 1    
    96   47  170 1    
    97   48  171 1    
    98   48  172 1    
    99   48  173 1    
   100   49   50 am   BACKBONE|DICT|INTERRES
   101   49  174 1    
   102   50   51 2    
   103   50   52 1    
   104   52   53 1    
   105   52   54 1    
   106   52  175 1    
   107   53  176 1    
   108   53  177 1    
   109   53  178 1    
   110   54   55 am   BACKBONE|DICT|INTERRES
   111   54  179 1    
   112   55   56 2    
   113   55   57 1    
   114   57   58 1    
   115   57   59 1    
   116   57  180 1    
   117   58  181 1    
   118   58  182 1    
   119   58  183 1    
   120   59   60 am   BACKBONE|DICT|INTERRES
   121   59  184 1    
   122   60   61 2    
   123   60   62 1    
   124   62   63 1    
   125   62   64 1    
   126   62  185 1    
   127   63  186 1    
   128   63  187 1    
   129   63  188 1    
   130   64   65 am   BACKBONE|DICT|INTERRES
   131   64  189 1    
   132   65   66 2    
   133   67   68 2    
   134   67   69 am   BACKBONE|DICT|INTERRES
   135   69   70 1    
   136   69  190 1    
   137   70   71 1    
   138   70   72 1    
   139   70  191 1    
   140   71  192 1    
   141   71  193 1    
   142   71  194 1    
   143   72   73 2    
   144   72   74 am   BACKBONE|DICT|INTERRES
   145   74   75 1    
   146   74  195 1    
   147   75   76 1    
   148   75   77 1    
   149   75  196 1    
   150   76  197 1    
   151   76  198 1    
   152   76  199 1    
   153   77   78 2    
   154   77   79 am   BACKBONE|DICT|INTERRES
   155   79   80 1    
   156   79  200 1    
   157   80   81 1    
   158   80   82 1    
   159   80  201 1    
   160   81  202 1    
   161   81  203 1    
   162   81  204 1    
   163   82   83 2    
   164   82   84 am   BACKBONE|DICT|INTERRES
   165   84   85 1    
   166   84  205 1    
   167   85   86 1    
   168   85   87 1    
   169   85  206 1    
   170   86  207 1    
   171   86  208 1    
   172   86  209 1    
   173   87   88 2    
   174   87   89 am   BACKBONE|DICT|INTERRES
   175   89   90 1    
   176   89  210 1    
   177   90   91 1    
   178   90   92 1    
   179   90  211 1    
   180   91  212 1    
   181   91  213 1    
   182   91  214 1    
   183   92   93 2    
   184   92   94 am   BACKBONE|DICT|INTERRES
   185   94   95 1    
   186   94  215 1    
   187   95   96 1    
   188   95   97 1    
   189   95  216 1    
   190   96  217 1    
   191   96  218 1    
   192   96  219 1    
   193   97   98 2    
   194   97   99 am   BACKBONE|DICT|INTERRES
   195   99  100 1    
   196   99  220 1    
   197  100  101 1    
   198  100  102 1    
   199  100  221 1    
   200  101  222 1    
   201  101  223 1    
   202  101  224 1    
   203  102  103 2    
   204  102  104 am   BACKBONE|DICT|INTERRES
   205  104  105 1    
   206  104  225 1    
   207  105  106 1    
   208  105  107 1    
   209  105  226 1    
   210  106  227 1    
   211  106  228 1    
   212  106  229 1    
   213  107  108 2    
   214  107  109 am   BACKBONE|DICT|INTERRES
   215  109  110 1    
   216  109  230 1    
   217  110  111 1    
   218  110  112 1    
   219  110  231 1    
   220  111  232 1    
   221  111  233 1    
   222  111  234 1    
   223  112  113 2    
   224  112  114 am   BACKBONE|DICT|INTERRES
   225  114  115 1    
   226  114  235 1    
   227  115  116 1    
   228  115  117 1    
   229  115  236 1    
   230  116  237 1    
   231  116  238 1    
   232  116  239 1    
   233  117  118 2    
   234  117  119 am   BACKBONE|DICT|INTERRES
   235  119  120 1    
   236  119  240 1    
   237  120  121 1    
   238  120  124 1    
   239  120  241 1    
   240  121  122 am   BACKBONE|DICT|INTERRES
   241  121  123 2    
   242  122  242 1    
   243  122  243 1    
   244  124  125 1    
   245  124  244 1    
   246  124  245 1    
   247  125  126 1    
   248  126  246 1    
   249  126  247 1    
@<TRIPOS>SUBSTRUCTURE
     1 UNK         1 GROUP             0       ****    0 ROOT    
