@<TRIPOS>MOLECULE
3R540
247   249    1
SMALL
USER_CHARGES


@<TRIPOS>ATOM
      1 CA          7.4830  -11.6720  -49.2067 C.3       0 UNK        -0.1800 
      2 C           6.0540  -12.1847  -49.1026 C.2       0 UNK         0.5000 
      3 O           5.2258  -11.8635  -49.9538 O.2       0 UNK        -0.5000 
      4 N           5.7569  -12.9555  -48.0475 N.am      1 UNK        -0.5000 
      5 CA          4.4844  -13.6343  -47.7394 C.3       1 UNK         0.1400 
      6 C6          4.0227  -14.6422  -48.8230 C.3       23 UNK        -0.0398 
      7 S7          5.2612  -15.9530  -49.1223 S.3       23 UNK        -0.2404 
      8 C8          4.6244  -17.3139  -48.0829 C.3       23 UNK        -0.0205 
      9 C9          3.6759  -18.2758  -48.7989 C.ar      23 UNK        -0.0193 
     10 C10         2.7448  -17.8321  -49.7455 C.ar      23 UNK        -0.1150 
     11 C11         1.8668  -18.7254  -50.3631 C.ar      23 UNK        -0.0193 
     12 C12         1.9174  -20.0802  -50.0259 C.ar      23 UNK        -0.1150 
     13 C13         2.8489  -20.5468  -49.0927 C.ar      23 UNK        -0.0193 
     14 C14         3.7234  -19.6388  -48.4861 C.ar      23 UNK        -0.1150 
     15 C15         2.9173  -22.0379  -48.7745 C.3       23 UNK        -0.0205 
     16 S16         2.9303  -22.4420  -46.9926 S.3       23 UNK        -0.2404 
     17 C17         1.4669  -21.5484  -46.3720 C.3       23 UNK        -0.0398 
     18 CA          0.1725  -22.3912  -46.2839 C.3       11 UNK         0.1400 
     19 N          -0.8516  -21.7010  -45.4954 N.am      11 UNK        -0.5000 
     20 C          -2.0107  -22.2391  -45.0925 C.2       10 UNK         0.5000 
     21 O          -2.2976  -23.4254  -45.2438 O.2       10 UNK        -0.5000 
     22 CA         -3.0332  -21.2897  -44.4391 C.3       10 UNK         0.1400 
     23 CB         -2.7874  -21.1902  -42.9267 C.3       10 UNK        -0.1800 
     24 N          -3.0155  -19.9476  -45.0241 N.am      10 UNK        -0.5000 
     25 C          -3.4300  -19.6465  -46.2628 C.2       9 UNK         0.5000 
     26 O          -3.9500  -20.4540  -47.0337 O.2       9 UNK        -0.5000 
     27 CA         -3.1869  -18.2055  -46.7466 C.3       9 UNK         0.1400 
     28 CB         -4.3141  -17.2695  -46.2877 C.3       9 UNK        -0.1800 
     29 N          -1.8920  -17.6697  -46.3323 N.am      9 UNK        -0.5000 
     30 C          -0.7141  -18.1695  -46.7304 C.2       8 UNK         0.5000 
     31 O          -0.6087  -19.1133  -47.5112 O.2       8 UNK        -0.5000 
     32 CA          0.5482  -17.5630  -46.0948 C.3       8 UNK         0.1400 
     33 CB          0.9732  -16.2804  -46.8236 C.3       8 UNK        -0.1800 
     34 N           0.3582  -17.3002  -44.6655 N.am      8 UNK        -0.5000 
     35 C           0.2472  -18.2653  -43.7394 C.2       7 UNK         0.5000 
     36 O           0.3818  -19.4617  -43.9900 O.2       7 UNK        -0.5000 
     37 CA         -0.1395  -17.8402  -42.3108 C.3       7 UNK         0.1400 
     38 CB          1.0992  -17.5389  -41.4561 C.3       7 UNK        -0.1800 
     39 N          -1.0466  -16.6929  -42.2978 N.am      7 UNK        -0.5000 
     40 C          -2.3347  -16.7651  -42.6639 C.2       6 UNK         0.5000 
     41 O          -2.8844  -17.8117  -43.0060 O.2       6 UNK        -0.5000 
     42 CA         -3.1306  -15.4466  -42.7062 C.3       6 UNK         0.1400 
     43 CB         -3.7771  -15.1633  -41.3426 C.3       6 UNK        -0.1800 
     44 N          -2.3209  -14.2945  -43.1054 N.am      6 UNK        -0.5000 
     45 C          -1.6824  -14.1722  -44.2769 C.2       5 UNK         0.5000 
     46 O          -1.7461  -15.0145  -45.1718 O.2       5 UNK        -0.5000 
     47 CA         -0.7944  -12.9276  -44.4717 C.3       5 UNK         0.1400 
     48 CB         -1.2447  -11.7178  -43.6243 C.3       5 UNK        -0.1800 
     49 N           0.6277  -13.2010  -44.2375 N.am      5 UNK        -0.5000 
     50 C           1.1968  -13.7217  -43.1382 C.2       4 UNK         0.5000 
     51 O           0.5692  -14.1880  -42.1867 O.2       4 UNK        -0.5000 
     52 CA          2.7339  -13.6720  -43.0716 C.3       4 UNK         0.1400 
     53 CB          3.3738  -14.8784  -43.7777 C.3       4 UNK        -0.1800 
     54 N           3.2559  -12.4329  -43.6507 N.am      4 UNK        -0.5000 
     55 C           3.2602  -11.2445  -43.0286 C.2       3 UNK         0.5000 
     56 O           2.8835  -11.0805  -41.8678 O.2       3 UNK        -0.5000 
     57 CA          3.7765  -10.0336  -43.8317 C.3       3 UNK         0.1400 
     58 CB          5.2690   -9.8015  -43.5505 C.3       3 UNK        -0.1800 
     59 N           3.5846  -10.1856  -45.2746 N.am      3 UNK        -0.5000 
     60 C           2.4128  -10.0372  -45.9088 C.2       2 UNK         0.5000 
     61 O           1.3744   -9.6785  -45.3544 O.2       2 UNK        -0.5000 
     62 CA          2.3934  -10.3805  -47.4122 C.3       2 UNK         0.1400 
     63 CB          2.6704   -9.1275  -48.2560 C.3       2 UNK        -0.1800 
     64 N           3.3511  -11.4275  -47.7811 N.am      2 UNK        -0.5000 
     65 C           3.3324  -12.6876  -47.3294 C.2       1 UNK         0.5000 
     66 O           2.4701  -13.1006  -46.5534 O.2       1 UNK        -0.5000 
     67 C          -0.3788  -22.7689  -47.6748 C.2       11 UNK         0.5000 
     68 O          -0.2751  -23.9271  -48.0824 O.2       11 UNK        -0.5000 
     69 N          -1.0124  -21.8020  -48.3550 N.am      12 UNK        -0.5000 
     70 CA         -1.6773  -21.9823  -49.6462 C.3       12 UNK         0.1400 
     71 CB         -2.1913  -20.6299  -50.1524 C.3       12 UNK        -0.1800 
     72 C          -2.8102  -23.0254  -49.6113 C.2       12 UNK         0.5000 
     73 O          -2.9485  -23.7791  -50.5731 O.2       12 UNK        -0.5000 
     74 N          -3.5280  -23.1076  -48.4803 N.am      13 UNK        -0.5000 
     75 CA         -4.5659  -24.1063  -48.1937 C.3       13 UNK         0.1400 
     76 CB         -5.2922  -23.7267  -46.8905 C.3       13 UNK        -0.1800 
     77 C          -4.0563  -25.5619  -48.1015 C.2       13 UNK         0.5000 
     78 O          -4.8791  -26.4762  -48.0233 O.2       13 UNK        -0.5000 
     79 N          -2.7323  -25.7596  -48.0880 N.am      14 UNK        -0.5000 
     80 CA         -2.0843  -27.0622  -48.1830 C.3       14 UNK         0.1400 
     81 CB         -1.1607  -27.2565  -46.9694 C.3       14 UNK        -0.1800 
     82 C          -1.2932  -27.1796  -49.4960 C.2       14 UNK         0.5000 
     83 O          -1.4061  -28.1971  -50.1808 O.2       14 UNK        -0.5000 
     84 N          -0.4805  -26.1612  -49.8085 N.am      15 UNK        -0.5000 
     85 CA          0.5129  -26.2135  -50.8793 C.3       15 UNK         0.1400 
     86 CB          1.6556  -25.2468  -50.5362 C.3       15 UNK        -0.1800 
     87 C          -0.0368  -25.8815  -52.2764 C.2       15 UNK         0.5000 
     88 O           0.4227  -26.4791  -53.2510 O.2       15 UNK        -0.5000 
     89 N          -0.9531  -24.9087  -52.3689 N.am      16 UNK        -0.5000 
     90 CA         -1.3938  -24.3361  -53.6433 C.3       16 UNK         0.1400 
     91 CB         -1.5604  -22.8138  -53.4965 C.3       16 UNK        -0.1800 
     92 C          -2.6934  -24.9794  -54.1455 C.2       16 UNK         0.5000 
     93 O          -2.8038  -25.2697  -55.3377 O.2       16 UNK        -0.5000 
     94 N          -3.6498  -25.1922  -53.2375 N.am      17 UNK        -0.5000 
     95 CA         -4.9702  -25.7512  -53.5099 C.3       17 UNK         0.1400 
     96 CB         -5.8627  -24.6826  -54.1759 C.3       17 UNK        -0.1800 
     97 C          -5.5837  -26.2397  -52.1908 C.2       17 UNK         0.5000 
     98 O          -4.9888  -26.0477  -51.1311 O.2       17 UNK        -0.5000 
     99 N          -6.7749  -26.8466  -52.2679 N.am      18 UNK        -0.5000 
    100 CA        -7.5829  -27.1917  -51.0937 C.3       18 UNK         0.1400 
    101 CB        -8.6594  -28.2088  -51.5030 C.3       18 UNK        -0.1800 
    102 C         -8.2283  -25.9500  -50.4432 C.2       18 UNK         0.5000 
    103 O         -8.4681  -25.9479  -49.2354 O.2       18 UNK        -0.5000 
    104 N         -8.4962  -24.9195  -51.2566 N.am      19 UNK        -0.5000 
    105 CA        -8.9675  -23.6092  -50.8188 C.3       19 UNK         0.1400 
    106 CB        -9.6814  -22.9203  -51.9921 C.3       19 UNK        -0.1800 
    107 C         -7.7887  -22.7518  -50.3280 C.2       19 UNK         0.5000 
    108 O         -6.7005  -22.8209  -50.9028 O.2       19 UNK        -0.5000 
    109 N         -8.0368  -21.9458  -49.2907 N.am      20 UNK        -0.5000 
    110 CA        -7.0740  -21.0001  -48.7282 C.3       20 UNK         0.1400 
    111 CB        -7.5401  -20.6131  -47.3136 C.3       20 UNK        -0.1800 
    112 C         -6.8920  -19.7474  -49.6052 C.2       20 UNK         0.5000 
    113 O         -7.7106  -19.4857  -50.4904 O.2       20 UNK        -0.5000 
    114 N         -5.8357  -18.9880  -49.2836 N.am      21 UNK        -0.5000 
    115 CA        -5.3414  -17.7702  -49.9394 C.3       21 UNK         0.1400 
    116 CB        -6.4523  -16.7340  -50.2027 C.3       21 UNK        -0.1800 
    117 C         -4.5273  -18.0776  -51.2083 C.2       21 UNK         0.5000 
    118 O         -4.8116  -19.0380  -51.9255 O.2       21 UNK        -0.5000 
    119 N         -3.5080  -17.2457  -51.4480 N.am      22 UNK        -0.5000 
    120 CA        -2.5498  -17.3823  -52.5583 C.3       22 UNK         0.1400 
    121 C         -3.1098  -16.9946  -53.9600 C.2       22 UNK         0.5000 
    122 N         -4.2895  -16.3957  -54.0686 N.am      22 UNK        -0.7600 
    123 O         -2.4603  -17.2466  -54.9710 O.2       22 UNK        -0.5000 
    124 C124       -1.2336  -16.6161  -52.2660 C.3       23 UNK        -0.0398 
    125 S125       -0.4035  -17.1650  -50.7334 S.3       23 UNK        -0.2404 
    126 C126        0.9026  -18.2252  -51.4286 C.3       23 UNK        -0.0205 
    127 H127        8.1009  -12.0205  -48.3788 H         1 UNK         0.0600 
    128 H128        7.4920  -10.5820  -49.2028 H         1 UNK         0.0600 
    129 H129        7.9364  -12.0146  -50.1367 H         1 UNK         0.0600 
    130 H130        6.4960  -13.1482  -47.3858 H         1 UNK         0.3000 
    131 H131        4.6963  -14.2161  -46.8408 H         1 UNK         0.0600 
    132 H132        3.0792  -15.1043  -48.5324 H         1 UNK         0.0800 
    133 H133        3.8252  -14.1331  -49.7672 H         1 UNK         0.0800 
    134 H134        4.1278  -16.9098  -47.2003 H         1 UNK         0.0800 
    135 H135        5.4897  -17.8666  -47.7138 H         1 UNK         0.0800 
    136 H136        2.6935  -16.7890  -50.0166 H         1 UNK         0.1150 
    137 H137        1.2423  -20.7746  -50.5055 H         1 UNK         0.1150 
    138 H138        4.4419  -19.9983  -47.7629 H         1 UNK         0.1150 
    139 H139        2.0773  -22.5564  -49.2326 H         1 UNK         0.0800 
    140 H140        3.8163  -22.4513  -49.2330 H         1 UNK         0.0800 
    141 H141        1.3093  -20.6421  -46.9518 H         1 UNK         0.0800 
    142 H142        1.7360  -21.2063  -45.3726 H         1 UNK         0.0800 
    143 H143        0.4093  -23.3203  -45.7611 H         1 UNK         0.0600 
    144 H144       -0.6618  -20.7331  -45.2628 H         1 UNK         0.3000 
    145 H145       -4.0274  -21.7134  -44.5962 H         1 UNK         0.0600 
    146 H146       -3.5425  -20.5688  -42.4447 H         1 UNK         0.0600 
    147 H147       -1.8099  -20.7608  -42.7057 H         1 UNK         0.0600 
    148 H148       -2.8281  -22.1745  -42.4586 H         1 UNK         0.0600 
    149 H149       -2.6809  -19.1970  -44.4282 H         1 UNK         0.3000 
    150 H150       -3.1780  -18.2318  -47.8362 H         1 UNK         0.0600 
    151 H151       -5.2847  -17.6206  -46.6397 H         1 UNK         0.0600 
    152 H152       -4.1716  -16.2603  -46.6749 H         1 UNK         0.0600 
    153 H153       -4.3667  -17.2063  -45.2014 H         1 UNK         0.0600 
    154 H154       -1.8962  -16.8471  -45.7359 H         1 UNK         0.3000 
    155 H155        1.3561  -18.2891  -46.2074 H         1 UNK         0.0600 
    156 H156        0.2594  -15.4691  -46.6913 H         1 UNK         0.0600 
    157 H157        1.0624  -16.4571  -47.8955 H         1 UNK         0.0600 
    158 H158        1.9420  -15.9331  -46.4713 H         1 UNK         0.0600 
    159 H159        0.1601  -16.3465  -44.4012 H         1 UNK         0.3000 
    160 H160       -0.6542  -18.6864  -41.8507 H         1 UNK         0.0600 
    161 H161        1.6237  -16.6498  -41.7989 H         1 UNK         0.0600 
    162 H162        1.8051  -18.3702  -41.4813 H         1 UNK         0.0600 
    163 H163        0.8240  -17.3781  -40.4137 H         1 UNK         0.0600 
    164 H164       -0.6449  -15.7881  -42.0702 H         1 UNK         0.3000 
    165 H165       -3.9265  -15.5637  -43.4439 H         1 UNK         0.0600 
    166 H166       -4.4112  -14.2775  -41.3827 H         1 UNK         0.0600 
    167 H167       -4.4055  -15.9976  -41.0279 H         1 UNK         0.0600 
    168 H168       -3.0269  -15.0057  -40.5666 H         1 UNK         0.0600 
    169 H169       -2.1790  -13.5778  -42.4087 H         1 UNK         0.3000 
    170 H170       -0.8860  -12.6471  -45.5220 H         1 UNK         0.0600 
    171 H171       -2.3009  -11.4962  -43.7831 H         1 UNK         0.0600 
    172 H172       -1.0931  -11.8784  -42.5565 H         1 UNK         0.0600 
    173 H173       -0.6855  -10.8239  -43.9002 H         1 UNK         0.0600 
    174 H174        1.2462  -12.9425  -45.0003 H         1 UNK         0.3000 
    175 H175        3.0194  -13.7144  -42.0183 H         1 UNK         0.0600 
    176 H176        3.1605  -14.8886  -44.8437 H         1 UNK         0.0600 
    177 H177        4.4571  -14.8718  -43.6572 H         1 UNK         0.0600 
    178 H178        3.0111  -15.8198  -43.3684 H         1 UNK         0.0600 
    179 H179        3.5267  -12.4693  -44.6220 H         1 UNK         0.3000 
    180 H180        3.2252   -9.1525  -43.4959 H         1 UNK         0.0600 
    181 H181        5.6328   -8.9104  -44.0624 H         1 UNK         0.0600 
    182 H182        5.8771  -10.6474  -43.8738 H         1 UNK         0.0600 
    183 H183        5.4475   -9.6576  -42.4840 H         1 UNK         0.0600 
    184 H184        4.3900  -10.4625  -45.8162 H         1 UNK         0.3000 
    185 H185        1.3923  -10.7439  -47.6534 H         1 UNK         0.0600 
    186 H186        1.9585   -8.3342  -48.0238 H         1 UNK         0.0600 
    187 H187        3.6718   -8.7344  -48.0759 H         1 UNK         0.0600 
    188 H188        2.5809   -9.3420  -49.3212 H         1 UNK         0.0600 
    189 H189        4.0599  -11.1891  -48.4661 H         1 UNK         0.3000 
    190 H190       -1.0125  -20.8571  -47.9749 H         1 UNK         0.3000 
    191 H191       -0.9230  -22.3403  -50.3498 H         1 UNK         0.0600 
    192 H192       -1.3798  -19.9085  -50.2330 H         1 UNK         0.0600 
    193 H193       -2.9450  -20.2102  -49.4878 H         1 UNK         0.0600 
    194 H194       -2.6423  -20.7266  -51.1404 H         1 UNK         0.0600 
    195 H195       -3.3552  -22.4202  -47.7570 H         1 UNK         0.3000 
    196 H196       -5.2846  -24.0688  -49.0133 H         1 UNK         0.0600 
    197 H197       -5.5012  -22.6615  -46.8263 H         1 UNK         0.0600 
    198 H198       -4.7089  -23.9960  -46.0106 H         1 UNK         0.0600 
    199 H199       -6.2453  -24.2516  -46.8171 H         1 UNK         0.0600 
    200 H200       -2.1244  -24.9511  -48.1215 H         1 UNK         0.3000 
    201 H201       -2.8231  -27.8661  -48.1750 H         1 UNK         0.0600 
    202 H202       -1.7285  -27.2362  -46.0390 H         1 UNK         0.0600 
    203 H203       -0.3979  -26.4791  -46.9096 H         1 UNK         0.0600 
    204 H204       -0.6485  -28.2182  -47.0180 H         1 UNK         0.0600 
    205 H205       -0.4220  -25.3617  -49.1817 H         1 UNK         0.3000 
    206 H206        0.9326  -27.2213  -50.9169 H         1 UNK         0.0600 
    207 H207        1.3098  -24.2136  -50.5491 H         1 UNK         0.0600 
    208 H208        2.4689  -25.3291  -51.2583 H         1 UNK         0.0600 
    209 H209        2.0717  -25.4521  -49.5495 H         1 UNK         0.0600 
    210 H210       -1.3807  -24.5339  -51.5293 H         1 UNK         0.3000 
    211 H211       -0.6283  -24.5000  -54.4051 H         1 UNK         0.0600 
    212 H212       -2.3760  -22.5544  -52.8222 H         1 UNK         0.0600 
    213 H213       -1.7828  -22.3556  -54.4609 H         1 UNK         0.0600 
    214 H214       -0.6496  -22.3492  -53.1184 H         1 UNK         0.0600 
    215 H215       -3.4900  -24.9516  -52.2617 H         1 UNK         0.3000 
    216 H216       -4.8656  -26.6126  -54.1725 H         1 UNK         0.0600 
    217 H217       -6.8499  -25.0780  -54.4157 H         1 UNK         0.0600 
    218 H218       -5.4303  -24.3258  -55.1106 H         1 UNK         0.0600 
    219 H219       -6.0023  -23.8191  -53.5237 H         1 UNK         0.0600 
    220 H220       -7.1949  -27.0058  -53.1724 H         1 UNK         0.3000 
    221 H221       -6.9371  -27.6600  -50.3473 H         1 UNK         0.0600 
    222 H222       -9.3353  -27.8007  -52.2555 H         1 UNK         0.0600 
    223 H223       -8.2110  -29.1156  -51.9093 H         1 UNK         0.0600 
    224 H224       -9.2638  -28.5030  -50.6439 H         1 UNK         0.0600 
    225 H225       -8.2197  -24.9925  -52.2233 H         1 UNK         0.3000 
    226 H226       -9.6835  -23.7391  -50.0042 H         1 UNK         0.0600 
    227 H227      -10.5319  -23.5085  -52.3374 H         1 UNK         0.0600 
    228 H228      -10.0609  -21.9412  -51.6966 H         1 UNK         0.0600 
    229 H229       -9.0105  -22.7691  -52.8389 H         1 UNK         0.0600 
    230 H230       -8.9696  -21.9131  -48.9067 H         1 UNK         0.3000 
    231 H231       -6.1036  -21.4941  -48.6621 H         1 UNK         0.0600 
    232 H232       -6.8063  -19.9792  -46.8144 H         1 UNK         0.0600 
    233 H233       -7.6797  -21.4943  -46.6873 H         1 UNK         0.0600 
    234 H234       -8.4838  -20.0668  -47.3373 H         1 UNK         0.0600 
    235 H235       -5.2350  -19.3494  -48.5538 H         1 UNK         0.3000 
    236 H236       -4.6611  -17.3118  -49.2236 H         1 UNK         0.0600 
    237 H237       -7.1143  -17.0375  -51.0139 H         1 UNK         0.0600 
    238 H238       -7.0600  -16.5693  -49.3129 H         1 UNK         0.0600 
    239 H239       -6.0236  -15.7718  -50.4848 H         1 UNK         0.0600 
    240 H240       -3.3350  -16.4767  -50.8175 H         1 UNK         0.3000 
    241 H241       -2.2939  -18.4412  -52.6327 H         1 UNK         0.0600 
    242 H242       -4.8379  -16.1899  -53.2496 H         1 UNK         0.3800 
    243 H243       -4.6412  -16.1541  -54.9819 H         1 UNK         0.3800 
    244 H244       -1.4346  -15.5475  -52.1750 H         1 UNK         0.0800 
    245 H245       -0.5363  -16.7155  -53.0998 H         1 UNK         0.0800 
    246 H246        1.4681  -17.6645  -52.1742 H         1 UNK         0.0800 
    247 H247        0.4400  -19.0619  -51.9545 H         1 UNK         0.0800 
@<TRIPOS>BOND
     1    1    2 1    
     2    1  127 1    
     3    1  128 1    
     4    1  129 1    
     5    2    3 2    
     6    2    4 am   BACKBONE|DICT|INTERRES
     7    4    5 1    
     8    4  130 1    
     9    5    6 1    
    10    5   65 1    
    11    5  131 1    
    12    6    7 1    
    13    6  132 1    
    14    6  133 1    
    15    7    8 1    
    16    8    9 1    
    17    8  134 1    
    18    8  135 1    
    19    9   10 ar   
    20    9   14 ar   
    21   10   11 ar   
    22   10  136 1    
    23   11   12 ar   
    24   11  126 1    
    25   12   13 ar   
    26   12  137 1    
    27   13   14 ar   
    28   13   15 1    
    29   14  138 1    
    30   15   16 1    
    31   15  139 1    
    32   15  140 1    
    33   16   17 1    
    34   17   18 1    
    35   17  141 1    
    36   17  142 1    
    37   18   19 1    
    38   18   67 1    
    39   18  143 1    
    40   19   20 am   BACKBONE|DICT|INTERRES
    41   19  144 1    
    42   20   21 2    
    43   20   22 1    
    44   22   23 1    
    45   22   24 1    
    46   22  145 1    
    47   23  146 1    
    48   23  147 1    
    49   23  148 1    
    50   24   25 am   BACKBONE|DICT|INTERRES
    51   24  149 1    
    52   25   26 2    
    53   25   27 1    
    54   27   28 1    
    55   27   29 1    
    56   27  150 1    
    57   28  151 1    
    58   28  152 1    
    59   28  153 1    
    60   29   30 am   BACKBONE|DICT|INTERRES
    61   29  154 1    
    62   30   31 2    
    63   30   32 1    
    64   32   33 1    
    65   32   34 1    
    66   32  155 1    
    67   33  156 1    
    68   33  157 1    
    69   33  158 1    
    70   34   35 am   BACKBONE|DICT|INTERRES
    71   34  159 1    
    72   35   36 2    
    73   35   37 1    
    74   37   38 1    
    75   37   39 1    
    76   37  160 1    
    77   38  161 1    
    78   38  162 1    
    79   38  163 1    
    80   39   40 am   BACKBONE|DICT|INTERRES
    81   39  164 1    
    82   40   41 2    
    83   40   42 1    
    84   42   43 1    
    85   42   44 1    
    86   42  165 1    
    87   43  166 1    
    88   43  167 1    
    89   43  168 1    
    90   44   45 am   BACKBONE|DICT|INTERRES
    91   44  169 1    
    92   45   46 2    
    93   45   47 1    
    94   47   48 1    
    95   47   49 1    
    96   47  170 1    
    97   48  171 1    
    98   48  172 1    
    99   48  173 1    
   100   49   50 am   BACKBONE|DICT|INTERRES
   101   49  174 1    
   102   50   51 2    
   103   50   52 1    
   104   52   53 1    
   105   52   54 1    
   106   52  175 1    
   107   53  176 1    
   108   53  177 1    
   109   53  178 1    
   110   54   55 am   BACKBONE|DICT|INTERRES
   111   54  179 1    
   112   55   56 2    
   113   55   57 1    
   114   57   58 1    
   115   57   59 1    
   116   57  180 1    
   117   58  181 1    
   118   58  182 1    
   119   58  183 1    
   120   59   60 am   BACKBONE|DICT|INTERRES
   121   59  184 1    
   122   60   61 2    
   123   60   62 1    
   124   62   63 1    
   125   62   64 1    
   126   62  185 1    
   127   63  186 1    
   128   63  187 1    
   129   63  188 1    
   130   64   65 am   BACKBONE|DICT|INTERRES
   131   64  189 1    
   132   65   66 2    
   133   67   68 2    
   134   67   69 am   BACKBONE|DICT|INTERRES
   135   69   70 1    
   136   69  190 1    
   137   70   71 1    
   138   70   72 1    
   139   70  191 1    
   140   71  192 1    
   141   71  193 1    
   142   71  194 1    
   143   72   73 2    
   144   72   74 am   BACKBONE|DICT|INTERRES
   145   74   75 1    
   146   74  195 1    
   147   75   76 1    
   148   75   77 1    
   149   75  196 1    
   150   76  197 1    
   151   76  198 1    
   152   76  199 1    
   153   77   78 2    
   154   77   79 am   BACKBONE|DICT|INTERRES
   155   79   80 1    
   156   79  200 1    
   157   80   81 1    
   158   80   82 1    
   159   80  201 1    
   160   81  202 1    
   161   81  203 1    
   162   81  204 1    
   163   82   83 2    
   164   82   84 am   BACKBONE|DICT|INTERRES
   165   84   85 1    
   166   84  205 1    
   167   85   86 1    
   168   85   87 1    
   169   85  206 1    
   170   86  207 1    
   171   86  208 1    
   172   86  209 1    
   173   87   88 2    
   174   87   89 am   BACKBONE|DICT|INTERRES
   175   89   90 1    
   176   89  210 1    
   177   90   91 1    
   178   90   92 1    
   179   90  211 1    
   180   91  212 1    
   181   91  213 1    
   182   91  214 1    
   183   92   93 2    
   184   92   94 am   BACKBONE|DICT|INTERRES
   185   94   95 1    
   186   94  215 1    
   187   95   96 1    
   188   95   97 1    
   189   95  216 1    
   190   96  217 1    
   191   96  218 1    
   192   96  219 1    
   193   97   98 2    
   194   97   99 am   BACKBONE|DICT|INTERRES
   195   99  100 1    
   196   99  220 1    
   197  100  101 1    
   198  100  102 1    
   199  100  221 1    
   200  101  222 1    
   201  101  223 1    
   202  101  224 1    
   203  102  103 2    
   204  102  104 am   BACKBONE|DICT|INTERRES
   205  104  105 1    
   206  104  225 1    
   207  105  106 1    
   208  105  107 1    
   209  105  226 1    
   210  106  227 1    
   211  106  228 1    
   212  106  229 1    
   213  107  108 2    
   214  107  109 am   BACKBONE|DICT|INTERRES
   215  109  110 1    
   216  109  230 1    
   217  110  111 1    
   218  110  112 1    
   219  110  231 1    
   220  111  232 1    
   221  111  233 1    
   222  111  234 1    
   223  112  113 2    
   224  112  114 am   BACKBONE|DICT|INTERRES
   225  114  115 1    
   226  114  235 1    
   227  115  116 1    
   228  115  117 1    
   229  115  236 1    
   230  116  237 1    
   231  116  238 1    
   232  116  239 1    
   233  117  118 2    
   234  117  119 am   BACKBONE|DICT|INTERRES
   235  119  120 1    
   236  119  240 1    
   237  120  121 1    
   238  120  124 1    
   239  120  241 1    
   240  121  122 am   BACKBONE|DICT|INTERRES
   241  121  123 2    
   242  122  242 1    
   243  122  243 1    
   244  124  125 1    
   245  124  244 1    
   246  124  245 1    
   247  125  126 1    
   248  126  246 1    
   249  126  247 1    
@<TRIPOS>SUBSTRUCTURE
     1 UNK         1 GROUP             0       ****    0 ROOT    
