@<TRIPOS>MOLECULE
3R540
247   249    1
SMALL
USER_CHARGES


@<TRIPOS>ATOM
      1 CA         -3.6197  -11.9800  -51.1029 C.3       0 UNK        -0.1800 
      2 C          -2.7429  -11.3332  -50.0406 C.2       0 UNK         0.5000 
      3 O          -2.9258  -10.1563  -49.7264 O.2       0 UNK        -0.5000 
      4 N          -1.7910  -12.0963  -49.4925 N.am      1 UNK        -0.5000 
      5 CA         -0.8972  -11.6726  -48.4091 C.3       1 UNK         0.1400 
      6 C6          0.3779  -12.5504  -48.3309 C.3       23 UNK        -0.0398 
      7 S7          1.3519  -12.5389  -49.8750 S.3       23 UNK        -0.2404 
      8 C8          1.3403  -14.2969  -50.3499 C.3       23 UNK        -0.0205 
      9 C9         -0.0407  -14.7627  -50.7832 C.ar      23 UNK        -0.0193 
     10 C10        -0.5414  -14.4051  -52.0388 C.ar      23 UNK        -0.1150 
     11 C11        -1.8092  -14.8306  -52.4453 C.ar      23 UNK        -0.0193 
     12 C12        -2.5740  -15.6253  -51.5867 C.ar      23 UNK        -0.1150 
     13 C13        -2.0825  -15.9916  -50.3310 C.ar      23 UNK        -0.0193 
     14 C14        -0.8166  -15.5549  -49.9328 C.ar      23 UNK        -0.1150 
     15 C15        -2.9275  -16.8409  -49.3975 C.3       23 UNK        -0.0205 
     16 S16        -2.2640  -18.5260  -49.2340 S.3       23 UNK        -0.2404 
     17 C17        -3.5841  -19.2774  -48.2314 C.3       23 UNK        -0.0398 
     18 CA         -3.4481  -20.8117  -48.0984 C.3       11 UNK         0.1400 
     19 N          -2.2173  -21.2056  -47.4042 N.am      11 UNK        -0.5000 
     20 C          -1.6979  -22.4392  -47.4231 C.2       10 UNK         0.5000 
     21 O          -2.1036  -23.3365  -48.1622 O.2       10 UNK        -0.5000 
     22 CA         -0.5305  -22.6949  -46.4547 C.3       10 UNK         0.1400 
     23 CB          0.0459  -24.1217  -46.5549 C.3       10 UNK        -0.1800 
     24 N           0.5177  -21.6842  -46.5772 N.am      10 UNK        -0.5000 
     25 C           1.2743  -21.4135  -47.6499 C.2       9 UNK         0.5000 
     26 O           1.2225  -22.0483  -48.7022 O.2       9 UNK        -0.5000 
     27 CA          2.2561  -20.2296  -47.5312 C.3       9 UNK         0.1400 
     28 CB          1.7573  -19.0390  -48.3643 C.3       9 UNK        -0.1800 
     29 N           2.4591  -19.7781  -46.1528 N.am      9 UNK        -0.5000 
     30 C           3.1666  -20.4261  -45.2184 C.2       8 UNK         0.5000 
     31 O           3.7967  -21.4619  -45.4330 O.2       8 UNK        -0.5000 
     32 CA          3.1324  -19.8344  -43.7951 C.3       8 UNK         0.1400 
     33 CB          4.1749  -18.7165  -43.6441 C.3       8 UNK        -0.1800 
     34 N           1.8106  -19.3277  -43.4115 N.am      8 UNK        -0.5000 
     35 C           0.7156  -20.0899  -43.2695 C.2       7 UNK         0.5000 
     36 O           0.7045  -21.3080  -43.4411 O.2       7 UNK        -0.5000 
     37 CA         -0.5991  -19.3693  -42.9223 C.3       7 UNK         0.1400 
     38 CB         -0.6563  -19.0146  -41.4293 C.3       7 UNK        -0.1800 
     39 N          -0.7987  -18.1676  -43.7294 N.am      7 UNK        -0.5000 
     40 C          -1.0236  -18.1766  -45.0506 C.2       6 UNK         0.5000 
     41 O          -1.1733  -19.2068  -45.7085 O.2       6 UNK        -0.5000 
     42 CA         -1.0510  -16.8112  -45.7617 C.3       6 UNK         0.1400 
     43 CB         -2.4356  -16.1597  -45.6374 C.3       6 UNK        -0.1800 
     44 N          -0.0395  -15.8861  -45.2512 N.am      6 UNK        -0.5000 
     45 C           1.2843  -16.0812  -45.3047 C.2       5 UNK         0.5000 
     46 O           1.8099  -17.0504  -45.8456 O.2       5 UNK        -0.5000 
     47 CA          2.1682  -15.0501  -44.5852 C.3       5 UNK         0.1400 
     48 CB          2.4137  -13.8169  -45.4647 C.3       5 UNK        -0.1800 
     49 N           1.5888  -14.6333  -43.3101 N.am      5 UNK        -0.5000 
     50 C           1.5246  -15.4068  -42.2190 C.2       4 UNK         0.5000 
     51 O           1.9789  -16.5501  -42.1633 O.2       4 UNK        -0.5000 
     52 CA          0.7951  -14.8107  -41.0006 C.3       4 UNK         0.1400 
     53 CB          1.7250  -13.8736  -40.2155 C.3       4 UNK        -0.1800 
     54 N          -0.4245  -14.0879  -41.3710 N.am      4 UNK        -0.5000 
     55 C          -1.5206  -14.6773  -41.8678 C.2       3 UNK         0.5000 
     56 O          -1.6169  -15.8903  -42.0505 O.2       3 UNK        -0.5000 
     57 CA         -2.6950  -13.7601  -42.2621 C.3       3 UNK         0.1400 
     58 CB         -3.5589  -13.4400  -41.0330 C.3       3 UNK        -0.1800 
     59 N          -2.3211  -12.5068  -42.9298 N.am      3 UNK        -0.5000 
     60 C          -1.5346  -12.3965  -44.0091 C.2       2 UNK         0.5000 
     61 O          -0.8902  -13.3322  -44.4847 O.2       2 UNK        -0.5000 
     62 CA         -1.4287  -10.9954  -44.6445 C.3       2 UNK         0.1400 
     63 CB         -0.4420  -10.1277  -43.8475 C.3       2 UNK        -0.1800 
     64 N          -0.9876  -11.0356  -46.0430 N.am      2 UNK        -0.5000 
     65 C          -1.6305  -11.6509  -47.0470 C.2       1 UNK         0.5000 
     66 O          -2.7321  -12.1939  -46.9200 O.2       1 UNK        -0.5000 
     67 C          -4.6935  -21.3788  -47.3854 C.2       11 UNK         0.5000 
     68 O          -5.6919  -21.6623  -48.0471 O.2       11 UNK        -0.5000 
     69 N          -4.6072  -21.5319  -46.0583 N.am      12 UNK        -0.5000 
     70 CA         -5.6438  -22.0663  -45.1835 C.3       12 UNK         0.1400 
     71 CB         -6.8108  -21.0654  -45.0452 C.3       12 UNK        -0.1800 
     72 C          -4.9864  -22.4032  -43.8370 C.2       12 UNK         0.5000 
     73 O          -5.1957  -21.6978  -42.8489 O.2       12 UNK        -0.5000 
     74 N          -4.1572  -23.4506  -43.8369 N.am      13 UNK        -0.5000 
     75 CA         -3.4376  -23.9523  -42.6666 C.3       13 UNK         0.1400 
     76 CB         -1.9818  -23.4537  -42.7014 C.3       13 UNK        -0.1800 
     77 C          -3.5523  -25.4817  -42.6681 C.2       13 UNK         0.5000 
     78 O          -2.5550  -26.1816  -42.8536 O.2       13 UNK        -0.5000 
     79 N          -4.7997  -25.9641  -42.5617 N.am      14 UNK        -0.5000 
     80 CA         -5.2769  -27.3394  -42.7753 C.3       14 UNK         0.1400 
     81 CB         -4.5794  -28.3576  -41.8519 C.3       14 UNK        -0.1800 
     82 C          -5.2026  -27.7537  -44.2577 C.2       14 UNK         0.5000 
     83 O          -6.2175  -28.1483  -44.8334 O.2       14 UNK        -0.5000 
     84 N          -4.0209  -27.5911  -44.8611 N.am      15 UNK        -0.5000 
     85 CA         -3.8151  -27.5564  -46.3035 C.3       15 UNK         0.1400 
     86 CB         -2.3317  -27.8285  -46.5973 C.3       15 UNK        -0.1800 
     87 C          -4.2316  -26.1844  -46.8662 C.2       15 UNK         0.5000 
     88 O          -4.1848  -25.1791  -46.1490 O.2       15 UNK        -0.5000 
     89 N          -4.5999  -26.1755  -48.1496 N.am      16 UNK        -0.5000 
     90 CA         -4.9702  -24.9870  -48.9155 C.3       16 UNK         0.1400 
     91 CB         -6.5015  -24.9222  -49.0582 C.3       16 UNK        -0.1800 
     92 C          -4.2273  -25.0000  -50.2627 C.2       16 UNK         0.5000 
     93 O          -4.8284  -24.7813  -51.3156 O.2       16 UNK        -0.5000 
     94 N          -2.9256  -25.3066  -50.1998 N.am      17 UNK        -0.5000 
     95 CA         -2.0216  -25.3913  -51.3445 C.3       17 UNK         0.1400 
     96 CB         -0.7695  -26.1789  -50.9281 C.3       17 UNK        -0.1800 
     97 C          -1.6222  -24.0127  -51.8993 C.2       17 UNK         0.5000 
     98 O          -1.3647  -23.9019  -53.0975 O.2       17 UNK        -0.5000 
     99 N          -1.5395  -23.0038  -51.0193 N.am      18 UNK        -0.5000 
    100 CA        -1.1905  -21.5932  -51.2554 C.3       18 UNK         0.1400 
    101 CB        -2.2385  -20.9171  -52.1597 C.3       18 UNK        -0.1800 
    102 C          0.2420  -21.3109  -51.7633 C.2       18 UNK         0.5000 
    103 O          0.6933  -20.1724  -51.6444 O.2       18 UNK        -0.5000 
    104 N          0.9315  -22.3247  -52.3082 N.am      19 UNK        -0.5000 
    105 CA         2.3288  -22.3269  -52.7619 C.3       19 UNK         0.1400 
    106 CB         3.2785  -22.2143  -51.5509 C.3       19 UNK        -0.1800 
    107 C          2.6412  -21.2842  -53.8595 C.2       19 UNK         0.5000 
    108 O          3.7809  -20.8274  -53.9707 O.2       19 UNK        -0.5000 
    109 N          1.6271  -20.9261  -54.6535 N.am      20 UNK        -0.5000 
    110 CA         1.6617  -19.8885  -55.6761 C.3       20 UNK         0.1400 
    111 CB         1.6388  -18.4982  -55.0057 C.3       20 UNK        -0.1800 
    112 C          0.4500  -20.0630  -56.6016 C.2       20 UNK         0.5000 
    113 O         -0.4527  -20.8514  -56.3008 O.2       20 UNK        -0.5000 
    114 N          0.4182  -19.2699  -57.6819 N.am      21 UNK        -0.5000 
    115 CA        -0.6830  -19.1804  -58.6512 C.3       21 UNK         0.1400 
    116 CB        -0.2662  -18.2327  -59.7868 C.3       21 UNK        -0.1800 
    117 C         -2.0329  -18.7364  -58.0438 C.2       21 UNK         0.5000 
    118 O         -3.0754  -18.9417  -58.6667 O.2       21 UNK        -0.5000 
    119 N         -1.9882  -18.1663  -56.8331 N.am      22 UNK        -0.5000 
    120 CA        -3.1392  -17.8829  -55.9644 C.3       22 UNK         0.1400 
    121 C         -3.9295  -19.1473  -55.5084 C.2       22 UNK         0.5000 
    122 N         -3.3646  -20.3486  -55.5715 N.am      22 UNK        -0.7600 
    123 O         -5.0789  -19.0322  -55.0926 O.2       22 UNK        -0.5000 
    124 C124       -2.7183  -17.0581  -54.7210 C.3       23 UNK        -0.0398 
    125 S125       -1.8191  -15.5226  -55.1342 S.3       23 UNK        -0.2404 
    126 C126       -2.3620  -14.4104  -53.7997 C.3       23 UNK        -0.0205 
    127 H127       -3.6959  -13.0562  -50.9506 H         1 UNK         0.0600 
    128 H128       -4.6276  -11.5665  -51.0689 H         1 UNK         0.0600 
    129 H129       -3.2069  -11.7977  -52.0949 H         1 UNK         0.0600 
    130 H130       -1.6848  -13.0539  -49.7965 H         1 UNK         0.3000 
    131 H131       -0.5817  -10.6482  -48.6192 H         1 UNK         0.0600 
    132 H132        0.1300  -13.5736  -48.0445 H         1 UNK         0.0800 
    133 H133        1.0432  -12.1723  -47.5553 H         1 UNK         0.0800 
    134 H134        1.7140  -14.9016  -49.5218 H         1 UNK         0.0800 
    135 H135        2.0414  -14.4435  -51.1727 H         1 UNK         0.0800 
    136 H136        0.0550  -13.7894  -52.6975 H         1 UNK         0.1150 
    137 H137       -3.5575  -15.9525  -51.8926 H         1 UNK         0.1150 
    138 H138       -0.4346  -15.8410  -48.9630 H         1 UNK         0.1150 
    139 H139       -2.9693  -16.3650  -48.4187 H         1 UNK         0.0800 
    140 H140       -3.9557  -16.8917  -49.7591 H         1 UNK         0.0800 
    141 H141       -4.5390  -19.0243  -48.6966 H         1 UNK         0.0800 
    142 H142       -3.5852  -18.8066  -47.2476 H         1 UNK         0.0800 
    143 H143       -3.4307  -21.2403  -49.1025 H         1 UNK         0.0600 
    144 H144       -1.7837  -20.4949  -46.8156 H         1 UNK         0.3000 
    145 H145       -0.9415  -22.5755  -45.4528 H         1 UNK         0.0600 
    146 H146       -0.7243  -24.8629  -46.3405 H         1 UNK         0.0600 
    147 H147        0.4375  -24.3362  -47.5496 H         1 UNK         0.0600 
    148 H148        0.8509  -24.2717  -45.8356 H         1 UNK         0.0600 
    149 H149        0.6404  -21.0942  -45.7649 H         1 UNK         0.3000 
    150 H150        3.2169  -20.5546  -47.9351 H         1 UNK         0.0600 
    151 H151        1.6583  -19.3115  -49.4138 H         1 UNK         0.0600 
    152 H152        2.4515  -18.2002  -48.3143 H         1 UNK         0.0600 
    153 H153        0.7820  -18.6897  -48.0222 H         1 UNK         0.0600 
    154 H154        2.0412  -18.8818  -45.9113 H         1 UNK         0.3000 
    155 H155        3.3933  -20.6349  -43.0997 H         1 UNK         0.0600 
    156 H156        3.9622  -17.8756  -44.3042 H         1 UNK         0.0600 
    157 H157        5.1744  -19.0795  -43.8865 H         1 UNK         0.0600 
    158 H158        4.2043  -18.3400  -42.6215 H         1 UNK         0.0600 
    159 H159        1.7440  -18.3339  -43.2196 H         1 UNK         0.3000 
    160 H160       -1.4220  -20.0542  -43.1359 H         1 UNK         0.0600 
    161 H161       -1.6225  -18.5844  -41.1652 H         1 UNK         0.0600 
    162 H162        0.1153  -18.2955  -41.1537 H         1 UNK         0.0600 
    163 H163       -0.5159  -19.9023  -40.8114 H         1 UNK         0.0600 
    164 H164       -0.7671  -17.2785  -43.2413 H         1 UNK         0.3000 
    165 H165       -0.8432  -16.9848  -46.8189 H         1 UNK         0.0600 
    166 H166       -2.4803  -15.2193  -46.1879 H         1 UNK         0.0600 
    167 H167       -3.2160  -16.8096  -46.0320 H         1 UNK         0.0600 
    168 H168       -2.6860  -15.9490  -44.5986 H         1 UNK         0.0600 
    169 H169       -0.3809  -15.0248  -44.8279 H         1 UNK         0.3000 
    170 H170        3.1336  -15.5209  -44.3889 H         1 UNK         0.0600 
    171 H171        2.7774  -14.1018  -46.4529 H         1 UNK         0.0600 
    172 H172        1.5014  -13.2384  -45.5992 H         1 UNK         0.0600 
    173 H173        3.1605  -13.1600  -45.0187 H         1 UNK         0.0600 
    174 H174        1.1111  -13.7434  -43.3009 H         1 UNK         0.3000 
    175 H175        0.5147  -15.6383  -40.3453 H         1 UNK         0.0600 
    176 H176        1.2437  -13.5116  -39.3069 H         1 UNK         0.0600 
    177 H177        2.6368  -14.3915  -39.9149 H         1 UNK         0.0600 
    178 H178        2.0199  -13.0066  -40.8080 H         1 UNK         0.0600 
    179 H179       -0.4209  -13.0848  -41.2600 H         1 UNK         0.3000 
    180 H180       -3.3140  -14.3186  -42.9662 H         1 UNK         0.0600 
    181 H181       -3.0184  -12.8290  -40.3090 H         1 UNK         0.0600 
    182 H182       -3.8701  -14.3537  -40.5244 H         1 UNK         0.0600 
    183 H183       -4.4652  -12.9040  -41.3154 H         1 UNK         0.0600 
    184 H184       -2.7853  -11.6766  -42.5908 H         1 UNK         0.3000 
    185 H185       -2.4159  -10.5300  -44.6171 H         1 UNK         0.0600 
    186 H186        0.5633  -10.5514  -43.8561 H         1 UNK         0.0600 
    187 H187       -0.3844   -9.1185  -44.2560 H         1 UNK         0.0600 
    188 H188       -0.7495  -10.0349  -42.8051 H         1 UNK         0.0600 
    189 H189       -0.0880  -10.6174  -46.2270 H         1 UNK         0.3000 
    190 H190       -3.7399  -21.2886  -45.6006 H         1 UNK         0.3000 
    191 H191       -6.0265  -22.9958  -45.6107 H         1 UNK         0.0600 
    192 H192       -7.3214  -20.9116  -45.9955 H         1 UNK         0.0600 
    193 H193       -6.4667  -20.0933  -44.6901 H         1 UNK         0.0600 
    194 H194       -7.5557  -21.4309  -44.3375 H         1 UNK         0.0600 
    195 H195       -4.0744  -24.0132  -44.6840 H         1 UNK         0.3000 
    196 H196       -3.9021  -23.5964  -41.7445 H         1 UNK         0.0600 
    197 H197       -1.4367  -23.7819  -41.8159 H         1 UNK         0.0600 
    198 H198       -1.9380  -22.3658  -42.7248 H         1 UNK         0.0600 
    199 H199       -1.4463  -23.8314  -43.5723 H         1 UNK         0.0600 
    200 H200       -5.5381  -25.2831  -42.4510 H         1 UNK         0.3000 
    201 H201       -6.3336  -27.3295  -42.5033 H         1 UNK         0.0600 
    202 H202       -4.6530  -28.0563  -40.8071 H         1 UNK         0.0600 
    203 H203       -3.5233  -28.4810  -42.0920 H         1 UNK         0.0600 
    204 H204       -5.0457  -29.3394  -41.9410 H         1 UNK         0.0600 
    205 H205       -3.2734  -27.2026  -44.2930 H         1 UNK         0.3000 
    206 H206       -4.4189  -28.3357  -46.7733 H         1 UNK         0.0600 
    207 H207       -2.0331  -28.8111  -46.2314 H         1 UNK         0.0600 
    208 H208       -2.1304  -27.8062  -47.6691 H         1 UNK         0.0600 
    209 H209       -1.6863  -27.0872  -46.1251 H         1 UNK         0.0600 
    210 H210       -4.5784  -27.0400  -48.6733 H         1 UNK         0.3000 
    211 H211       -4.6391  -24.0899  -48.3940 H         1 UNK         0.0600 
    212 H212       -6.8931  -25.7857  -49.5967 H         1 UNK         0.0600 
    213 H213       -6.8053  -24.0255  -49.5997 H         1 UNK         0.0600 
    214 H214       -6.9837  -24.8868  -48.0812 H         1 UNK         0.0600 
    215 H215       -2.5084  -25.3945  -49.2831 H         1 UNK         0.3000 
    216 H216       -2.5233  -25.9409  -52.1438 H         1 UNK         0.0600 
    217 H217       -0.2322  -25.6822  -50.1187 H         1 UNK         0.0600 
    218 H218       -0.0780  -26.2855  -51.7650 H         1 UNK         0.0600 
    219 H219       -1.0287  -27.1831  -50.5920 H         1 UNK         0.0600 
    220 H220       -1.7334  -23.2284  -50.0463 H         1 UNK         0.3000 
    221 H221       -1.2443  -21.1202  -50.2750 H         1 UNK         0.0600 
    222 H222       -2.2294  -21.3335  -53.1666 H         1 UNK         0.0600 
    223 H223       -3.2439  -21.0326  -51.7552 H         1 UNK         0.0600 
    224 H224       -2.0465  -19.8469  -52.2487 H         1 UNK         0.0600 
    225 H225        0.4196  -23.1865  -52.4530 H         1 UNK         0.3000 
    226 H226        2.4953  -23.3022  -53.2208 H         1 UNK         0.0600 
    227 H227        3.0552  -22.9761  -50.8038 H         1 UNK         0.0600 
    228 H228        3.1988  -21.2406  -51.0662 H         1 UNK         0.0600 
    229 H229        4.3186  -22.3496  -51.8493 H         1 UNK         0.0600 
    230 H230        0.7257  -21.3751  -54.5465 H         1 UNK         0.3000 
    231 H231        2.5686  -20.0008  -56.2736 H         1 UNK         0.0600 
    232 H232        2.5030  -18.3542  -54.3572 H         1 UNK         0.0600 
    233 H233        0.7438  -18.3631  -54.3962 H         1 UNK         0.0600 
    234 H234        1.6596  -17.6955  -55.7433 H         1 UNK         0.0600 
    235 H235        1.1974  -18.6486  -57.8462 H         1 UNK         0.3000 
    236 H236       -0.8335  -20.1764  -59.0722 H         1 UNK         0.0600 
    237 H237       -1.0454  -18.1658  -60.5473 H         1 UNK         0.0600 
    238 H238       -0.0795  -17.2231  -59.4188 H         1 UNK         0.0600 
    239 H239        0.6389  -18.5838  -60.2829 H         1 UNK         0.0600 
    240 H240       -1.0820  -18.0085  -56.4208 H         1 UNK         0.3000 
    241 H241       -3.8353  -17.2781  -56.5482 H         1 UNK         0.0600 
    242 H242       -3.8925  -21.1556  -55.2814 H         1 UNK         0.3800 
    243 H243       -2.4113  -20.4653  -55.8971 H         1 UNK         0.3800 
    244 H244       -3.6049  -16.7980  -54.1408 H         1 UNK         0.0800 
    245 H245       -2.0841  -17.6528  -54.0605 H         1 UNK         0.0800 
    246 H246       -3.4520  -14.3683  -53.7739 H         1 UNK         0.0800 
    247 H247       -2.0277  -13.3978  -54.0305 H         1 UNK         0.0800 
@<TRIPOS>BOND
     1    1    2 1    
     2    1  127 1    
     3    1  128 1    
     4    1  129 1    
     5    2    3 2    
     6    2    4 am   BACKBONE|DICT|INTERRES
     7    4    5 1    
     8    4  130 1    
     9    5    6 1    
    10    5   65 1    
    11    5  131 1    
    12    6    7 1    
    13    6  132 1    
    14    6  133 1    
    15    7    8 1    
    16    8    9 1    
    17    8  134 1    
    18    8  135 1    
    19    9   10 ar   
    20    9   14 ar   
    21   10   11 ar   
    22   10  136 1    
    23   11   12 ar   
    24   11  126 1    
    25   12   13 ar   
    26   12  137 1    
    27   13   14 ar   
    28   13   15 1    
    29   14  138 1    
    30   15   16 1    
    31   15  139 1    
    32   15  140 1    
    33   16   17 1    
    34   17   18 1    
    35   17  141 1    
    36   17  142 1    
    37   18   19 1    
    38   18   67 1    
    39   18  143 1    
    40   19   20 am   BACKBONE|DICT|INTERRES
    41   19  144 1    
    42   20   21 2    
    43   20   22 1    
    44   22   23 1    
    45   22   24 1    
    46   22  145 1    
    47   23  146 1    
    48   23  147 1    
    49   23  148 1    
    50   24   25 am   BACKBONE|DICT|INTERRES
    51   24  149 1    
    52   25   26 2    
    53   25   27 1    
    54   27   28 1    
    55   27   29 1    
    56   27  150 1    
    57   28  151 1    
    58   28  152 1    
    59   28  153 1    
    60   29   30 am   BACKBONE|DICT|INTERRES
    61   29  154 1    
    62   30   31 2    
    63   30   32 1    
    64   32   33 1    
    65   32   34 1    
    66   32  155 1    
    67   33  156 1    
    68   33  157 1    
    69   33  158 1    
    70   34   35 am   BACKBONE|DICT|INTERRES
    71   34  159 1    
    72   35   36 2    
    73   35   37 1    
    74   37   38 1    
    75   37   39 1    
    76   37  160 1    
    77   38  161 1    
    78   38  162 1    
    79   38  163 1    
    80   39   40 am   BACKBONE|DICT|INTERRES
    81   39  164 1    
    82   40   41 2    
    83   40   42 1    
    84   42   43 1    
    85   42   44 1    
    86   42  165 1    
    87   43  166 1    
    88   43  167 1    
    89   43  168 1    
    90   44   45 am   BACKBONE|DICT|INTERRES
    91   44  169 1    
    92   45   46 2    
    93   45   47 1    
    94   47   48 1    
    95   47   49 1    
    96   47  170 1    
    97   48  171 1    
    98   48  172 1    
    99   48  173 1    
   100   49   50 am   BACKBONE|DICT|INTERRES
   101   49  174 1    
   102   50   51 2    
   103   50   52 1    
   104   52   53 1    
   105   52   54 1    
   106   52  175 1    
   107   53  176 1    
   108   53  177 1    
   109   53  178 1    
   110   54   55 am   BACKBONE|DICT|INTERRES
   111   54  179 1    
   112   55   56 2    
   113   55   57 1    
   114   57   58 1    
   115   57   59 1    
   116   57  180 1    
   117   58  181 1    
   118   58  182 1    
   119   58  183 1    
   120   59   60 am   BACKBONE|DICT|INTERRES
   121   59  184 1    
   122   60   61 2    
   123   60   62 1    
   124   62   63 1    
   125   62   64 1    
   126   62  185 1    
   127   63  186 1    
   128   63  187 1    
   129   63  188 1    
   130   64   65 am   BACKBONE|DICT|INTERRES
   131   64  189 1    
   132   65   66 2    
   133   67   68 2    
   134   67   69 am   BACKBONE|DICT|INTERRES
   135   69   70 1    
   136   69  190 1    
   137   70   71 1    
   138   70   72 1    
   139   70  191 1    
   140   71  192 1    
   141   71  193 1    
   142   71  194 1    
   143   72   73 2    
   144   72   74 am   BACKBONE|DICT|INTERRES
   145   74   75 1    
   146   74  195 1    
   147   75   76 1    
   148   75   77 1    
   149   75  196 1    
   150   76  197 1    
   151   76  198 1    
   152   76  199 1    
   153   77   78 2    
   154   77   79 am   BACKBONE|DICT|INTERRES
   155   79   80 1    
   156   79  200 1    
   157   80   81 1    
   158   80   82 1    
   159   80  201 1    
   160   81  202 1    
   161   81  203 1    
   162   81  204 1    
   163   82   83 2    
   164   82   84 am   BACKBONE|DICT|INTERRES
   165   84   85 1    
   166   84  205 1    
   167   85   86 1    
   168   85   87 1    
   169   85  206 1    
   170   86  207 1    
   171   86  208 1    
   172   86  209 1    
   173   87   88 2    
   174   87   89 am   BACKBONE|DICT|INTERRES
   175   89   90 1    
   176   89  210 1    
   177   90   91 1    
   178   90   92 1    
   179   90  211 1    
   180   91  212 1    
   181   91  213 1    
   182   91  214 1    
   183   92   93 2    
   184   92   94 am   BACKBONE|DICT|INTERRES
   185   94   95 1    
   186   94  215 1    
   187   95   96 1    
   188   95   97 1    
   189   95  216 1    
   190   96  217 1    
   191   96  218 1    
   192   96  219 1    
   193   97   98 2    
   194   97   99 am   BACKBONE|DICT|INTERRES
   195   99  100 1    
   196   99  220 1    
   197  100  101 1    
   198  100  102 1    
   199  100  221 1    
   200  101  222 1    
   201  101  223 1    
   202  101  224 1    
   203  102  103 2    
   204  102  104 am   BACKBONE|DICT|INTERRES
   205  104  105 1    
   206  104  225 1    
   207  105  106 1    
   208  105  107 1    
   209  105  226 1    
   210  106  227 1    
   211  106  228 1    
   212  106  229 1    
   213  107  108 2    
   214  107  109 am   BACKBONE|DICT|INTERRES
   215  109  110 1    
   216  109  230 1    
   217  110  111 1    
   218  110  112 1    
   219  110  231 1    
   220  111  232 1    
   221  111  233 1    
   222  111  234 1    
   223  112  113 2    
   224  112  114 am   BACKBONE|DICT|INTERRES
   225  114  115 1    
   226  114  235 1    
   227  115  116 1    
   228  115  117 1    
   229  115  236 1    
   230  116  237 1    
   231  116  238 1    
   232  116  239 1    
   233  117  118 2    
   234  117  119 am   BACKBONE|DICT|INTERRES
   235  119  120 1    
   236  119  240 1    
   237  120  121 1    
   238  120  124 1    
   239  120  241 1    
   240  121  122 am   BACKBONE|DICT|INTERRES
   241  121  123 2    
   242  122  242 1    
   243  122  243 1    
   244  124  125 1    
   245  124  244 1    
   246  124  245 1    
   247  125  126 1    
   248  126  246 1    
   249  126  247 1    
@<TRIPOS>SUBSTRUCTURE
     1 UNK         1 GROUP             0       ****    0 ROOT    
