@<TRIPOS>MOLECULE
3R540
247   249    1
SMALL
USER_CHARGES


@<TRIPOS>ATOM
      1 CA         -0.2192   -8.5183  -46.6201 C.3       0 UNK        -0.1800 
      2 C           0.4310   -9.6890  -47.3439 C.2       0 UNK         0.5000 
      3 O           1.1137   -9.4850  -48.3478 O.2       0 UNK        -0.5000 
      4 N           0.2183  -10.9121  -46.8401 N.am      1 UNK        -0.5000 
      5 CA          0.7909  -12.1559  -47.3733 C.3       1 UNK         0.1400 
      6 C6          0.0876  -13.3937  -46.7618 C.3       23 UNK        -0.0398 
      7 S7          0.2290  -14.8810  -47.8066 S.3       23 UNK        -0.2404 
      8 C8         -1.4659  -14.9980  -48.4806 C.3       23 UNK        -0.0205 
      9 C9         -1.7239  -16.1609  -49.4412 C.ar      23 UNK        -0.0193 
     10 C10        -2.9288  -16.1754  -50.1517 C.ar      23 UNK        -0.1150 
     11 C11        -3.2302  -17.2116  -51.0411 C.ar      23 UNK        -0.0193 
     12 C12        -2.3083  -18.2443  -51.2276 C.ar      23 UNK        -0.1150 
     13 C13        -1.0989  -18.2457  -50.5272 C.ar      23 UNK        -0.0193 
     14 C14        -0.8170  -17.2119  -49.6309 C.ar      23 UNK        -0.1150 
     15 C15        -0.0879  -19.3588  -50.7453 C.3       23 UNK        -0.0205 
     16 S16        -0.6187  -20.9119  -49.9722 S.3       23 UNK        -0.2404 
     17 C17        -0.5781  -20.5004  -48.1982 C.3       23 UNK        -0.0398 
     18 CA         -0.6281  -21.7786  -47.3293 C.3       11 UNK         0.1400 
     19 N          -0.0525  -21.5723  -46.0010 N.am      11 UNK        -0.5000 
     20 C           0.2981  -22.5703  -45.1774 C.2       10 UNK         0.5000 
     21 O           0.2266  -23.7622  -45.4774 O.2       10 UNK        -0.5000 
     22 CA          0.7777  -22.1736  -43.7708 C.3       10 UNK         0.1400 
     23 CB          2.2698  -21.8109  -43.7929 C.3       10 UNK        -0.1800 
     24 N           0.0086  -21.0662  -43.2012 N.am      10 UNK        -0.5000 
     25 C          -1.2999  -21.1199  -42.9132 C.2       9 UNK         0.5000 
     26 O          -1.9929  -22.1252  -43.0694 O.2       9 UNK        -0.5000 
     27 CA         -1.9565  -19.8202  -42.4135 C.3       9 UNK         0.1400 
     28 CB         -1.6407  -19.5807  -40.9300 C.3       9 UNK        -0.1800 
     29 N          -1.5630  -18.6468  -43.1938 N.am      9 UNK        -0.5000 
     30 C          -1.7989  -18.4824  -44.5037 C.2       8 UNK         0.5000 
     31 O          -2.3806  -19.3048  -45.2087 O.2       8 UNK        -0.5000 
     32 CA         -1.2443  -17.2020  -45.1436 C.3       8 UNK         0.1400 
     33 CB         -2.1419  -15.9974  -44.8194 C.3       8 UNK        -0.1800 
     34 N           0.1238  -16.9404  -44.7022 N.am      8 UNK        -0.5000 
     35 C           1.1806  -17.6907  -45.0448 C.2       7 UNK         0.5000 
     36 O           1.1173  -18.6659  -45.7946 O.2       7 UNK        -0.5000 
     37 CA          2.5256  -17.3095  -44.4013 C.3       7 UNK         0.1400 
     38 CB          3.1657  -16.1329  -45.1514 C.3       7 UNK        -0.1800 
     39 N           2.3957  -16.9683  -42.9829 N.am      7 UNK        -0.5000 
     40 C           2.0252  -17.8341  -42.0273 C.2       6 UNK         0.5000 
     41 O           1.7932  -19.0234  -42.2367 O.2       6 UNK        -0.5000 
     42 CA          1.8306  -17.2714  -40.6063 C.3       6 UNK         0.1400 
     43 CB          3.1508  -17.3216  -39.8232 C.3       6 UNK        -0.1800 
     44 N           1.3112  -15.9034  -40.5808 N.am      6 UNK        -0.5000 
     45 C           0.1741  -15.4838  -41.1541 C.2       5 UNK         0.5000 
     46 O          -0.5970  -16.2331  -41.7545 O.2       5 UNK        -0.5000 
     47 CA         -0.1514  -13.9780  -41.0652 C.3       5 UNK         0.1400 
     48 CB         -1.4005  -13.7500  -40.2004 C.3       5 UNK        -0.1800 
     49 N           0.9448  -13.1538  -40.5415 N.am      5 UNK        -0.5000 
     50 C           2.0922  -12.8931  -41.1807 C.2       4 UNK         0.5000 
     51 O           2.3736  -13.3370  -42.2980 O.2       4 UNK        -0.5000 
     52 CA          3.1095  -12.0362  -40.4140 C.3       4 UNK         0.1400 
     53 CB          3.8702  -12.8814  -39.3776 C.3       4 UNK        -0.1800 
     54 N           4.0566  -11.4673  -41.3631 N.am      4 UNK        -0.5000 
     55 C           4.6249  -10.2589  -41.2782 C.2       3 UNK         0.5000 
     56 O           4.4685   -9.4993  -40.3211 O.2       3 UNK        -0.5000 
     57 CA          5.5185   -9.8133  -42.4575 C.3       3 UNK         0.1400 
     58 CB          7.0018   -9.8733  -42.0595 C.3       3 UNK        -0.1800 
     59 N           5.3275  -10.6006  -43.6805 N.am      3 UNK        -0.5000 
     60 C           4.2187  -10.5942  -44.4316 C.2       2 UNK         0.5000 
     61 O           3.2461   -9.8691  -44.2006 O.2       2 UNK        -0.5000 
     62 CA          4.1748  -11.5807  -45.6120 C.3       2 UNK         0.1400 
     63 CB          4.7455  -12.9678  -45.2447 C.3       2 UNK        -0.1800 
     64 N           2.7848  -11.6942  -46.0342 N.am      2 UNK        -0.5000 
     65 C           2.3227  -12.2207  -47.1726 C.2       1 UNK         0.5000 
     66 O           3.0409  -12.7123  -48.0442 O.2       1 UNK        -0.5000 
     67 C          -2.0496  -22.3732  -47.2412 C.2       11 UNK         0.5000 
     68 O          -2.3448  -23.3412  -47.9426 O.2       11 UNK        -0.5000 
     69 N          -2.8921  -21.8275  -46.3516 N.am      12 UNK        -0.5000 
     70 CA         -4.2548  -22.2966  -46.0848 C.3       12 UNK         0.1400 
     71 CB         -4.9465  -21.3500  -45.0935 C.3       12 UNK        -0.1800 
     72 C          -4.3066  -23.7493  -45.5783 C.2       12 UNK         0.5000 
     73 O          -5.1694  -24.5107  -46.0159 O.2       12 UNK        -0.5000 
     74 N          -3.3434  -24.1303  -44.7272 N.am      13 UNK        -0.5000 
     75 CA         -3.1403  -25.5007  -44.2466 C.3       13 UNK         0.1400 
     76 CB         -2.0657  -25.4963  -43.1491 C.3       13 UNK        -0.1800 
     77 C          -2.7730  -26.5032  -45.3623 C.2       13 UNK         0.5000 
     78 O          -3.0361  -27.6965  -45.2117 O.2       13 UNK        -0.5000 
     79 N          -2.2094  -26.0015  -46.4688 N.am      14 UNK        -0.5000 
     80 CA         -1.9015  -26.7482  -47.6885 C.3       14 UNK         0.1400 
     81 CB         -0.5346  -26.2775  -48.2173 C.3       14 UNK        -0.1800 
     82 C          -3.0073  -26.5957  -48.7568 C.2       14 UNK         0.5000 
     83 O          -2.7551  -26.8818  -49.9283 O.2       14 UNK        -0.5000 
     84 N          -4.1999  -26.1253  -48.3560 N.am      15 UNK        -0.5000 
     85 CA         -5.3809  -25.8677  -49.1887 C.3       15 UNK         0.1400 
     86 CB         -5.9464  -27.1843  -49.7621 C.3       15 UNK        -0.1800 
     87 C          -5.1113  -24.8035  -50.2709 C.2       15 UNK         0.5000 
     88 O          -5.4376  -25.0113  -51.4403 O.2       15 UNK        -0.5000 
     89 N          -4.4691  -23.7021  -49.8555 N.am      16 UNK        -0.5000 
     90 CA         -3.9508  -22.6088  -50.6859 C.3       16 UNK         0.1400 
     91 CB         -5.0900  -21.8366  -51.3841 C.3       16 UNK        -0.1800 
     92 C          -2.8524  -23.0965  -51.6525 C.2       16 UNK         0.5000 
     93 O          -2.8026  -22.6548  -52.7977 O.2       16 UNK        -0.5000 
     94 N          -2.0058  -24.0162  -51.1611 N.am      17 UNK        -0.5000 
     95 CA         -0.9552  -24.7378  -51.8882 C.3       17 UNK         0.1400 
     96 CB          0.1961  -23.7883  -52.2795 C.3       17 UNK        -0.1800 
     97 C          -1.5255  -25.5341  -53.0806 C.2       17 UNK         0.5000 
     98 O          -1.0356  -25.4095  -54.2043 O.2       17 UNK        -0.5000 
     99 N          -2.5721  -26.3242  -52.7963 N.am      18 UNK        -0.5000 
    100 CA        -3.4088  -27.0674  -53.7434 C.3       18 UNK         0.1400 
    101 CB        -2.6088  -28.1988  -54.4220 C.3       18 UNK        -0.1800 
    102 C         -4.1049  -26.1231  -54.7460 C.2       18 UNK         0.5000 
    103 O         -3.8871  -26.2161  -55.9564 O.2       18 UNK        -0.5000 
    104 N         -4.9139  -25.2068  -54.1990 N.am      19 UNK        -0.5000 
    105 CA        -5.6801  -24.1374  -54.8447 C.3       19 UNK         0.1400 
    106 CB        -6.6721  -24.6820  -55.8901 C.3       19 UNK        -0.1800 
    107 C         -4.8141  -23.0041  -55.4221 C.2       19 UNK         0.5000 
    108 O         -5.0676  -21.8425  -55.0999 O.2       19 UNK        -0.5000 
    109 N         -3.8439  -23.3503  -56.2816 N.am      20 UNK        -0.5000 
    110 CA        -2.8248  -22.4886  -56.9045 C.3       20 UNK         0.1400 
    111 CB        -1.7694  -22.0887  -55.8550 C.3       20 UNK        -0.1800 
    112 C         -3.3708  -21.2511  -57.6563 C.2       20 UNK         0.5000 
    113 O         -2.6441  -20.2699  -57.8222 O.2       20 UNK        -0.5000 
    114 N         -4.6467  -21.3050  -58.0692 N.am      21 UNK        -0.5000 
    115 CA        -5.4530  -20.2054  -58.6168 C.3       21 UNK         0.1400 
    116 CB        -4.9107  -19.7500  -59.9880 C.3       21 UNK        -0.1800 
    117 C         -5.6575  -19.0280  -57.6307 C.2       21 UNK         0.5000 
    118 O         -5.9586  -17.9151  -58.0664 O.2       21 UNK        -0.5000 
    119 N         -5.5092  -19.2942  -56.3267 N.am      22 UNK        -0.5000 
    120 CA        -5.7026  -18.3482  -55.2192 C.3       22 UNK         0.1400 
    121 C         -6.8270  -18.8144  -54.2523 C.2       22 UNK         0.5000 
    122 N         -6.9798  -20.1082  -53.9983 N.am      22 UNK        -0.7600 
    123 O         -7.5882  -17.9959  -53.7443 O.2       22 UNK        -0.5000 
    124 C124       -4.3667  -18.1034  -54.4683 C.3       23 UNK        -0.0398 
    125 S125       -4.3781  -16.5667  -53.4803 S.3       23 UNK        -0.2404 
    126 C126       -4.5563  -17.2138  -51.7869 C.3       23 UNK        -0.0205 
    127 H127        0.5456   -7.8310  -46.2583 H         1 UNK         0.0600 
    128 H128       -0.8116   -8.8473  -45.7660 H         1 UNK         0.0600 
    129 H129       -0.8753   -7.9740  -47.2994 H         1 UNK         0.0600 
    130 H130       -0.3597  -11.0076  -46.0173 H         1 UNK         0.3000 
    131 H131        0.6022  -12.1525  -48.4494 H         1 UNK         0.0600 
    132 H132        0.4762  -13.6223  -45.7674 H         1 UNK         0.0800 
    133 H133       -0.9728  -13.1824  -46.6174 H         1 UNK         0.0800 
    134 H134       -2.1715  -15.0786  -47.6535 H         1 UNK         0.0800 
    135 H135       -1.6917  -14.0620  -48.9939 H         1 UNK         0.0800 
    136 H136       -3.6398  -15.3733  -50.0094 H         1 UNK         0.1150 
    137 H137       -2.5298  -19.0488  -51.9150 H         1 UNK         0.1150 
    138 H138        0.1169  -17.2375  -49.0893 H         1 UNK         0.1150 
    139 H139        0.0374  -19.5251  -51.8162 H         1 UNK         0.0800 
    140 H140        0.8946  -19.0788  -50.3623 H         1 UNK         0.0800 
    141 H141       -1.3869  -19.8090  -47.9533 H         1 UNK         0.0800 
    142 H142        0.3513  -19.9606  -48.0127 H         1 UNK         0.0800 
    143 H143       -0.0016  -22.5307  -47.8152 H         1 UNK         0.0600 
    144 H144        0.0622  -20.6140  -45.6932 H         1 UNK         0.3000 
    145 H145        0.6470  -23.0406  -43.1198 H         1 UNK         0.0600 
    146 H146        2.6450  -21.6285  -42.7858 H         1 UNK         0.0600 
    147 H147        2.8640  -22.6202  -44.2190 H         1 UNK         0.0600 
    148 H148        2.4570  -20.9154  -44.3870 H         1 UNK         0.0600 
    149 H149        0.5260  -20.2146  -42.9983 H         1 UNK         0.3000 
    150 H150       -3.0376  -19.9335  -42.5153 H         1 UNK         0.0600 
    151 H151       -1.9913  -20.4130  -40.3186 H         1 UNK         0.0600 
    152 H152       -2.1278  -18.6772  -40.5625 H         1 UNK         0.0600 
    153 H153       -0.5697  -19.4774  -40.7586 H         1 UNK         0.0600 
    154 H154       -1.0970  -17.8969  -42.6915 H         1 UNK         0.3000 
    155 H155       -1.2324  -17.3387  -46.2274 H         1 UNK         0.0600 
    156 H156       -3.1360  -16.1321  -45.2472 H         1 UNK         0.0600 
    157 H157       -1.7339  -15.0751  -45.2285 H         1 UNK         0.0600 
    158 H158       -2.2671  -15.8553  -43.7461 H         1 UNK         0.0600 
    159 H159        0.2489  -16.2065  -44.0209 H         1 UNK         0.3000 
    160 H160        3.1904  -18.1720  -44.4839 H         1 UNK         0.0600 
    161 H161        2.5697  -15.2236  -45.0611 H         1 UNK         0.0600 
    162 H162        3.2658  -16.3532  -46.2151 H         1 UNK         0.0600 
    163 H163        4.1639  -15.9219  -44.7683 H         1 UNK         0.0600 
    164 H164        2.5521  -16.0031  -42.7270 H         1 UNK         0.3000 
    165 H165        1.1056  -17.9067  -40.0950 H         1 UNK         0.0600 
    166 H166        3.0077  -17.0134  -38.7874 H         1 UNK         0.0600 
    167 H167        3.5565  -18.3341  -39.8064 H         1 UNK         0.0600 
    168 H168        3.9068  -16.6717  -40.2660 H         1 UNK         0.0600 
    169 H169        1.8764  -15.2167  -40.1057 H         1 UNK         0.3000 
    170 H170       -0.3735  -13.6409  -42.0799 H         1 UNK         0.0600 
    171 H171       -2.2514  -14.3157  -40.5828 H         1 UNK         0.0600 
    172 H172       -1.2372  -14.0613  -39.1679 H         1 UNK         0.0600 
    173 H173       -1.6898  -12.6990  -40.1937 H         1 UNK         0.0600 
    174 H174        0.8017  -12.7627  -39.6210 H         1 UNK         0.3000 
    175 H175        2.5658  -11.2357  -39.9076 H         1 UNK         0.0600 
    176 H176        4.4116  -13.7031  -39.8486 H         1 UNK         0.0600 
    177 H177        4.5935  -12.2757  -38.8314 H         1 UNK         0.0600 
    178 H178        3.1900  -13.3125  -38.6423 H         1 UNK         0.0600 
    179 H179        4.1789  -12.0114  -42.2067 H         1 UNK         0.3000 
    180 H180        5.2663   -8.7745  -42.6802 H         1 UNK         0.0600 
    181 H181        7.3171  -10.8933  -41.8360 H         1 UNK         0.0600 
    182 H182        7.1940   -9.2688  -41.1720 H         1 UNK         0.0600 
    183 H183        7.6405   -9.4897  -42.8554 H         1 UNK         0.0600 
    184 H184        6.0820  -11.2225  -43.9327 H         1 UNK         0.3000 
    185 H185        4.7562  -11.1503  -46.4294 H         1 UNK         0.0600 
    186 H186        5.8084  -12.9151  -45.0085 H         1 UNK         0.0600 
    187 H187        4.2339  -13.3927  -44.3807 H         1 UNK         0.0600 
    188 H188        4.6468  -13.6727  -46.0698 H         1 UNK         0.0600 
    189 H189        2.1384  -11.2297  -45.4079 H         1 UNK         0.3000 
    190 H190       -2.5934  -21.0045  -45.8313 H         1 UNK         0.3000 
    191 H191       -4.8044  -22.2572  -47.0273 H         1 UNK         0.0600 
    192 H192       -4.9931  -20.3342  -45.4864 H         1 UNK         0.0600 
    193 H193       -5.9706  -21.6696  -44.8965 H         1 UNK         0.0600 
    194 H194       -4.4231  -21.3153  -44.1380 H         1 UNK         0.0600 
    195 H195       -2.7066  -23.4249  -44.3670 H         1 UNK         0.3000 
    196 H196       -4.0788  -25.8384  -43.8025 H         1 UNK         0.0600 
    197 H197       -1.9100  -26.4988  -42.7485 H         1 UNK         0.0600 
    198 H198       -2.3553  -24.8552  -42.3163 H         1 UNK         0.0600 
    199 H199       -1.1070  -25.1407  -43.5271 H         1 UNK         0.0600 
    200 H200       -2.0456  -25.0033  -46.5165 H         1 UNK         0.3000 
    201 H201       -1.8233  -27.8130  -47.4618 H         1 UNK         0.0600 
    202 H202        0.2368  -26.3776  -47.4535 H         1 UNK         0.0600 
    203 H203       -0.5570  -25.2334  -48.5297 H         1 UNK         0.0600 
    204 H204       -0.2175  -26.8723  -49.0745 H         1 UNK         0.0600 
    205 H205       -4.3049  -25.8681  -47.3814 H         1 UNK         0.3000 
    206 H206       -6.1387  -25.4453  -48.5274 H         1 UNK         0.0600 
    207 H207       -6.1408  -27.9071  -48.9698 H         1 UNK         0.0600 
    208 H208       -6.8902  -27.0095  -50.2798 H         1 UNK         0.0600 
    209 H209       -5.2643  -27.6456  -50.4768 H         1 UNK         0.0600 
    210 H210       -4.1458  -23.6839  -48.8953 H         1 UNK         0.3000 
    211 H211       -3.4658  -21.9100  -50.0042 H         1 UNK         0.0600 
    212 H212       -5.6034  -22.4482  -52.1246 H         1 UNK         0.0600 
    213 H213       -4.7042  -20.9581  -51.9029 H         1 UNK         0.0600 
    214 H214       -5.8300  -21.4884  -50.6641 H         1 UNK         0.0600 
    215 H215       -2.1423  -24.2954  -50.1993 H         1 UNK         0.3000 
    216 H216       -0.5485  -25.4758  -51.1962 H         1 UNK         0.0600 
    217 H217        1.0047  -24.3342  -52.7664 H         1 UNK         0.0600 
    218 H218        0.6192  -23.3027  -51.4007 H         1 UNK         0.0600 
    219 H219       -0.1338  -23.0092  -52.9674 H         1 UNK         0.0600 
    220 H220       -2.8552  -26.3860  -51.8218 H         1 UNK         0.3000 
    221 H221       -4.1994  -27.5338  -53.1535 H         1 UNK         0.0600 
    222 H222       -1.8101  -27.8138  -55.0564 H         1 UNK         0.0600 
    223 H223       -2.1593  -28.8607  -53.6819 H         1 UNK         0.0600 
    224 H224       -3.2583  -28.8080  -55.0515 H         1 UNK         0.0600 
    225 H225       -4.9937  -25.2022  -53.1824 H         1 UNK         0.3000 
    226 H226       -6.2757  -23.6952  -54.0452 H         1 UNK         0.0600 
    227 H227       -7.3265  -25.4369  -55.4543 H         1 UNK         0.0600 
    228 H228       -7.3084  -23.8827  -56.2719 H         1 UNK         0.0600 
    229 H229       -6.1672  -25.1302  -56.7459 H         1 UNK         0.0600 
    230 H230       -3.7386  -24.3468  -56.4528 H         1 UNK         0.3000 
    231 H231       -2.3287  -23.1042  -57.6557 H         1 UNK         0.0600 
    232 H232       -2.1822  -21.3993  -55.1175 H         1 UNK         0.0600 
    233 H233       -0.9125  -21.5995  -56.3189 H         1 UNK         0.0600 
    234 H234       -1.3923  -22.9604  -55.3212 H         1 UNK         0.0600 
    235 H235       -5.1503  -22.1602  -57.8818 H         1 UNK         0.3000 
    236 H236       -6.4469  -20.6225  -58.7843 H         1 UNK         0.0600 
    237 H237       -4.7769  -20.5972  -60.6606 H         1 UNK         0.0600 
    238 H238       -5.6022  -19.0600  -60.4727 H         1 UNK         0.0600 
    239 H239       -3.9524  -19.2384  -59.8970 H         1 UNK         0.0600 
    240 H240       -5.2801  -20.2442  -56.0482 H         1 UNK         0.3000 
    241 H241       -6.0321  -17.3914  -55.6288 H         1 UNK         0.0600 
    242 H242       -7.7202  -20.4057  -53.3842 H         1 UNK         0.3800 
    243 H243       -6.3309  -20.7928  -54.3792 H         1 UNK         0.3800 
    244 H244       -4.0945  -18.9635  -53.8540 H         1 UNK         0.0800 
    245 H245       -3.5579  -17.9976  -55.1929 H         1 UNK         0.0800 
    246 H246       -5.2823  -16.5948  -51.2578 H         1 UNK         0.0800 
    247 H247       -4.9791  -18.2194  -51.7975 H         1 UNK         0.0800 
@<TRIPOS>BOND
     1    1    2 1    
     2    1  127 1    
     3    1  128 1    
     4    1  129 1    
     5    2    3 2    
     6    2    4 am   BACKBONE|DICT|INTERRES
     7    4    5 1    
     8    4  130 1    
     9    5    6 1    
    10    5   65 1    
    11    5  131 1    
    12    6    7 1    
    13    6  132 1    
    14    6  133 1    
    15    7    8 1    
    16    8    9 1    
    17    8  134 1    
    18    8  135 1    
    19    9   10 ar   
    20    9   14 ar   
    21   10   11 ar   
    22   10  136 1    
    23   11   12 ar   
    24   11  126 1    
    25   12   13 ar   
    26   12  137 1    
    27   13   14 ar   
    28   13   15 1    
    29   14  138 1    
    30   15   16 1    
    31   15  139 1    
    32   15  140 1    
    33   16   17 1    
    34   17   18 1    
    35   17  141 1    
    36   17  142 1    
    37   18   19 1    
    38   18   67 1    
    39   18  143 1    
    40   19   20 am   BACKBONE|DICT|INTERRES
    41   19  144 1    
    42   20   21 2    
    43   20   22 1    
    44   22   23 1    
    45   22   24 1    
    46   22  145 1    
    47   23  146 1    
    48   23  147 1    
    49   23  148 1    
    50   24   25 am   BACKBONE|DICT|INTERRES
    51   24  149 1    
    52   25   26 2    
    53   25   27 1    
    54   27   28 1    
    55   27   29 1    
    56   27  150 1    
    57   28  151 1    
    58   28  152 1    
    59   28  153 1    
    60   29   30 am   BACKBONE|DICT|INTERRES
    61   29  154 1    
    62   30   31 2    
    63   30   32 1    
    64   32   33 1    
    65   32   34 1    
    66   32  155 1    
    67   33  156 1    
    68   33  157 1    
    69   33  158 1    
    70   34   35 am   BACKBONE|DICT|INTERRES
    71   34  159 1    
    72   35   36 2    
    73   35   37 1    
    74   37   38 1    
    75   37   39 1    
    76   37  160 1    
    77   38  161 1    
    78   38  162 1    
    79   38  163 1    
    80   39   40 am   BACKBONE|DICT|INTERRES
    81   39  164 1    
    82   40   41 2    
    83   40   42 1    
    84   42   43 1    
    85   42   44 1    
    86   42  165 1    
    87   43  166 1    
    88   43  167 1    
    89   43  168 1    
    90   44   45 am   BACKBONE|DICT|INTERRES
    91   44  169 1    
    92   45   46 2    
    93   45   47 1    
    94   47   48 1    
    95   47   49 1    
    96   47  170 1    
    97   48  171 1    
    98   48  172 1    
    99   48  173 1    
   100   49   50 am   BACKBONE|DICT|INTERRES
   101   49  174 1    
   102   50   51 2    
   103   50   52 1    
   104   52   53 1    
   105   52   54 1    
   106   52  175 1    
   107   53  176 1    
   108   53  177 1    
   109   53  178 1    
   110   54   55 am   BACKBONE|DICT|INTERRES
   111   54  179 1    
   112   55   56 2    
   113   55   57 1    
   114   57   58 1    
   115   57   59 1    
   116   57  180 1    
   117   58  181 1    
   118   58  182 1    
   119   58  183 1    
   120   59   60 am   BACKBONE|DICT|INTERRES
   121   59  184 1    
   122   60   61 2    
   123   60   62 1    
   124   62   63 1    
   125   62   64 1    
   126   62  185 1    
   127   63  186 1    
   128   63  187 1    
   129   63  188 1    
   130   64   65 am   BACKBONE|DICT|INTERRES
   131   64  189 1    
   132   65   66 2    
   133   67   68 2    
   134   67   69 am   BACKBONE|DICT|INTERRES
   135   69   70 1    
   136   69  190 1    
   137   70   71 1    
   138   70   72 1    
   139   70  191 1    
   140   71  192 1    
   141   71  193 1    
   142   71  194 1    
   143   72   73 2    
   144   72   74 am   BACKBONE|DICT|INTERRES
   145   74   75 1    
   146   74  195 1    
   147   75   76 1    
   148   75   77 1    
   149   75  196 1    
   150   76  197 1    
   151   76  198 1    
   152   76  199 1    
   153   77   78 2    
   154   77   79 am   BACKBONE|DICT|INTERRES
   155   79   80 1    
   156   79  200 1    
   157   80   81 1    
   158   80   82 1    
   159   80  201 1    
   160   81  202 1    
   161   81  203 1    
   162   81  204 1    
   163   82   83 2    
   164   82   84 am   BACKBONE|DICT|INTERRES
   165   84   85 1    
   166   84  205 1    
   167   85   86 1    
   168   85   87 1    
   169   85  206 1    
   170   86  207 1    
   171   86  208 1    
   172   86  209 1    
   173   87   88 2    
   174   87   89 am   BACKBONE|DICT|INTERRES
   175   89   90 1    
   176   89  210 1    
   177   90   91 1    
   178   90   92 1    
   179   90  211 1    
   180   91  212 1    
   181   91  213 1    
   182   91  214 1    
   183   92   93 2    
   184   92   94 am   BACKBONE|DICT|INTERRES
   185   94   95 1    
   186   94  215 1    
   187   95   96 1    
   188   95   97 1    
   189   95  216 1    
   190   96  217 1    
   191   96  218 1    
   192   96  219 1    
   193   97   98 2    
   194   97   99 am   BACKBONE|DICT|INTERRES
   195   99  100 1    
   196   99  220 1    
   197  100  101 1    
   198  100  102 1    
   199  100  221 1    
   200  101  222 1    
   201  101  223 1    
   202  101  224 1    
   203  102  103 2    
   204  102  104 am   BACKBONE|DICT|INTERRES
   205  104  105 1    
   206  104  225 1    
   207  105  106 1    
   208  105  107 1    
   209  105  226 1    
   210  106  227 1    
   211  106  228 1    
   212  106  229 1    
   213  107  108 2    
   214  107  109 am   BACKBONE|DICT|INTERRES
   215  109  110 1    
   216  109  230 1    
   217  110  111 1    
   218  110  112 1    
   219  110  231 1    
   220  111  232 1    
   221  111  233 1    
   222  111  234 1    
   223  112  113 2    
   224  112  114 am   BACKBONE|DICT|INTERRES
   225  114  115 1    
   226  114  235 1    
   227  115  116 1    
   228  115  117 1    
   229  115  236 1    
   230  116  237 1    
   231  116  238 1    
   232  116  239 1    
   233  117  118 2    
   234  117  119 am   BACKBONE|DICT|INTERRES
   235  119  120 1    
   236  119  240 1    
   237  120  121 1    
   238  120  124 1    
   239  120  241 1    
   240  121  122 am   BACKBONE|DICT|INTERRES
   241  121  123 2    
   242  122  242 1    
   243  122  243 1    
   244  124  125 1    
   245  124  244 1    
   246  124  245 1    
   247  125  126 1    
   248  126  246 1    
   249  126  247 1    
@<TRIPOS>SUBSTRUCTURE
     1 UNK         1 GROUP             0       ****    0 ROOT    
