@<TRIPOS>MOLECULE
3R540
247   249    1
SMALL
USER_CHARGES


@<TRIPOS>ATOM
      1 CA         -4.9229  -15.8450  -49.3849 C.3       0 UNK        -0.1800 
      2 C          -3.8051  -15.2621  -48.5321 C.2       0 UNK         0.5000 
      3 O          -4.0429  -14.3366  -47.7561 O.2       0 UNK        -0.5000 
      4 N          -2.5869  -15.8048  -48.6573 N.am      1 UNK        -0.5000 
      5 CA         -1.3927  -15.3536  -47.9270 C.3       1 UNK         0.1400 
      6 C6         -0.0754  -15.8363  -48.5802 C.3       23 UNK        -0.0398 
      7 S7         -0.0044  -17.6415  -48.8175 S.3       23 UNK        -0.2404 
      8 C8          1.5104  -17.8096  -49.8011 C.3       23 UNK        -0.0205 
      9 C9          1.5995  -19.2018  -50.4014 C.ar      23 UNK        -0.0193 
     10 C10         1.0518  -19.4548  -51.6629 C.ar      23 UNK        -0.1150 
     11 C11         1.1217  -20.7325  -52.2228 C.ar      23 UNK        -0.0193 
     12 C12         1.7469  -21.7610  -51.5117 C.ar      23 UNK        -0.1150 
     13 C13         2.3063  -21.5187  -50.2533 C.ar      23 UNK        -0.0193 
     14 C14         2.2231  -20.2377  -49.6987 C.ar      23 UNK        -0.1150 
     15 C15         3.0358  -22.6343  -49.5195 C.3       23 UNK        -0.0205 
     16 S16         1.8939  -23.7299  -48.6235 S.3       23 UNK        -0.2404 
     17 C17         1.5547  -22.7578  -47.1170 C.3       23 UNK        -0.0398 
     18 CA          0.9887  -23.6245  -45.9607 C.3       11 UNK         0.1400 
     19 N           1.2728  -23.0192  -44.6592 N.am      11 UNK        -0.5000 
     20 C           1.3764  -23.6912  -43.5026 C.2       10 UNK         0.5000 
     21 O           1.2837  -24.9159  -43.4188 O.2       10 UNK        -0.5000 
     22 CA          1.5856  -22.8576  -42.2182 C.3       10 UNK         0.1400 
     23 CB          3.0740  -22.8097  -41.8438 C.3       10 UNK        -0.1800 
     24 N           1.0756  -21.4886  -42.3277 N.am      10 UNK        -0.5000 
     25 C          -0.2097  -21.1747  -42.5402 C.2       9 UNK         0.5000 
     26 O          -1.1117  -22.0098  -42.5452 O.2       9 UNK        -0.5000 
     27 CA         -0.5469  -19.7109  -42.8773 C.3       9 UNK         0.1400 
     28 CB         -1.1877  -19.0167  -41.6671 C.3       9 UNK        -0.1800 
     29 N           0.5906  -18.9225  -43.3627 N.am      9 UNK        -0.5000 
     30 C           1.2970  -19.1810  -44.4748 C.2       8 UNK         0.5000 
     31 O           1.0589  -20.1261  -45.2271 O.2       8 UNK        -0.5000 
     32 CA          2.5103  -18.2768  -44.7557 C.3       8 UNK         0.1400 
     33 CB          2.1098  -17.0603  -45.5970 C.3       8 UNK        -0.1800 
     34 N           3.1454  -17.8189  -43.5210 N.am      8 UNK        -0.5000 
     35 C           3.9579  -18.5708  -42.7652 C.2       7 UNK         0.5000 
     36 O           4.3070  -19.7124  -43.0634 O.2       7 UNK        -0.5000 
     37 CA          4.4314  -17.9518  -41.4364 C.3       7 UNK         0.1400 
     38 CB          5.6961  -17.1071  -41.6528 C.3       7 UNK        -0.1800 
     39 N           3.3996  -17.1235  -40.8099 N.am      7 UNK        -0.5000 
     40 C           2.2546  -17.5962  -40.2965 C.2       6 UNK         0.5000 
     41 O           1.9846  -18.7949  -40.2263 O.2       6 UNK        -0.5000 
     42 CA          1.2259  -16.5533  -39.8159 C.3       6 UNK         0.1400 
     43 CB          1.3855  -16.2947  -38.3104 C.3       6 UNK        -0.1800 
     44 N           1.3194  -15.2802  -40.5365 N.am      6 UNK        -0.5000 
     45 C           1.0132  -15.1091  -41.8295 C.2       5 UNK         0.5000 
     46 O           0.6025  -16.0101  -42.5638 O.2       5 UNK        -0.5000 
     47 CA          1.3021  -13.7206  -42.4094 C.3       5 UNK         0.1400 
     48 CB          2.6491  -13.7208  -43.1538 C.3       5 UNK        -0.1800 
     49 N           0.2374  -13.3041  -43.3183 N.am      5 UNK        -0.5000 
     50 C          -0.1034  -12.0247  -43.5289 C.2       4 UNK         0.5000 
     51 O           0.4320  -11.0746  -42.9550 O.2       4 UNK        -0.5000 
     52 CA         -1.2229  -11.7390  -44.5428 C.3       4 UNK         0.1400 
     53 CB         -0.6547  -11.6562  -45.9690 C.3       4 UNK        -0.1800 
     54 N          -2.2828  -12.7438  -44.4965 N.am      4 UNK        -0.5000 
     55 C          -3.3620  -12.6740  -43.7039 C.2       3 UNK         0.5000 
     56 O          -3.5583  -11.7598  -42.9021 O.2       3 UNK        -0.5000 
     57 CA         -4.4158  -13.7923  -43.8351 C.3       3 UNK         0.1400 
     58 CB         -5.6189  -13.3017  -44.6556 C.3       3 UNK        -0.1800 
     59 N          -3.8796  -14.9991  -44.4629 N.am      3 UNK        -0.5000 
     60 C          -3.1787  -15.9381  -43.8123 C.2       2 UNK         0.5000 
     61 O          -2.9968  -15.9283  -42.5954 O.2       2 UNK        -0.5000 
     62 CA         -2.5595  -17.0648  -44.6651 C.3       2 UNK         0.1400 
     63 CB         -3.4775  -18.2967  -44.6757 C.3       2 UNK        -0.1800 
     64 N          -2.2835  -16.6753  -46.0484 N.am      2 UNK        -0.5000 
     65 C          -1.4489  -15.6956  -46.4233 C.2       1 UNK         0.5000 
     66 O          -0.7879  -15.0293  -45.6273 O.2       1 UNK        -0.5000 
     67 C          -0.5165  -23.9221  -46.1549 C.2       11 UNK         0.5000 
     68 O          -0.8577  -24.6776  -47.0636 O.2       11 UNK        -0.5000 
     69 N          -1.4057  -23.3589  -45.3180 N.am      12 UNK        -0.5000 
     70 CA         -2.8670  -23.4367  -45.4768 C.3       12 UNK         0.1400 
     71 CB         -3.5496  -22.4749  -44.4937 C.3       12 UNK        -0.1800 
     72 C          -3.4624  -24.8531  -45.3564 C.2       12 UNK         0.5000 
     73 O          -4.5954  -25.0727  -45.7855 O.2       12 UNK        -0.5000 
     74 N          -2.6857  -25.7951  -44.8070 N.am      13 UNK        -0.5000 
     75 CA         -2.9970  -27.2230  -44.7853 C.3       13 UNK         0.1400 
     76 CB         -2.0481  -27.9161  -43.7953 C.3       13 UNK        -0.1800 
     77 C          -2.9064  -27.8908  -46.1752 C.2       13 UNK         0.5000 
     78 O          -3.4938  -28.9581  -46.3583 O.2       13 UNK        -0.5000 
     79 N          -2.1727  -27.2751  -47.1142 N.am      14 UNK        -0.5000 
     80 CA         -1.9272  -27.7943  -48.4596 C.3       14 UNK         0.1400 
     81 CB         -0.4297  -28.1126  -48.6024 C.3       14 UNK        -0.1800 
     82 C          -2.3681  -26.8146  -49.5602 C.2       14 UNK         0.5000 
     83 O          -2.8962  -27.2621  -50.5795 O.2       14 UNK        -0.5000 
     84 N          -2.1316  -25.5121  -49.3623 N.am      15 UNK        -0.5000 
     85 CA         -2.3316  -24.4677  -50.3611 C.3       15 UNK         0.1400 
     86 CB         -1.1101  -24.4266  -51.3049 C.3       15 UNK        -0.1800 
     87 C          -2.6524  -23.1316  -49.6637 C.2       15 UNK         0.5000 
     88 O          -3.7073  -23.0274  -49.0388 O.2       15 UNK        -0.5000 
     89 N          -1.7670  -22.1334  -49.8083 N.am      16 UNK        -0.5000 
     90 CA         -1.8517  -20.7498  -49.3106 C.3       16 UNK         0.1400 
     91 CB         -2.0058  -20.6880  -47.7779 C.3       16 UNK        -0.1800 
     92 C          -2.9060  -19.8637  -50.0080 C.2       16 UNK         0.5000 
     93 O          -3.0916  -18.7117  -49.6073 O.2       16 UNK        -0.5000 
     94 N          -3.5556  -20.3729  -51.0619 N.am      17 UNK        -0.5000 
     95 CA         -4.5785  -19.6888  -51.8566 C.3       17 UNK         0.1400 
     96 CB         -5.4625  -20.7472  -52.5390 C.3       17 UNK        -0.1800 
     97 C          -3.9718  -18.6800  -52.8559 C.2       17 UNK         0.5000 
     98 O          -4.2977  -18.7022  -54.0451 O.2       17 UNK        -0.5000 
     99 N          -3.0952  -17.8022  -52.3510 N.am      18 UNK        -0.5000 
    100 CA        -2.3282  -16.8032  -53.1007 C.3       18 UNK         0.1400 
    101 CB        -1.3947  -16.0610  -52.1361 C.3       18 UNK        -0.1800 
    102 C         -3.1897  -15.7966  -53.8853 C.2       18 UNK         0.5000 
    103 O         -2.7461  -15.3060  -54.9227 O.2       18 UNK        -0.5000 
    104 N         -4.4234  -15.5550  -53.4192 N.am      19 UNK        -0.5000 
    105 CA        -5.4396  -14.7437  -54.0963 C.3       19 UNK         0.1400 
    106 CB        -6.6451  -14.5777  -53.1586 C.3       19 UNK        -0.1800 
    107 C         -5.8879  -15.3210  -55.4569 C.2       19 UNK         0.5000 
    108 O         -6.3276  -14.5609  -56.3199 O.2       19 UNK        -0.5000 
    109 N         -5.7444  -16.6417  -55.6287 N.am      20 UNK        -0.5000 
    110 CA        -5.9785  -17.3764  -56.8721 C.3       20 UNK         0.1400 
    111 CB        -6.9596  -18.5237  -56.5730 C.3       20 UNK        -0.1800 
    112 C         -4.6563  -17.9167  -57.4578 C.2       20 UNK         0.5000 
    113 O         -4.6927  -18.7882  -58.3288 O.2       20 UNK        -0.5000 
    114 N         -3.5115  -17.4404  -56.9375 N.am      21 UNK        -0.5000 
    115 CA        -2.1386  -17.8778  -57.2286 C.3       21 UNK         0.1400 
    116 CB        -1.7308  -17.4418  -58.6506 C.3       21 UNK        -0.1800 
    117 C         -1.9003  -19.3856  -56.9793 C.2       21 UNK         0.5000 
    118 O         -1.0218  -19.9801  -57.6063 O.2       21 UNK        -0.5000 
    119 N         -2.7091  -19.9783  -56.0901 N.am      22 UNK        -0.5000 
    120 CA        -2.8277  -21.4224  -55.8359 C.3       22 UNK         0.1400 
    121 C         -3.3177  -22.2590  -57.0603 C.2       22 UNK         0.5000 
    122 N         -3.9561  -21.6621  -58.0612 N.am      22 UNK        -0.7600 
    123 O         -3.1503  -23.4752  -57.0958 O.2       22 UNK        -0.5000 
    124 C124       -1.5775  -22.0252  -55.1399 C.3       23 UNK        -0.0398 
    125 S125       -1.2547  -21.2574  -53.5155 S.3       23 UNK        -0.2404 
    126 C126        0.5397  -20.9973  -53.6019 C.3       23 UNK        -0.0205 
    127 H127       -4.5375  -16.5076  -50.1582 H         1 UNK         0.0600 
    128 H128       -5.4792  -15.0448  -49.8730 H         1 UNK         0.0600 
    129 H129       -5.6133  -16.4120  -48.7608 H         1 UNK         0.0600 
    130 H130       -2.4655  -16.6363  -49.2236 H         1 UNK         0.3000 
    131 H131       -1.3825  -14.2626  -47.9793 H         1 UNK         0.0600 
    132 H132        0.7898  -15.5157  -47.9968 H         1 UNK         0.0800 
    133 H133        0.0334  -15.3589  -49.5546 H         1 UNK         0.0800 
    134 H134        2.3779  -17.6100  -49.1701 H         1 UNK         0.0800 
    135 H135        1.5247  -17.0615  -50.5951 H         1 UNK         0.0800 
    136 H136        0.5667  -18.6595  -52.2104 H         1 UNK         0.1150 
    137 H137        1.8111  -22.7504  -51.9429 H         1 UNK         0.1150 
    138 H138        2.6482  -20.0441  -48.7237 H         1 UNK         0.1150 
    139 H139        3.5933  -23.2328  -50.2415 H         1 UNK         0.0800 
    140 H140        3.7794  -22.2256  -48.8337 H         1 UNK         0.0800 
    141 H141        0.8992  -21.9219  -47.3622 H         1 UNK         0.0800 
    142 H142        2.4982  -22.3081  -46.8037 H         1 UNK         0.0800 
    143 H143        1.5019  -24.5885  -45.9872 H         1 UNK         0.0600 
    144 H144        1.3290  -22.0052  -44.6506 H         1 UNK         0.3000 
    145 H145        1.0431  -23.3529  -41.4104 H         1 UNK         0.0600 
    146 H146        3.2330  -22.2492  -40.9222 H         1 UNK         0.0600 
    147 H147        3.6700  -22.3423  -42.6285 H         1 UNK         0.0600 
    148 H148        3.4692  -23.8141  -41.6867 H         1 UNK         0.0600 
    149 H149        1.7581  -20.7435  -42.3197 H         1 UNK         0.3000 
    150 H150       -1.2789  -19.7390  -43.6844 H         1 UNK         0.0600 
    151 H151       -2.1533  -19.4660  -41.4326 H         1 UNK         0.0600 
    152 H152       -1.3586  -17.9570  -41.8516 H         1 UNK         0.0600 
    153 H153       -0.5671  -19.1067  -40.7766 H         1 UNK         0.0600 
    154 H154        0.8170  -18.0860  -42.8376 H         1 UNK         0.3000 
    155 H155        3.2339  -18.8596  -45.3301 H         1 UNK         0.0600 
    156 H156        1.6715  -17.3798  -46.5403 H         1 UNK         0.0600 
    157 H157        2.9734  -16.4386  -45.8333 H         1 UNK         0.0600 
    158 H158        1.3764  -16.4379  -45.0850 H         1 UNK         0.0600 
    159 H159        2.8765  -16.9054  -43.1872 H         1 UNK         0.3000 
    160 H160        4.6764  -18.7694  -40.7549 H         1 UNK         0.0600 
    161 H161        5.5083  -16.2598  -42.3137 H         1 UNK         0.0600 
    162 H162        6.4910  -17.7041  -42.1019 H         1 UNK         0.0600 
    163 H163        6.0776  -16.7186  -40.7081 H         1 UNK         0.0600 
    164 H164        3.5530  -16.1262  -40.8063 H         1 UNK         0.3000 
    165 H165        0.2291  -16.9641  -39.9866 H         1 UNK         0.0600 
    166 H166        0.6169  -15.6141  -37.9433 H         1 UNK         0.0600 
    167 H167        1.2936  -17.2221  -37.7436 H         1 UNK         0.0600 
    168 H168        2.3589  -15.8616  -38.0759 H         1 UNK         0.0600 
    169 H169        1.6605  -14.4916  -40.0051 H         1 UNK         0.3000 
    170 H170        1.3614  -13.0172  -41.5760 H         1 UNK         0.0600 
    171 H171        2.6272  -14.3815  -44.0211 H         1 UNK         0.0600 
    172 H172        2.9060  -12.7212  -43.5044 H         1 UNK         0.0600 
    173 H173        3.4599  -14.0535  -42.5046 H         1 UNK         0.0600 
    174 H174       -0.2245  -14.0481  -43.8331 H         1 UNK         0.3000 
    175 H175       -1.6470  -10.7611  -44.3037 H         1 UNK         0.0600 
    176 H176       -0.1448  -12.5741  -46.2608 H         1 UNK         0.0600 
    177 H177       -1.4420  -11.4624  -46.6977 H         1 UNK         0.0600 
    178 H178        0.0696  -10.8447  -46.0494 H         1 UNK         0.0600 
    179 H179       -2.1464  -13.5645  -45.0723 H         1 UNK         0.3000 
    180 H180       -4.7689  -14.0354  -42.8306 H         1 UNK         0.0600 
    181 H181       -6.3892  -14.0701  -44.7254 H         1 UNK         0.0600 
    182 H182       -5.3284  -13.0240  -45.6696 H         1 UNK         0.0600 
    183 H183       -6.0758  -12.4252  -44.1939 H         1 UNK         0.0600 
    184 H184       -3.9818  -15.0693  -45.4670 H         1 UNK         0.3000 
    185 H185       -1.6062  -17.3323  -44.2081 H         1 UNK         0.0600 
    186 H186       -4.4479  -18.0702  -45.1192 H         1 UNK         0.0600 
    187 H187       -3.0351  -19.1144  -45.2440 H         1 UNK         0.0600 
    188 H188       -3.6563  -18.6608  -43.6632 H         1 UNK         0.0600 
    189 H189       -2.7896  -17.1663  -46.7713 H         1 UNK         0.3000 
    190 H190       -1.0712  -22.8082  -44.5368 H         1 UNK         0.3000 
    191 H191       -3.0966  -23.0962  -46.4857 H         1 UNK         0.0600 
    192 H192       -3.1398  -21.4686  -44.5728 H         1 UNK         0.0600 
    193 H193       -3.4357  -22.8084  -43.4621 H         1 UNK         0.0600 
    194 H194       -4.6191  -22.4062  -44.6964 H         1 UNK         0.0600 
    195 H195       -1.7738  -25.5224  -44.4701 H         1 UNK         0.3000 
    196 H196       -4.0202  -27.3478  -44.4249 H         1 UNK         0.0600 
    197 H197       -2.1516  -27.5008  -42.7926 H         1 UNK         0.0600 
    198 H198       -1.0051  -27.8104  -44.0968 H         1 UNK         0.0600 
    199 H199       -2.2640  -28.9832  -43.7276 H         1 UNK         0.0600 
    200 H200       -1.7409  -26.3834  -46.8940 H         1 UNK         0.3000 
    201 H201       -2.4827  -28.7205  -48.6197 H         1 UNK         0.0600 
    202 H202       -0.1181  -28.8682  -47.8811 H         1 UNK         0.0600 
    203 H203        0.1867  -27.2260  -48.4460 H         1 UNK         0.0600 
    204 H204       -0.2042  -28.4993  -49.5971 H         1 UNK         0.0600 
    205 H205       -1.6954  -25.2044  -48.4935 H         1 UNK         0.3000 
    206 H206       -3.2127  -24.7097  -50.9593 H         1 UNK         0.0600 
    207 H207       -0.1870  -24.2016  -50.7705 H         1 UNK         0.0600 
    208 H208       -0.9702  -25.3838  -51.8072 H         1 UNK         0.0600 
    209 H209       -1.2403  -23.6827  -52.0874 H         1 UNK         0.0600 
    210 H210       -0.9372  -22.3296  -50.3517 H         1 UNK         0.3000 
    211 H211       -0.8864  -20.3107  -49.5560 H         1 UNK         0.0600 
    212 H212       -3.0073  -20.9764  -47.4600 H         1 UNK         0.0600 
    213 H213       -1.8323  -19.6763  -47.4102 H         1 UNK         0.0600 
    214 H214       -1.2890  -21.3323  -47.2769 H         1 UNK         0.0600 
    215 H215       -3.3000  -21.3003  -51.3651 H         1 UNK         0.3000 
    216 H216       -5.2169  -19.1147  -51.1820 H         1 UNK         0.0600 
    217 H217       -6.2443  -20.2829  -53.1417 H         1 UNK         0.0600 
    218 H218       -5.9576  -21.3777  -51.8002 H         1 UNK         0.0600 
    219 H219       -4.8813  -21.3967  -53.1924 H         1 UNK         0.0600 
    220 H220       -2.8929  -17.8879  -51.3607 H         1 UNK         0.3000 
    221 H221       -1.7152  -17.3446  -53.8241 H         1 UNK         0.0600 
    222 H222       -1.9540  -15.4826  -51.4006 H         1 UNK         0.0600 
    223 H223       -0.7509  -16.7563  -51.6009 H         1 UNK         0.0600 
    224 H224       -0.7468  -15.3678  -52.6741 H         1 UNK         0.0600 
    225 H225       -4.7058  -16.0109  -52.5652 H         1 UNK         0.3000 
    226 H226       -5.0107  -13.7572  -54.2841 H         1 UNK         0.0600 
    227 H227       -6.3563  -14.0926  -52.2260 H         1 UNK         0.0600 
    228 H228       -7.4164  -13.9589  -53.6193 H         1 UNK         0.0600 
    229 H229       -7.0989  -15.5386  -52.9124 H         1 UNK         0.0600 
    230 H230       -5.3539  -17.1946  -54.8724 H         1 UNK         0.3000 
    231 H231       -6.4243  -16.7278  -57.6283 H         1 UNK         0.0600 
    232 H232       -7.2159  -19.0720  -57.4803 H         1 UNK         0.0600 
    233 H233       -7.8909  -18.1450  -56.1514 H         1 UNK         0.0600 
    234 H234       -6.5371  -19.2376  -55.8643 H         1 UNK         0.0600 
    235 H235       -3.5821  -16.7093  -56.2399 H         1 UNK         0.3000 
    236 H236       -1.4941  -17.3513  -56.5236 H         1 UNK         0.0600 
    237 H237       -2.2951  -17.9776  -59.4146 H         1 UNK         0.0600 
    238 H238       -1.8962  -16.3745  -58.7976 H         1 UNK         0.0600 
    239 H239       -0.6722  -17.6317  -58.8319 H         1 UNK         0.0600 
    240 H240       -3.3708  -19.4015  -55.5794 H         1 UNK         0.3000 
    241 H241       -3.6511  -21.5108  -55.1289 H         1 UNK         0.0600 
    242 H242       -4.1222  -20.6602  -58.0613 H         1 UNK         0.3800 
    243 H243       -4.2762  -22.2158  -58.8398 H         1 UNK         0.3800 
    244 H244       -0.7029  -21.9326  -55.7847 H         1 UNK         0.0800 
    245 H245       -1.7106  -23.0933  -54.9619 H         1 UNK         0.0800 
    246 H246        1.0157  -21.8745  -54.0431 H         1 UNK         0.0800 
    247 H247        0.7523  -20.1600  -54.2684 H         1 UNK         0.0800 
@<TRIPOS>BOND
     1    1    2 1    
     2    1  127 1    
     3    1  128 1    
     4    1  129 1    
     5    2    3 2    
     6    2    4 am   BACKBONE|DICT|INTERRES
     7    4    5 1    
     8    4  130 1    
     9    5    6 1    
    10    5   65 1    
    11    5  131 1    
    12    6    7 1    
    13    6  132 1    
    14    6  133 1    
    15    7    8 1    
    16    8    9 1    
    17    8  134 1    
    18    8  135 1    
    19    9   10 ar   
    20    9   14 ar   
    21   10   11 ar   
    22   10  136 1    
    23   11   12 ar   
    24   11  126 1    
    25   12   13 ar   
    26   12  137 1    
    27   13   14 ar   
    28   13   15 1    
    29   14  138 1    
    30   15   16 1    
    31   15  139 1    
    32   15  140 1    
    33   16   17 1    
    34   17   18 1    
    35   17  141 1    
    36   17  142 1    
    37   18   19 1    
    38   18   67 1    
    39   18  143 1    
    40   19   20 am   BACKBONE|DICT|INTERRES
    41   19  144 1    
    42   20   21 2    
    43   20   22 1    
    44   22   23 1    
    45   22   24 1    
    46   22  145 1    
    47   23  146 1    
    48   23  147 1    
    49   23  148 1    
    50   24   25 am   BACKBONE|DICT|INTERRES
    51   24  149 1    
    52   25   26 2    
    53   25   27 1    
    54   27   28 1    
    55   27   29 1    
    56   27  150 1    
    57   28  151 1    
    58   28  152 1    
    59   28  153 1    
    60   29   30 am   BACKBONE|DICT|INTERRES
    61   29  154 1    
    62   30   31 2    
    63   30   32 1    
    64   32   33 1    
    65   32   34 1    
    66   32  155 1    
    67   33  156 1    
    68   33  157 1    
    69   33  158 1    
    70   34   35 am   BACKBONE|DICT|INTERRES
    71   34  159 1    
    72   35   36 2    
    73   35   37 1    
    74   37   38 1    
    75   37   39 1    
    76   37  160 1    
    77   38  161 1    
    78   38  162 1    
    79   38  163 1    
    80   39   40 am   BACKBONE|DICT|INTERRES
    81   39  164 1    
    82   40   41 2    
    83   40   42 1    
    84   42   43 1    
    85   42   44 1    
    86   42  165 1    
    87   43  166 1    
    88   43  167 1    
    89   43  168 1    
    90   44   45 am   BACKBONE|DICT|INTERRES
    91   44  169 1    
    92   45   46 2    
    93   45   47 1    
    94   47   48 1    
    95   47   49 1    
    96   47  170 1    
    97   48  171 1    
    98   48  172 1    
    99   48  173 1    
   100   49   50 am   BACKBONE|DICT|INTERRES
   101   49  174 1    
   102   50   51 2    
   103   50   52 1    
   104   52   53 1    
   105   52   54 1    
   106   52  175 1    
   107   53  176 1    
   108   53  177 1    
   109   53  178 1    
   110   54   55 am   BACKBONE|DICT|INTERRES
   111   54  179 1    
   112   55   56 2    
   113   55   57 1    
   114   57   58 1    
   115   57   59 1    
   116   57  180 1    
   117   58  181 1    
   118   58  182 1    
   119   58  183 1    
   120   59   60 am   BACKBONE|DICT|INTERRES
   121   59  184 1    
   122   60   61 2    
   123   60   62 1    
   124   62   63 1    
   125   62   64 1    
   126   62  185 1    
   127   63  186 1    
   128   63  187 1    
   129   63  188 1    
   130   64   65 am   BACKBONE|DICT|INTERRES
   131   64  189 1    
   132   65   66 2    
   133   67   68 2    
   134   67   69 am   BACKBONE|DICT|INTERRES
   135   69   70 1    
   136   69  190 1    
   137   70   71 1    
   138   70   72 1    
   139   70  191 1    
   140   71  192 1    
   141   71  193 1    
   142   71  194 1    
   143   72   73 2    
   144   72   74 am   BACKBONE|DICT|INTERRES
   145   74   75 1    
   146   74  195 1    
   147   75   76 1    
   148   75   77 1    
   149   75  196 1    
   150   76  197 1    
   151   76  198 1    
   152   76  199 1    
   153   77   78 2    
   154   77   79 am   BACKBONE|DICT|INTERRES
   155   79   80 1    
   156   79  200 1    
   157   80   81 1    
   158   80   82 1    
   159   80  201 1    
   160   81  202 1    
   161   81  203 1    
   162   81  204 1    
   163   82   83 2    
   164   82   84 am   BACKBONE|DICT|INTERRES
   165   84   85 1    
   166   84  205 1    
   167   85   86 1    
   168   85   87 1    
   169   85  206 1    
   170   86  207 1    
   171   86  208 1    
   172   86  209 1    
   173   87   88 2    
   174   87   89 am   BACKBONE|DICT|INTERRES
   175   89   90 1    
   176   89  210 1    
   177   90   91 1    
   178   90   92 1    
   179   90  211 1    
   180   91  212 1    
   181   91  213 1    
   182   91  214 1    
   183   92   93 2    
   184   92   94 am   BACKBONE|DICT|INTERRES
   185   94   95 1    
   186   94  215 1    
   187   95   96 1    
   188   95   97 1    
   189   95  216 1    
   190   96  217 1    
   191   96  218 1    
   192   96  219 1    
   193   97   98 2    
   194   97   99 am   BACKBONE|DICT|INTERRES
   195   99  100 1    
   196   99  220 1    
   197  100  101 1    
   198  100  102 1    
   199  100  221 1    
   200  101  222 1    
   201  101  223 1    
   202  101  224 1    
   203  102  103 2    
   204  102  104 am   BACKBONE|DICT|INTERRES
   205  104  105 1    
   206  104  225 1    
   207  105  106 1    
   208  105  107 1    
   209  105  226 1    
   210  106  227 1    
   211  106  228 1    
   212  106  229 1    
   213  107  108 2    
   214  107  109 am   BACKBONE|DICT|INTERRES
   215  109  110 1    
   216  109  230 1    
   217  110  111 1    
   218  110  112 1    
   219  110  231 1    
   220  111  232 1    
   221  111  233 1    
   222  111  234 1    
   223  112  113 2    
   224  112  114 am   BACKBONE|DICT|INTERRES
   225  114  115 1    
   226  114  235 1    
   227  115  116 1    
   228  115  117 1    
   229  115  236 1    
   230  116  237 1    
   231  116  238 1    
   232  116  239 1    
   233  117  118 2    
   234  117  119 am   BACKBONE|DICT|INTERRES
   235  119  120 1    
   236  119  240 1    
   237  120  121 1    
   238  120  124 1    
   239  120  241 1    
   240  121  122 am   BACKBONE|DICT|INTERRES
   241  121  123 2    
   242  122  242 1    
   243  122  243 1    
   244  124  125 1    
   245  124  244 1    
   246  124  245 1    
   247  125  126 1    
   248  126  246 1    
   249  126  247 1    
@<TRIPOS>SUBSTRUCTURE
     1 UNK         1 GROUP             0       ****    0 ROOT    
