@<TRIPOS>MOLECULE
3R540
247   249    1
SMALL
USER_CHARGES


@<TRIPOS>ATOM
      1 CA          2.4672  -13.4496  -53.7465 C.3       0 UNK        -0.1800 
      2 C           1.8206  -13.4449  -52.3691 C.2       0 UNK         0.5000 
      3 O           0.9582  -12.6080  -52.1023 O.2       0 UNK        -0.5000 
      4 N           2.2512  -14.3605  -51.4912 N.am      1 UNK        -0.5000 
      5 CA          1.7684  -14.6223  -50.1239 C.3       1 UNK         0.1400 
      6 C6          0.2541  -14.9324  -50.0259 C.3       23 UNK        -0.0398 
      7 S7         -0.3113  -16.2889  -51.1002 S.3       23 UNK        -0.2404 
      8 C8         -0.5509  -17.6339  -49.8947 C.3       23 UNK        -0.0205 
      9 C9          0.7677  -18.3296  -49.6464 C.ar      23 UNK        -0.0193 
     10 C10         1.2232  -19.2542  -50.5814 C.ar      23 UNK        -0.1150 
     11 C11         2.5208  -19.7658  -50.5102 C.ar      23 UNK        -0.0193 
     12 C12         3.3159  -19.4270  -49.4093 C.ar      23 UNK        -0.1150 
     13 C13         2.8380  -18.5590  -48.4191 C.ar      23 UNK        -0.0193 
     14 C14         1.5637  -18.0021  -48.5499 C.ar      23 UNK        -0.1150 
     15 C15         3.7065  -18.1962  -47.2235 C.3       23 UNK        -0.0205 
     16 S16         3.1627  -19.0484  -45.7092 S.3       23 UNK        -0.2404 
     17 C17         3.3573  -20.7884  -46.2159 C.3       23 UNK        -0.0398 
     18 CA          3.5509  -21.7626  -45.0290 C.3       11 UNK         0.1400 
     19 N           2.4562  -21.6703  -44.0564 N.am      11 UNK        -0.5000 
     20 C           2.5263  -22.0428  -42.7713 C.2       10 UNK         0.5000 
     21 O           3.5614  -22.4241  -42.2249 O.2       10 UNK        -0.5000 
     22 CA          1.2052  -22.0335  -41.9786 C.3       10 UNK         0.1400 
     23 CB          1.0514  -20.7206  -41.1954 C.3       10 UNK        -0.1800 
     24 N           0.0378  -22.2340  -42.8445 N.am      10 UNK        -0.5000 
     25 C          -0.2972  -23.4129  -43.3941 C.2       9 UNK         0.5000 
     26 O           0.3248  -24.4549  -43.1904 O.2       9 UNK        -0.5000 
     27 CA         -1.4826  -23.4338  -44.3807 C.3       9 UNK         0.1400 
     28 CB         -2.7952  -23.7513  -43.6502 C.3       9 UNK        -0.1800 
     29 N          -1.6377  -22.1814  -45.1173 N.am      9 UNK        -0.5000 
     30 C          -0.7498  -21.6846  -45.9887 C.2       8 UNK         0.5000 
     31 O           0.2596  -22.2950  -46.3438 O.2       8 UNK        -0.5000 
     32 CA         -1.0172  -20.2576  -46.5130 C.3       8 UNK         0.1400 
     33 CB         -1.6388  -20.3154  -47.9111 C.3       8 UNK        -0.1800 
     34 N          -1.8941  -19.4575  -45.6478 N.am      8 UNK        -0.5000 
     35 C          -1.6076  -19.1014  -44.3863 C.2       7 UNK         0.5000 
     36 O          -0.5956  -19.4828  -43.7988 O.2       7 UNK        -0.5000 
     37 CA         -2.6266  -18.2153  -43.6486 C.3       7 UNK         0.1400 
     38 CB         -1.9750  -17.3491  -42.5545 C.3       7 UNK        -0.1800 
     39 N          -3.3681  -17.3665  -44.5794 N.am      7 UNK        -0.5000 
     40 C          -4.6542  -17.0142  -44.4397 C.2       6 UNK         0.5000 
     41 O          -5.3574  -17.3894  -43.5001 O.2       6 UNK        -0.5000 
     42 CA         -5.2502  -16.0711  -45.5054 C.3       6 UNK         0.1400 
     43 CB         -6.2916  -15.1022  -44.9168 C.3       6 UNK        -0.1800 
     44 N          -4.1992  -15.2951  -46.1629 N.am      6 UNK        -0.5000 
     45 C          -4.0149  -15.2070  -47.4845 C.2       5 UNK         0.5000 
     46 O          -4.7937  -15.6756  -48.3138 O.2       5 UNK        -0.5000 
     47 CA         -2.7445  -14.4780  -47.9758 C.3       5 UNK         0.1400 
     48 CB         -3.1012  -13.1099  -48.5758 C.3       5 UNK        -0.1800 
     49 N          -1.6938  -14.2850  -46.9653 N.am      5 UNK        -0.5000 
     50 C          -1.0488  -15.2567  -46.3033 C.2       4 UNK         0.5000 
     51 O          -1.2982  -16.4494  -46.4688 O.2       4 UNK        -0.5000 
     52 CA          0.0238  -14.8442  -45.2733 C.3       4 UNK         0.1400 
     53 CB          1.2293  -15.7985  -45.2785 C.3       4 UNK        -0.1800 
     54 N           0.4998  -13.4695  -45.4426 N.am      4 UNK        -0.5000 
     55 C          -0.0583  -12.3906  -44.8750 C.2       3 UNK         0.5000 
     56 O          -1.0771  -12.4423  -44.1858 O.2       3 UNK        -0.5000 
     57 CA          0.6167  -11.0239  -45.1149 C.3       3 UNK         0.1400 
     58 CB          1.4285  -10.6045  -43.8796 C.3       3 UNK        -0.1800 
     59 N           1.4930  -10.9890  -46.2877 N.am      3 UNK        -0.5000 
     60 C           1.0750  -11.0579  -47.5577 C.2       2 UNK         0.5000 
     61 O          -0.1123  -11.1523  -47.8745 O.2       2 UNK        -0.5000 
     62 CA          2.1505  -11.0513  -48.6661 C.3       2 UNK         0.1400 
     63 CB          3.5989  -10.8680  -48.1581 C.3       2 UNK        -0.1800 
     64 N           2.0407  -12.2512  -49.4979 N.am      2 UNK        -0.5000 
     65 C           2.1189  -13.5262  -49.0940 C.2       1 UNK         0.5000 
     66 O           2.4153  -13.8590  -47.9456 O.2       1 UNK        -0.5000 
     67 C           3.7217  -23.2012  -45.5699 C.2       11 UNK         0.5000 
     68 O           4.6964  -23.4629  -46.2754 O.2       11 UNK        -0.5000 
     69 N           2.7636  -24.0899  -45.2601 N.am      12 UNK        -0.5000 
     70 CA          2.6166  -25.4616  -45.7514 C.3       12 UNK         0.1400 
     71 CB          3.8006  -26.3476  -45.3100 C.3       12 UNK        -0.1800 
     72 C           2.3353  -25.5241  -47.2676 C.2       12 UNK         0.5000 
     73 O           2.7471  -26.4774  -47.9310 O.2       12 UNK        -0.5000 
     74 N           1.6178  -24.5170  -47.7913 N.am      13 UNK        -0.5000 
     75 CA          1.2013  -24.4467  -49.1954 C.3       13 UNK         0.1400 
     76 CB          0.7888  -23.0046  -49.5247 C.3       13 UNK        -0.1800 
     77 C           0.0476  -25.4161  -49.5233 C.2       13 UNK         0.5000 
     78 O          -0.1304  -25.7670  -50.6898 O.2       13 UNK        -0.5000 
     79 N          -0.7107  -25.8183  -48.4890 N.am      14 UNK        -0.5000 
     80 CA         -1.8603  -26.7323  -48.5223 C.3       14 UNK         0.1400 
     81 CB         -1.4167  -28.1551  -48.9225 C.3       14 UNK        -0.1800 
     82 C          -3.0382  -26.2044  -49.3706 C.2       14 UNK         0.5000 
     83 O          -3.7635  -26.9893  -49.9852 O.2       14 UNK        -0.5000 
     84 N          -3.2046  -24.8756  -49.3874 N.am      15 UNK        -0.5000 
     85 CA         -4.2790  -24.1749  -50.0853 C.3       15 UNK         0.1400 
     86 CB         -3.9533  -22.6762  -50.1061 C.3       15 UNK        -0.1800 
     87 C          -5.6385  -24.3991  -49.4031 C.2       15 UNK         0.5000 
     88 O          -5.7044  -24.4442  -48.1707 O.2       15 UNK        -0.5000 
     89 N          -6.7030  -24.4757  -50.2120 N.am      16 UNK        -0.5000 
     90 CA         -8.0918  -24.5544  -49.7578 C.3       16 UNK         0.1400 
     91 CB         -9.0171  -24.7173  -50.9733 C.3       16 UNK        -0.1800 
     92 C          -8.4686  -23.3055  -48.9420 C.2       16 UNK         0.5000 
     93 O          -8.3154  -22.1894  -49.4412 O.2       16 UNK        -0.5000 
     94 N          -8.8816  -23.5188  -47.6851 N.am      17 UNK        -0.5000 
     95 CA         -9.1910  -22.4963  -46.6757 C.3       17 UNK         0.1400 
     96 CB        -10.4624  -21.7161  -47.0717 C.3       17 UNK        -0.1800 
     97 C          -8.0040  -21.5603  -46.3420 C.2       17 UNK         0.5000 
     98 O          -8.2270  -20.4463  -45.8658 O.2       17 UNK        -0.5000 
     99 N          -6.7691  -22.0241  -46.6031 N.am      18 UNK        -0.5000 
    100 CA        -5.4978  -21.3072  -46.4449 C.3       18 UNK         0.1400 
    101 CB        -5.2283  -21.0108  -44.9542 C.3       18 UNK        -0.1800 
    102 C         -5.3752  -20.0493  -47.3385 C.2       18 UNK         0.5000 
    103 O         -4.6376  -19.1277  -46.9845 O.2       18 UNK        -0.5000 
    104 N         -6.1010  -20.0388  -48.4674 N.am      19 UNK        -0.5000 
    105 CA        -6.2001  -18.9331  -49.4222 C.3       19 UNK         0.1400 
    106 CB        -7.3430  -19.2461  -50.4026 C.3       19 UNK        -0.1800 
    107 C         -4.8961  -18.6290  -50.1881 C.2       19 UNK         0.5000 
    108 O         -3.9299  -19.3922  -50.1247 O.2       19 UNK        -0.5000 
    109 N         -4.9123  -17.5102  -50.9255 N.am      20 UNK        -0.5000 
    110 CA        -3.7784  -16.8925  -51.6154 C.3       20 UNK         0.1400 
    111 CB        -4.1331  -15.4276  -51.9277 C.3       20 UNK        -0.1800 
    112 C         -3.2677  -17.6558  -52.8637 C.2       20 UNK         0.5000 
    113 O         -3.1344  -17.0654  -53.9377 O.2       20 UNK        -0.5000 
    114 N         -2.9913  -18.9560  -52.7096 N.am      21 UNK        -0.5000 
    115 CA        -2.6397  -19.8974  -53.7771 C.3       21 UNK         0.1400 
    116 CB        -2.5331  -21.3087  -53.1829 C.3       21 UNK        -0.1800 
    117 C         -1.3650  -19.5601  -54.5753 C.2       21 UNK         0.5000 
    118 O         -1.3142  -19.8680  -55.7672 O.2       21 UNK        -0.5000 
    119 N         -0.3718  -18.9434  -53.9223 N.am      22 UNK        -0.5000 
    120 CA         0.8982  -18.5235  -54.5478 C.3       22 UNK         0.1400 
    121 C          0.9009  -17.0247  -54.9734 C.2       22 UNK         0.5000 
    122 N         -0.2082  -16.2983  -54.8816 N.am      22 UNK        -0.7600 
    123 O          1.9245  -16.5120  -55.4170 O.2       22 UNK        -0.5000 
    124 C124        2.1510  -18.8915  -53.6999 C.3       23 UNK        -0.0398 
    125 S125        2.1995  -20.6606  -53.2127 S.3       23 UNK        -0.2404 
    126 C126        3.1092  -20.6432  -51.6180 C.3       23 UNK        -0.0205 
    127 H127        2.9793  -12.5043  -53.9254 H         1 UNK         0.0600 
    128 H128        1.7063  -13.5785  -54.5161 H         1 UNK         0.0600 
    129 H129        3.1923  -14.2570  -53.8518 H         1 UNK         0.0600 
    130 H130        2.9848  -14.9866  -51.7910 H         1 UNK         0.3000 
    131 H131        2.3050  -15.5166  -49.8041 H         1 UNK         0.0600 
    132 H132        0.0070  -15.1837  -48.9961 H         1 UNK         0.0800 
    133 H133       -0.3394  -14.0495  -50.2685 H         1 UNK         0.0800 
    134 H134       -0.9859  -17.2602  -48.9679 H         1 UNK         0.0800 
    135 H135       -1.2632  -18.3546  -50.2973 H         1 UNK         0.0800 
    136 H136        0.5786  -19.5101  -51.4063 H         1 UNK         0.1150 
    137 H137        4.3159  -19.8296  -49.3308 H         1 UNK         0.1150 
    138 H138        1.1992  -17.3015  -47.8136 H         1 UNK         0.1150 
    139 H139        4.7529  -18.4360  -47.4180 H         1 UNK         0.0800 
    140 H140        3.6673  -17.1185  -47.0594 H         1 UNK         0.0800 
    141 H141        2.4882  -21.0646  -46.8144 H         1 UNK         0.0800 
    142 H142        4.2166  -20.8511  -46.8861 H         1 UNK         0.0800 
    143 H143        4.4828  -21.4972  -44.5253 H         1 UNK         0.0600 
    144 H144        1.5693  -21.3503  -44.4187 H         1 UNK         0.3000 
    145 H145        1.2427  -22.8530  -41.2577 H         1 UNK         0.0600 
    146 H146        0.1052  -20.6887  -40.6551 H         1 UNK         0.0600 
    147 H147        1.0956  -19.8498  -41.8497 H         1 UNK         0.0600 
    148 H148        1.8500  -20.6135  -40.4605 H         1 UNK         0.0600 
    149 H149       -0.4691  -21.3956  -43.1073 H         1 UNK         0.3000 
    150 H150       -1.2939  -24.2288  -45.1052 H         1 UNK         0.0600 
    151 H151       -2.7183  -24.6893  -43.0987 H         1 UNK         0.0600 
    152 H152       -3.6215  -23.8570  -44.3536 H         1 UNK         0.0600 
    153 H153       -3.0585  -22.9704  -42.9356 H         1 UNK         0.0600 
    154 H154       -2.4305  -21.6085  -44.8755 H         1 UNK         0.3000 
    155 H155       -0.0588  -19.7383  -46.5798 H         1 UNK         0.0600 
    156 H156       -0.9098  -20.6337  -48.6547 H         1 UNK         0.0600 
    157 H157       -2.0075  -19.3376  -48.2165 H         1 UNK         0.0600 
    158 H158       -2.4802  -21.0047  -47.9480 H         1 UNK         0.0600 
    159 H159       -2.7569  -19.1256  -46.0680 H         1 UNK         0.3000 
    160 H160       -3.3186  -18.9068  -43.1640 H         1 UNK         0.0600 
    161 H161       -1.2120  -16.6910  -42.9682 H         1 UNK         0.0600 
    162 H162       -1.4953  -17.9696  -41.7965 H         1 UNK         0.0600 
    163 H163       -2.7134  -16.7309  -42.0439 H         1 UNK         0.0600 
    164 H164       -2.8491  -17.0569  -45.3970 H         1 UNK         0.3000 
    165 H165       -5.7549  -16.7155  -46.2280 H         1 UNK         0.0600 
    166 H166       -6.7057  -14.4545  -45.6897 H         1 UNK         0.0600 
    167 H167       -7.1261  -15.6435  -44.4696 H         1 UNK         0.0600 
    168 H168       -5.8564  -14.4672  -44.1443 H         1 UNK         0.0600 
    169 H169       -3.5175  -14.8643  -45.5551 H         1 UNK         0.3000 
    170 H170       -2.3330  -15.0986  -48.7725 H         1 UNK         0.0600 
    171 H171       -3.4726  -12.4234  -47.8140 H         1 UNK         0.0600 
    172 H172       -2.2339  -12.6488  -49.0487 H         1 UNK         0.0600 
    173 H173       -3.8741  -13.2012  -49.3396 H         1 UNK         0.0600 
    174 H174       -1.4318  -13.3284  -46.7719 H         1 UNK         0.3000 
    175 H175       -0.4485  -14.9327  -44.2940 H         1 UNK         0.0600 
    176 H176        1.7732  -15.7528  -46.2204 H         1 UNK         0.0600 
    177 H177        1.9289  -15.5515  -44.4801 H         1 UNK         0.0600 
    178 H178        0.9208  -16.8337  -45.1238 H         1 UNK         0.0600 
    179 H179        1.3061  -13.3470  -46.0440 H         1 UNK         0.3000 
    180 H180       -0.1788  -10.2908  -45.2644 H         1 UNK         0.0600 
    181 H181        1.8461   -9.6049  -44.0019 H         1 UNK         0.0600 
    182 H182        2.2525  -11.2928  -43.6873 H         1 UNK         0.0600 
    183 H183        0.8017  -10.5855  -42.9870 H         1 UNK         0.0600 
    184 H184        2.4855  -10.9356  -46.1095 H         1 UNK         0.3000 
    185 H185        1.9165  -10.2043  -49.3123 H         1 UNK         0.0600 
    186 H186        4.2996  -10.8389  -48.9926 H         1 UNK         0.0600 
    187 H187        3.7108   -9.9276  -47.6171 H         1 UNK         0.0600 
    188 H188        3.9137  -11.6751  -47.4957 H         1 UNK         0.0600 
    189 H189        1.7123  -12.1016  -50.4485 H         1 UNK         0.3000 
    190 H190        2.0127  -23.7690  -44.6644 H         1 UNK         0.3000 
    191 H191        1.7217  -25.8559  -45.2681 H         1 UNK         0.0600 
    192 H192        3.6052  -27.3974  -45.5313 H         1 UNK         0.0600 
    193 H193        3.9713  -26.2703  -44.2362 H         1 UNK         0.0600 
    194 H194        4.7259  -26.0757  -45.8183 H         1 UNK         0.0600 
    195 H195        1.3071  -23.7590  -47.1903 H         1 UNK         0.3000 
    196 H196        2.0548  -24.7104  -49.8236 H         1 UNK         0.0600 
    197 H197        0.6262  -22.8779  -50.5959 H         1 UNK         0.0600 
    198 H198        1.5544  -22.2897  -49.2228 H         1 UNK         0.0600 
    199 H199       -0.1388  -22.7373  -49.0208 H         1 UNK         0.0600 
    200 H200       -0.4671  -25.4567  -47.5788 H         1 UNK         0.3000 
    201 H201       -2.2337  -26.7850  -47.4986 H         1 UNK         0.0600 
    202 H202       -1.0935  -28.2016  -49.9627 H         1 UNK         0.0600 
    203 H203       -2.2329  -28.8683  -48.8023 H         1 UNK         0.0600 
    204 H204       -0.5917  -28.5004  -48.2994 H         1 UNK         0.0600 
    205 H205       -2.5779  -24.3092  -48.8377 H         1 UNK         0.3000 
    206 H206       -4.3205  -24.5431  -51.1126 H         1 UNK         0.0600 
    207 H207       -2.9625  -22.4865  -50.5175 H         1 UNK         0.0600 
    208 H208       -4.6753  -22.1265  -50.7113 H         1 UNK         0.0600 
    209 H209       -3.9843  -22.2481  -49.1059 H         1 UNK         0.0600 
    210 H210       -6.5668  -24.3929  -51.2088 H         1 UNK         0.3000 
    211 H211       -8.1913  -25.4412  -49.1284 H         1 UNK         0.0600 
    212 H212       -8.9387  -23.8705  -51.6565 H         1 UNK         0.0600 
    213 H213      -10.0597  -24.7915  -50.6615 H         1 UNK         0.0600 
    214 H214       -8.7801  -25.6230  -51.5319 H         1 UNK         0.0600 
    215 H215       -8.9395  -24.4739  -47.3590 H         1 UNK         0.3000 
    216 H216       -9.4112  -23.0370  -45.7543 H         1 UNK         0.0600 
    217 H217      -10.7931  -21.0659  -46.2610 H         1 UNK         0.0600 
    218 H218      -11.2865  -22.3928  -47.2977 H         1 UNK         0.0600 
    219 H219      -10.2953  -21.0868  -47.9465 H         1 UNK         0.0600 
    220 H220       -6.6870  -22.9500  -47.0098 H         1 UNK         0.3000 
    221 H221       -4.7227  -21.9951  -46.7847 H         1 UNK         0.0600 
    222 H222       -4.2116  -20.6583  -44.8003 H         1 UNK         0.0600 
    223 H223       -5.8966  -20.2414  -44.5663 H         1 UNK         0.0600 
    224 H224       -5.3556  -21.9042  -44.3432 H         1 UNK         0.0600 
    225 H225       -6.6792  -20.8441  -48.6716 H         1 UNK         0.3000 
    226 H226       -6.4622  -18.0368  -48.8561 H         1 UNK         0.0600 
    227 H227       -8.2799  -19.4178  -49.8719 H         1 UNK         0.0600 
    228 H228       -7.5166  -18.4233  -51.0967 H         1 UNK         0.0600 
    229 H229       -7.1272  -20.1362  -50.9952 H         1 UNK         0.0600 
    230 H230       -5.7613  -16.9646  -50.9290 H         1 UNK         0.3000 
    231 H231       -2.9723  -16.8723  -50.8890 H         1 UNK         0.0600 
    232 H232       -3.2748  -14.8971  -52.3424 H         1 UNK         0.0600 
    233 H233       -4.4349  -14.8934  -51.0273 H         1 UNK         0.0600 
    234 H234       -4.9477  -15.3562  -52.6494 H         1 UNK         0.0600 
    235 H235       -3.1614  -19.3514  -51.7868 H         1 UNK         0.3000 
    236 H236       -3.4677  -19.8954  -54.4888 H         1 UNK         0.0600 
    237 H237       -1.7887  -21.3535  -52.3867 H         1 UNK         0.0600 
    238 H238       -3.4906  -21.6310  -52.7761 H         1 UNK         0.0600 
    239 H239       -2.2461  -22.0370  -53.9426 H         1 UNK         0.0600 
    240 H240       -0.5086  -18.6807  -52.9584 H         1 UNK         0.3000 
    241 H241        1.0153  -19.0664  -55.4871 H         1 UNK         0.0600 
    242 H242       -0.1909  -15.3350  -55.1733 H         1 UNK         0.3800 
    243 H243       -1.0736  -16.7022  -54.5469 H         1 UNK         0.3800 
    244 H244        2.2098  -18.2492  -52.8218 H         1 UNK         0.0800 
    245 H245        3.0596  -18.6891  -54.2692 H         1 UNK         0.0800 
    246 H246        3.1723  -21.6673  -51.2484 H         1 UNK         0.0800 
    247 H247        4.1328  -20.3239  -51.8192 H         1 UNK         0.0800 
@<TRIPOS>BOND
     1    1    2 1    
     2    1  127 1    
     3    1  128 1    
     4    1  129 1    
     5    2    3 2    
     6    2    4 am   BACKBONE|DICT|INTERRES
     7    4    5 1    
     8    4  130 1    
     9    5    6 1    
    10    5   65 1    
    11    5  131 1    
    12    6    7 1    
    13    6  132 1    
    14    6  133 1    
    15    7    8 1    
    16    8    9 1    
    17    8  134 1    
    18    8  135 1    
    19    9   10 ar   
    20    9   14 ar   
    21   10   11 ar   
    22   10  136 1    
    23   11   12 ar   
    24   11  126 1    
    25   12   13 ar   
    26   12  137 1    
    27   13   14 ar   
    28   13   15 1    
    29   14  138 1    
    30   15   16 1    
    31   15  139 1    
    32   15  140 1    
    33   16   17 1    
    34   17   18 1    
    35   17  141 1    
    36   17  142 1    
    37   18   19 1    
    38   18   67 1    
    39   18  143 1    
    40   19   20 am   BACKBONE|DICT|INTERRES
    41   19  144 1    
    42   20   21 2    
    43   20   22 1    
    44   22   23 1    
    45   22   24 1    
    46   22  145 1    
    47   23  146 1    
    48   23  147 1    
    49   23  148 1    
    50   24   25 am   BACKBONE|DICT|INTERRES
    51   24  149 1    
    52   25   26 2    
    53   25   27 1    
    54   27   28 1    
    55   27   29 1    
    56   27  150 1    
    57   28  151 1    
    58   28  152 1    
    59   28  153 1    
    60   29   30 am   BACKBONE|DICT|INTERRES
    61   29  154 1    
    62   30   31 2    
    63   30   32 1    
    64   32   33 1    
    65   32   34 1    
    66   32  155 1    
    67   33  156 1    
    68   33  157 1    
    69   33  158 1    
    70   34   35 am   BACKBONE|DICT|INTERRES
    71   34  159 1    
    72   35   36 2    
    73   35   37 1    
    74   37   38 1    
    75   37   39 1    
    76   37  160 1    
    77   38  161 1    
    78   38  162 1    
    79   38  163 1    
    80   39   40 am   BACKBONE|DICT|INTERRES
    81   39  164 1    
    82   40   41 2    
    83   40   42 1    
    84   42   43 1    
    85   42   44 1    
    86   42  165 1    
    87   43  166 1    
    88   43  167 1    
    89   43  168 1    
    90   44   45 am   BACKBONE|DICT|INTERRES
    91   44  169 1    
    92   45   46 2    
    93   45   47 1    
    94   47   48 1    
    95   47   49 1    
    96   47  170 1    
    97   48  171 1    
    98   48  172 1    
    99   48  173 1    
   100   49   50 am   BACKBONE|DICT|INTERRES
   101   49  174 1    
   102   50   51 2    
   103   50   52 1    
   104   52   53 1    
   105   52   54 1    
   106   52  175 1    
   107   53  176 1    
   108   53  177 1    
   109   53  178 1    
   110   54   55 am   BACKBONE|DICT|INTERRES
   111   54  179 1    
   112   55   56 2    
   113   55   57 1    
   114   57   58 1    
   115   57   59 1    
   116   57  180 1    
   117   58  181 1    
   118   58  182 1    
   119   58  183 1    
   120   59   60 am   BACKBONE|DICT|INTERRES
   121   59  184 1    
   122   60   61 2    
   123   60   62 1    
   124   62   63 1    
   125   62   64 1    
   126   62  185 1    
   127   63  186 1    
   128   63  187 1    
   129   63  188 1    
   130   64   65 am   BACKBONE|DICT|INTERRES
   131   64  189 1    
   132   65   66 2    
   133   67   68 2    
   134   67   69 am   BACKBONE|DICT|INTERRES
   135   69   70 1    
   136   69  190 1    
   137   70   71 1    
   138   70   72 1    
   139   70  191 1    
   140   71  192 1    
   141   71  193 1    
   142   71  194 1    
   143   72   73 2    
   144   72   74 am   BACKBONE|DICT|INTERRES
   145   74   75 1    
   146   74  195 1    
   147   75   76 1    
   148   75   77 1    
   149   75  196 1    
   150   76  197 1    
   151   76  198 1    
   152   76  199 1    
   153   77   78 2    
   154   77   79 am   BACKBONE|DICT|INTERRES
   155   79   80 1    
   156   79  200 1    
   157   80   81 1    
   158   80   82 1    
   159   80  201 1    
   160   81  202 1    
   161   81  203 1    
   162   81  204 1    
   163   82   83 2    
   164   82   84 am   BACKBONE|DICT|INTERRES
   165   84   85 1    
   166   84  205 1    
   167   85   86 1    
   168   85   87 1    
   169   85  206 1    
   170   86  207 1    
   171   86  208 1    
   172   86  209 1    
   173   87   88 2    
   174   87   89 am   BACKBONE|DICT|INTERRES
   175   89   90 1    
   176   89  210 1    
   177   90   91 1    
   178   90   92 1    
   179   90  211 1    
   180   91  212 1    
   181   91  213 1    
   182   91  214 1    
   183   92   93 2    
   184   92   94 am   BACKBONE|DICT|INTERRES
   185   94   95 1    
   186   94  215 1    
   187   95   96 1    
   188   95   97 1    
   189   95  216 1    
   190   96  217 1    
   191   96  218 1    
   192   96  219 1    
   193   97   98 2    
   194   97   99 am   BACKBONE|DICT|INTERRES
   195   99  100 1    
   196   99  220 1    
   197  100  101 1    
   198  100  102 1    
   199  100  221 1    
   200  101  222 1    
   201  101  223 1    
   202  101  224 1    
   203  102  103 2    
   204  102  104 am   BACKBONE|DICT|INTERRES
   205  104  105 1    
   206  104  225 1    
   207  105  106 1    
   208  105  107 1    
   209  105  226 1    
   210  106  227 1    
   211  106  228 1    
   212  106  229 1    
   213  107  108 2    
   214  107  109 am   BACKBONE|DICT|INTERRES
   215  109  110 1    
   216  109  230 1    
   217  110  111 1    
   218  110  112 1    
   219  110  231 1    
   220  111  232 1    
   221  111  233 1    
   222  111  234 1    
   223  112  113 2    
   224  112  114 am   BACKBONE|DICT|INTERRES
   225  114  115 1    
   226  114  235 1    
   227  115  116 1    
   228  115  117 1    
   229  115  236 1    
   230  116  237 1    
   231  116  238 1    
   232  116  239 1    
   233  117  118 2    
   234  117  119 am   BACKBONE|DICT|INTERRES
   235  119  120 1    
   236  119  240 1    
   237  120  121 1    
   238  120  124 1    
   239  120  241 1    
   240  121  122 am   BACKBONE|DICT|INTERRES
   241  121  123 2    
   242  122  242 1    
   243  122  243 1    
   244  124  125 1    
   245  124  244 1    
   246  124  245 1    
   247  125  126 1    
   248  126  246 1    
   249  126  247 1    
@<TRIPOS>SUBSTRUCTURE
     1 UNK         1 GROUP             0       ****    0 ROOT    
