@<TRIPOS>MOLECULE
3R540
247   249    1
SMALL
USER_CHARGES


@<TRIPOS>ATOM
      1 CA         -0.2968  -13.0010  -44.6068 C.3       0 UNK        -0.1800 
      2 C           0.4027  -12.4589  -45.8461 C.2       0 UNK         0.5000 
      3 O           1.0737  -11.4302  -45.7734 O.2       0 UNK        -0.5000 
      4 N           0.2486  -13.1494  -46.9824 N.am      1 UNK        -0.5000 
      5 CA          0.8095  -12.7704  -48.2887 C.3       1 UNK         0.1400 
      6 C6         -0.0545  -13.3097  -49.4568 C.3       23 UNK        -0.0398 
      7 S7         -1.7214  -12.5636  -49.4975 S.3       23 UNK        -0.2404 
      8 C8         -2.7818  -13.9136  -48.8905 C.3       23 UNK        -0.0205 
      9 C9         -2.8562  -15.0783  -49.8670 C.ar      23 UNK        -0.0193 
     10 C10        -3.6280  -14.9818  -51.0300 C.ar      23 UNK        -0.1150 
     11 C11        -3.7168  -16.0626  -51.9128 C.ar      23 UNK        -0.0193 
     12 C12        -3.0316  -17.2437  -51.6201 C.ar      23 UNK        -0.1150 
     13 C13        -2.2626  -17.3552  -50.4600 C.ar      23 UNK        -0.0193 
     14 C14        -2.1736  -16.2661  -49.5919 C.ar      23 UNK        -0.1150 
     15 C15        -1.5328  -18.6516  -50.1446 C.3       23 UNK        -0.0205 
     16 S16        -2.6823  -20.0512  -49.9698 S.3       23 UNK        -0.2404 
     17 C17        -3.5029  -19.6831  -48.3816 C.3       23 UNK        -0.0398 
     18 CA         -3.0289  -20.6249  -47.2466 C.3       11 UNK         0.1400 
     19 N          -3.4688  -20.2098  -45.9147 N.am      11 UNK        -0.5000 
     20 C          -4.7176  -20.0742  -45.4481 C.2       10 UNK         0.5000 
     21 O          -5.7307  -20.2871  -46.1149 O.2       10 UNK        -0.5000 
     22 CA         -4.8448  -19.6234  -43.9839 C.3       10 UNK         0.1400 
     23 CB         -4.5117  -20.7777  -43.0256 C.3       10 UNK        -0.1800 
     24 N          -3.9583  -18.4932  -43.7127 N.am      10 UNK        -0.5000 
     25 C          -4.2857  -17.2120  -43.9309 C.2       9 UNK         0.5000 
     26 O          -5.4086  -16.8406  -44.2746 O.2       9 UNK        -0.5000 
     27 CA         -3.1679  -16.1661  -43.7497 C.3       9 UNK         0.1400 
     28 CB         -3.1420  -15.6517  -42.3026 C.3       9 UNK        -0.1800 
     29 N          -1.8413  -16.6697  -44.1148 N.am      9 UNK        -0.5000 
     30 C          -1.4891  -17.0346  -45.3555 C.2       8 UNK         0.5000 
     31 O          -2.2260  -16.9121  -46.3310 O.2       8 UNK        -0.5000 
     32 CA         -0.0958  -17.6591  -45.5495 C.3       8 UNK         0.1400 
     33 CB          0.9312  -16.5865  -45.9370 C.3       8 UNK        -0.1800 
     34 N           0.3949  -18.3981  -44.3857 N.am      8 UNK        -0.5000 
     35 C          -0.1594  -19.5129  -43.8895 C.2       7 UNK         0.5000 
     36 O          -1.1992  -20.0117  -44.3191 O.2       7 UNK        -0.5000 
     37 CA          0.5537  -20.1595  -42.6935 C.3       7 UNK         0.1400 
     38 CB          1.8212  -20.9027  -43.1446 C.3       7 UNK        -0.1800 
     39 N           0.9023  -19.1539  -41.6937 N.am      7 UNK        -0.5000 
     40 C           0.0460  -18.6683  -40.7846 C.2       6 UNK         0.5000 
     41 O          -1.1072  -19.0761  -40.6434 O.2       6 UNK        -0.5000 
     42 CA          0.5566  -17.5181  -39.8949 C.3       6 UNK         0.1400 
     43 CB          1.2136  -18.0717  -38.6216 C.3       6 UNK        -0.1800 
     44 N           1.5026  -16.6336  -40.5788 N.am      6 UNK        -0.5000 
     45 C           1.1885  -15.8505  -41.6196 C.2       5 UNK         0.5000 
     46 O           0.0650  -15.7878  -42.1146 O.2       5 UNK        -0.5000 
     47 CA          2.3315  -15.0364  -42.2463 C.3       5 UNK         0.1400 
     48 CB          2.5137  -13.6995  -41.5139 C.3       5 UNK        -0.1800 
     49 N           3.6152  -15.7371  -42.3014 N.am      5 UNK        -0.5000 
     50 C           3.8434  -16.9045  -42.9166 C.2       4 UNK         0.5000 
     51 O           2.9505  -17.6175  -43.3773 O.2       4 UNK        -0.5000 
     52 CA          5.3243  -17.2994  -43.0898 C.3       4 UNK         0.1400 
     53 CB          5.4936  -18.6894  -43.7286 C.3       4 UNK        -0.1800 
     54 N           6.0068  -16.3088  -43.9232 N.am      4 UNK        -0.5000 
     55 C           6.4486  -15.1154  -43.5026 C.2       3 UNK         0.5000 
     56 O           6.4600  -14.7736  -42.3189 O.2       3 UNK        -0.5000 
     57 CA          6.8860  -14.1135  -44.5887 C.3       3 UNK         0.1400 
     58 CB          8.3913  -14.2432  -44.8663 C.3       3 UNK        -0.1800 
     59 N           6.1483  -14.2487  -45.8507 N.am      3 UNK        -0.5000 
     60 C           4.8260  -14.0806  -45.9982 C.2       2 UNK         0.5000 
     61 O           4.0571  -13.8044  -45.0734 O.2       2 UNK        -0.5000 
     62 CA          4.2757  -14.2716  -47.4192 C.3       2 UNK         0.1400 
     63 CB          4.3734  -15.7414  -47.8655 C.3       2 UNK        -0.1800 
     64 N           2.8792  -13.8465  -47.4550 N.am      2 UNK        -0.5000 
     65 C           2.2897  -13.1907  -48.4612 C.2       1 UNK         0.5000 
     66 O           2.8715  -12.9125  -49.5112 O.2       1 UNK        -0.5000 
     67 C          -3.3440  -22.1063  -47.5320 C.2       11 UNK         0.5000 
     68 O          -2.4169  -22.9032  -47.6776 O.2       11 UNK        -0.5000 
     69 N          -4.6358  -22.4501  -47.6040 N.am      12 UNK        -0.5000 
     70 CA         -5.1473  -23.7730  -47.9664 C.3       12 UNK         0.1400 
     71 CB         -6.6668  -23.6805  -48.1688 C.3       12 UNK        -0.1800 
     72 C          -4.7985  -24.8721  -46.9463 C.2       12 UNK         0.5000 
     73 O          -4.6587  -26.0310  -47.3342 O.2       12 UNK        -0.5000 
     74 N          -4.6260  -24.4878  -45.6733 N.am      13 UNK        -0.5000 
     75 CA         -4.1915  -25.3726  -44.5890 C.3       13 UNK         0.1400 
     76 CB         -4.3821  -24.6539  -43.2448 C.3       13 UNK        -0.1800 
     77 C          -2.7299  -25.8356  -44.7485 C.2       13 UNK         0.5000 
     78 O          -2.4075  -26.9701  -44.3950 O.2       13 UNK        -0.5000 
     79 N          -1.8826  -24.9515  -45.2914 N.am      14 UNK        -0.5000 
     80 CA         -0.4787  -25.2200  -45.6079 C.3       14 UNK         0.1400 
     81 CB          0.3133  -23.9190  -45.4005 C.3       14 UNK        -0.1800 
     82 C          -0.2906  -25.7353  -47.0488 C.2       14 UNK         0.5000 
     83 O           0.7834  -26.2427  -47.3725 O.2       14 UNK        -0.5000 
     84 N          -1.3237  -25.5594  -47.8861 N.am      15 UNK        -0.5000 
     85 CA         -1.3627  -25.7556  -49.3373 C.3       15 UNK         0.1400 
     86 CB         -1.1865  -27.2423  -49.7061 C.3       15 UNK        -0.1800 
     87 C          -0.3861  -24.8197  -50.0821 C.2       15 UNK         0.5000 
     88 O           0.1702  -25.2020  -51.1130 O.2       15 UNK        -0.5000 
     89 N          -0.2031  -23.6014  -49.5480 N.am      16 UNK        -0.5000 
     90 CA          0.7905  -22.6155  -49.9908 C.3       16 UNK         0.1400 
     91 CB          0.8306  -21.4549  -48.9848 C.3       16 UNK        -0.1800 
     92 C           0.5813  -22.1054  -51.4313 C.2       16 UNK         0.5000 
     93 O           1.5558  -21.7729  -52.1066 O.2       16 UNK        -0.5000 
     94 N          -0.6759  -22.1031  -51.8841 N.am      17 UNK        -0.5000 
     95 CA         -1.0803  -21.9103  -53.2741 C.3       17 UNK         0.1400 
     96 CB         -1.4834  -20.4449  -53.5219 C.3       17 UNK        -0.1800 
     97 C          -2.2052  -22.9099  -53.5824 C.2       17 UNK         0.5000 
     98 O          -3.2608  -22.5184  -54.0843 O.2       17 UNK        -0.5000 
     99 N          -1.9730  -24.1788  -53.2110 N.am      18 UNK        -0.5000 
    100 CA        -2.8583  -25.3454  -53.3109 C.3       18 UNK         0.1400 
    101 CB        -3.2033  -25.6690  -54.7787 C.3       18 UNK        -0.1800 
    102 C         -4.1201  -25.2364  -52.4335 C.2       18 UNK         0.5000 
    103 O         -4.2563  -25.9843  -51.4662 O.2       18 UNK        -0.5000 
    104 N         -5.0046  -24.2984  -52.7781 N.am      19 UNK        -0.5000 
    105 CA        -6.2668  -24.0102  -52.1045 C.3       19 UNK         0.1400 
    106 CB        -7.3651  -24.9642  -52.6124 C.3       19 UNK        -0.1800 
    107 C         -6.6110  -22.5224  -52.2921 C.2       19 UNK         0.5000 
    108 O         -7.7409  -22.1878  -52.6502 O.2       19 UNK        -0.5000 
    109 N         -5.6043  -21.6621  -52.0753 N.am      20 UNK        -0.5000 
    110 CA        -5.6252  -20.2078  -52.2689 C.3       20 UNK         0.1400 
    111 CB        -6.5832  -19.5234  -51.2726 C.3       20 UNK        -0.1800 
    112 C         -5.8666  -19.8008  -53.7373 C.2       20 UNK         0.5000 
    113 O         -6.6208  -18.8664  -54.0119 O.2       20 UNK        -0.5000 
    114 N         -5.1972  -20.5017  -54.6595 N.am      21 UNK        -0.5000 
    115 CA        -5.2453  -20.2710  -56.1006 C.3       21 UNK         0.1400 
    116 CB        -5.3209  -21.6367  -56.8085 C.3       21 UNK        -0.1800 
    117 C         -4.0267  -19.4362  -56.5403 C.2       21 UNK         0.5000 
    118 O         -3.2366  -19.8840  -57.3734 O.2       21 UNK        -0.5000 
    119 N         -3.8761  -18.2424  -55.9497 N.am      22 UNK        -0.5000 
    120 CA        -2.7719  -17.3072  -56.2344 C.3       22 UNK         0.1400 
    121 C         -2.9067  -16.5015  -57.5622 C.2       22 UNK         0.5000 
    122 N         -4.0336  -16.5508  -58.2625 N.am      22 UNK        -0.7600 
    123 O         -1.9628  -15.8321  -57.9738 O.2       22 UNK        -0.5000 
    124 C124       -2.4421  -16.4015  -55.0180 C.3       23 UNK        -0.0398 
    125 S125       -3.7402  -15.1906  -54.5676 S.3       23 UNK        -0.2404 
    126 C126       -4.5851  -15.9770  -53.1591 C.3       23 UNK        -0.0205 
    127 H127       -0.7412  -13.9803  -44.7836 H         1 UNK         0.0600 
    128 H128       -1.0892  -12.3202  -44.2965 H         1 UNK         0.0600 
    129 H129        0.4113  -13.0938  -43.7844 H         1 UNK         0.0600 
    130 H130       -0.3261  -13.9780  -46.9814 H         1 UNK         0.3000 
    131 H131        0.8037  -11.6803  -48.3581 H         1 UNK         0.0600 
    132 H132        0.4071  -13.0766  -50.4180 H         1 UNK         0.0800 
    133 H133       -0.1198  -14.3967  -49.4162 H         1 UNK         0.0800 
    134 H134       -3.7869  -13.5218  -48.7282 H         1 UNK         0.0800 
    135 H135       -2.4286  -14.2478  -47.9138 H         1 UNK         0.0800 
    136 H136       -4.1619  -14.0667  -51.2450 H         1 UNK         0.1150 
    137 H137       -3.1044  -18.0850  -52.2914 H         1 UNK         0.1150 
    138 H138       -1.5770  -16.3458  -48.6957 H         1 UNK         0.1150 
    139 H139       -0.9383  -18.5580  -49.2344 H         1 UNK         0.0800 
    140 H140       -0.8306  -18.8683  -50.9500 H         1 UNK         0.0800 
    141 H141       -4.5814  -19.7509  -48.5270 H         1 UNK         0.0800 
    142 H142       -3.3080  -18.6462  -48.1065 H         1 UNK         0.0800 
    143 H143       -1.9412  -20.5478  -47.2040 H         1 UNK         0.0600 
    144 H144       -2.7025  -20.0579  -45.2605 H         1 UNK         0.3000 
    145 H145       -5.8817  -19.3293  -43.8072 H         1 UNK         0.0600 
    146 H146       -5.1761  -21.6258  -43.1943 H         1 UNK         0.0600 
    147 H147       -4.6344  -20.4721  -41.9864 H         1 UNK         0.0600 
    148 H148       -3.4868  -21.1298  -43.1492 H         1 UNK         0.0600 
    149 H149       -3.0038  -18.7112  -43.4613 H         1 UNK         0.3000 
    150 H150       -3.3983  -15.3234  -44.4050 H         1 UNK         0.0600 
    151 H151       -2.8283  -16.4298  -41.6052 H         1 UNK         0.0600 
    152 H152       -4.1279  -15.3050  -41.9903 H         1 UNK         0.0600 
    153 H153       -2.4567  -14.8105  -42.1978 H         1 UNK         0.0600 
    154 H154       -1.1485  -16.7058  -43.3730 H         1 UNK         0.3000 
    155 H155       -0.1715  -18.3684  -46.3766 H         1 UNK         0.0600 
    156 H156        1.9136  -17.0299  -46.0941 H         1 UNK         0.0600 
    157 H157        1.0298  -15.8260  -45.1629 H         1 UNK         0.0600 
    158 H158        0.6469  -16.0883  -46.8642 H         1 UNK         0.0600 
    159 H159        1.2662  -18.0684  -43.9757 H         1 UNK         0.3000 
    160 H160       -0.1254  -20.8912  -42.2502 H         1 UNK         0.0600 
    161 H161        2.5575  -20.2289  -43.5825 H         1 UNK         0.0600 
    162 H162        1.5859  -21.6551  -43.8970 H         1 UNK         0.0600 
    163 H163        2.2946  -21.4160  -42.3076 H         1 UNK         0.0600 
    164 H164        1.8072  -18.7135  -41.7934 H         1 UNK         0.3000 
    165 H165       -0.3093  -16.9208  -39.6011 H         1 UNK         0.0600 
    166 H166        1.5057  -17.2671  -37.9464 H         1 UNK         0.0600 
    167 H167        0.5246  -18.7179  -38.0761 H         1 UNK         0.0600 
    168 H168        2.1037  -18.6593  -38.8502 H         1 UNK         0.0600 
    169 H169        2.4555  -16.6326  -40.2457 H         1 UNK         0.3000 
    170 H170        2.0467  -14.8178  -43.2763 H         1 UNK         0.0600 
    171 H171        3.2340  -13.0651  -42.0313 H         1 UNK         0.0600 
    172 H172        2.8655  -13.8446  -40.4918 H         1 UNK         0.0600 
    173 H173        1.5739  -13.1479  -41.4639 H         1 UNK         0.0600 
    174 H174        4.4260  -15.2131  -41.9926 H         1 UNK         0.3000 
    175 H175        5.7829  -17.3241  -42.0991 H         1 UNK         0.0600 
    176 H176        5.0157  -19.4588  -43.1210 H         1 UNK         0.0600 
    177 H177        5.0504  -18.7342  -44.7244 H         1 UNK         0.0600 
    178 H178        6.5469  -18.9557  -43.8184 H         1 UNK         0.0600 
    179 H179        6.0056  -16.4858  -44.9167 H         1 UNK         0.3000 
    180 H180        6.6953  -13.1105  -44.2014 H         1 UNK         0.0600 
    181 H181        8.6410  -15.2182  -45.2866 H         1 UNK         0.0600 
    182 H182        8.9695  -14.1233  -43.9490 H         1 UNK         0.0600 
    183 H183        8.7316  -13.4783  -45.5646 H         1 UNK         0.0600 
    184 H184        6.7021  -14.4731  -46.6650 H         1 UNK         0.3000 
    185 H185        4.8725  -13.6487  -48.0890 H         1 UNK         0.0600 
    186 H186        5.4125  -16.0635  -47.9393 H         1 UNK         0.0600 
    187 H187        3.8735  -16.4097  -47.1650 H         1 UNK         0.0600 
    188 H188        3.9218  -15.8868  -48.8470 H         1 UNK         0.0600 
    189 H189        2.3846  -13.9485  -46.5790 H         1 UNK         0.3000 
    190 H190       -5.3222  -21.7363  -47.3779 H         1 UNK         0.3000 
    191 H191       -4.6912  -24.0554  -48.9178 H         1 UNK         0.0600 
    192 H192       -6.9201  -22.9446  -48.9323 H         1 UNK         0.0600 
    193 H193       -7.0777  -24.6385  -48.4905 H         1 UNK         0.0600 
    194 H194       -7.1773  -23.3953  -47.2480 H         1 UNK         0.0600 
    195 H195       -4.7762  -23.5172  -45.4424 H         1 UNK         0.3000 
    196 H196       -4.8273  -26.2605  -44.5971 H         1 UNK         0.0600 
    197 H197       -4.1148  -25.3074  -42.4133 H         1 UNK         0.0600 
    198 H198       -5.4199  -24.3535  -43.0997 H         1 UNK         0.0600 
    199 H199       -3.7586  -23.7622  -43.1725 H         1 UNK         0.0600 
    200 H200       -2.2373  -24.0472  -45.5686 H         1 UNK         0.3000 
    201 H201       -0.0809  -25.9764  -44.9281 H         1 UNK         0.0600 
    202 H202        1.3748  -24.0673  -45.6030 H         1 UNK         0.0600 
    203 H203        0.2235  -23.5704  -44.3718 H         1 UNK         0.0600 
    204 H204       -0.0390  -23.1215  -46.0563 H         1 UNK         0.0600 
    205 H205       -2.1320  -25.0873  -47.5053 H         1 UNK         0.3000 
    206 H206       -2.3630  -25.4547  -49.6487 H         1 UNK         0.0600 
    207 H207       -1.8928  -27.8678  -49.1603 H         1 UNK         0.0600 
    208 H208       -1.3673  -27.4042  -50.7692 H         1 UNK         0.0600 
    209 H209       -0.1801  -27.5998  -49.4873 H         1 UNK         0.0600 
    210 H210       -0.7609  -23.3535  -48.7370 H         1 UNK         0.3000 
    211 H211        1.7649  -23.1078  -49.9705 H         1 UNK         0.0600 
    212 H212       -0.1454  -20.9874  -48.8712 H         1 UNK         0.0600 
    213 H213        1.5325  -20.6822  -49.3010 H         1 UNK         0.0600 
    214 H214        1.1492  -21.7995  -48.0009 H         1 UNK         0.0600 
    215 H215       -1.4076  -22.3772  -51.2441 H         1 UNK         0.3000 
    216 H216       -0.2519  -22.1575  -53.9411 H         1 UNK         0.0600 
    217 H217       -1.7294  -20.2805  -54.5715 H         1 UNK         0.0600 
    218 H218       -0.6726  -19.7625  -53.2683 H         1 UNK         0.0600 
    219 H219       -2.3560  -20.1673  -52.9341 H         1 UNK         0.0600 
    220 H220       -1.0803  -24.3727  -52.7715 H         1 UNK         0.3000 
    221 H221       -2.2823  -26.1873  -52.9235 H         1 UNK         0.0600 
    222 H222       -3.7566  -24.8649  -55.2645 H         1 UNK         0.0600 
    223 H223       -2.3000  -25.8486  -55.3616 H         1 UNK         0.0600 
    224 H224       -3.8153  -26.5694  -54.8438 H         1 UNK         0.0600 
    225 H225       -4.7533  -23.6809  -53.5445 H         1 UNK         0.3000 
    226 H226       -6.1438  -24.1690  -51.0322 H         1 UNK         0.0600 
    227 H227       -7.1008  -26.0055  -52.4278 H         1 UNK         0.0600 
    228 H228       -7.5329  -24.8459  -53.6835 H         1 UNK         0.0600 
    229 H229       -8.3125  -24.7775  -52.1054 H         1 UNK         0.0600 
    230 H230       -4.7109  -22.0482  -51.8071 H         1 UNK         0.3000 
    231 H231       -4.6215  -19.8595  -52.0372 H         1 UNK         0.0600 
    232 H232       -7.6266  -19.7569  -51.4853 H         1 UNK         0.0600 
    233 H233       -6.4753  -18.4387  -51.3132 H         1 UNK         0.0600 
    234 H234       -6.3723  -19.8313  -50.2489 H         1 UNK         0.0600 
    235 H235       -4.5517  -21.2285  -54.3584 H         1 UNK         0.3000 
    236 H236       -6.1420  -19.7085  -56.3682 H         1 UNK         0.0600 
    237 H237       -4.4419  -22.2486  -56.6013 H         1 UNK         0.0600 
    238 H238       -6.1993  -22.1968  -56.4876 H         1 UNK         0.0600 
    239 H239       -5.3909  -21.5143  -57.8900 H         1 UNK         0.0600 
    240 H240       -4.5795  -17.9262  -55.2983 H         1 UNK         0.3000 
    241 H241       -1.8814  -17.9211  -56.3845 H         1 UNK         0.0600 
    242 H242       -4.1062  -16.0307  -59.1230 H         1 UNK         0.3800 
    243 H243       -4.8177  -17.0924  -57.9372 H         1 UNK         0.3800 
    244 H244       -1.5297  -15.8375  -55.2188 H         1 UNK         0.0800 
    245 H245       -2.1968  -17.0251  -54.1613 H         1 UNK         0.0800 
    246 H246       -5.4876  -15.4079  -52.9316 H         1 UNK         0.0800 
    247 H247       -4.9241  -16.9687  -53.4506 H         1 UNK         0.0800 
@<TRIPOS>BOND
     1    1    2 1    
     2    1  127 1    
     3    1  128 1    
     4    1  129 1    
     5    2    3 2    
     6    2    4 am   BACKBONE|DICT|INTERRES
     7    4    5 1    
     8    4  130 1    
     9    5    6 1    
    10    5   65 1    
    11    5  131 1    
    12    6    7 1    
    13    6  132 1    
    14    6  133 1    
    15    7    8 1    
    16    8    9 1    
    17    8  134 1    
    18    8  135 1    
    19    9   10 ar   
    20    9   14 ar   
    21   10   11 ar   
    22   10  136 1    
    23   11   12 ar   
    24   11  126 1    
    25   12   13 ar   
    26   12  137 1    
    27   13   14 ar   
    28   13   15 1    
    29   14  138 1    
    30   15   16 1    
    31   15  139 1    
    32   15  140 1    
    33   16   17 1    
    34   17   18 1    
    35   17  141 1    
    36   17  142 1    
    37   18   19 1    
    38   18   67 1    
    39   18  143 1    
    40   19   20 am   BACKBONE|DICT|INTERRES
    41   19  144 1    
    42   20   21 2    
    43   20   22 1    
    44   22   23 1    
    45   22   24 1    
    46   22  145 1    
    47   23  146 1    
    48   23  147 1    
    49   23  148 1    
    50   24   25 am   BACKBONE|DICT|INTERRES
    51   24  149 1    
    52   25   26 2    
    53   25   27 1    
    54   27   28 1    
    55   27   29 1    
    56   27  150 1    
    57   28  151 1    
    58   28  152 1    
    59   28  153 1    
    60   29   30 am   BACKBONE|DICT|INTERRES
    61   29  154 1    
    62   30   31 2    
    63   30   32 1    
    64   32   33 1    
    65   32   34 1    
    66   32  155 1    
    67   33  156 1    
    68   33  157 1    
    69   33  158 1    
    70   34   35 am   BACKBONE|DICT|INTERRES
    71   34  159 1    
    72   35   36 2    
    73   35   37 1    
    74   37   38 1    
    75   37   39 1    
    76   37  160 1    
    77   38  161 1    
    78   38  162 1    
    79   38  163 1    
    80   39   40 am   BACKBONE|DICT|INTERRES
    81   39  164 1    
    82   40   41 2    
    83   40   42 1    
    84   42   43 1    
    85   42   44 1    
    86   42  165 1    
    87   43  166 1    
    88   43  167 1    
    89   43  168 1    
    90   44   45 am   BACKBONE|DICT|INTERRES
    91   44  169 1    
    92   45   46 2    
    93   45   47 1    
    94   47   48 1    
    95   47   49 1    
    96   47  170 1    
    97   48  171 1    
    98   48  172 1    
    99   48  173 1    
   100   49   50 am   BACKBONE|DICT|INTERRES
   101   49  174 1    
   102   50   51 2    
   103   50   52 1    
   104   52   53 1    
   105   52   54 1    
   106   52  175 1    
   107   53  176 1    
   108   53  177 1    
   109   53  178 1    
   110   54   55 am   BACKBONE|DICT|INTERRES
   111   54  179 1    
   112   55   56 2    
   113   55   57 1    
   114   57   58 1    
   115   57   59 1    
   116   57  180 1    
   117   58  181 1    
   118   58  182 1    
   119   58  183 1    
   120   59   60 am   BACKBONE|DICT|INTERRES
   121   59  184 1    
   122   60   61 2    
   123   60   62 1    
   124   62   63 1    
   125   62   64 1    
   126   62  185 1    
   127   63  186 1    
   128   63  187 1    
   129   63  188 1    
   130   64   65 am   BACKBONE|DICT|INTERRES
   131   64  189 1    
   132   65   66 2    
   133   67   68 2    
   134   67   69 am   BACKBONE|DICT|INTERRES
   135   69   70 1    
   136   69  190 1    
   137   70   71 1    
   138   70   72 1    
   139   70  191 1    
   140   71  192 1    
   141   71  193 1    
   142   71  194 1    
   143   72   73 2    
   144   72   74 am   BACKBONE|DICT|INTERRES
   145   74   75 1    
   146   74  195 1    
   147   75   76 1    
   148   75   77 1    
   149   75  196 1    
   150   76  197 1    
   151   76  198 1    
   152   76  199 1    
   153   77   78 2    
   154   77   79 am   BACKBONE|DICT|INTERRES
   155   79   80 1    
   156   79  200 1    
   157   80   81 1    
   158   80   82 1    
   159   80  201 1    
   160   81  202 1    
   161   81  203 1    
   162   81  204 1    
   163   82   83 2    
   164   82   84 am   BACKBONE|DICT|INTERRES
   165   84   85 1    
   166   84  205 1    
   167   85   86 1    
   168   85   87 1    
   169   85  206 1    
   170   86  207 1    
   171   86  208 1    
   172   86  209 1    
   173   87   88 2    
   174   87   89 am   BACKBONE|DICT|INTERRES
   175   89   90 1    
   176   89  210 1    
   177   90   91 1    
   178   90   92 1    
   179   90  211 1    
   180   91  212 1    
   181   91  213 1    
   182   91  214 1    
   183   92   93 2    
   184   92   94 am   BACKBONE|DICT|INTERRES
   185   94   95 1    
   186   94  215 1    
   187   95   96 1    
   188   95   97 1    
   189   95  216 1    
   190   96  217 1    
   191   96  218 1    
   192   96  219 1    
   193   97   98 2    
   194   97   99 am   BACKBONE|DICT|INTERRES
   195   99  100 1    
   196   99  220 1    
   197  100  101 1    
   198  100  102 1    
   199  100  221 1    
   200  101  222 1    
   201  101  223 1    
   202  101  224 1    
   203  102  103 2    
   204  102  104 am   BACKBONE|DICT|INTERRES
   205  104  105 1    
   206  104  225 1    
   207  105  106 1    
   208  105  107 1    
   209  105  226 1    
   210  106  227 1    
   211  106  228 1    
   212  106  229 1    
   213  107  108 2    
   214  107  109 am   BACKBONE|DICT|INTERRES
   215  109  110 1    
   216  109  230 1    
   217  110  111 1    
   218  110  112 1    
   219  110  231 1    
   220  111  232 1    
   221  111  233 1    
   222  111  234 1    
   223  112  113 2    
   224  112  114 am   BACKBONE|DICT|INTERRES
   225  114  115 1    
   226  114  235 1    
   227  115  116 1    
   228  115  117 1    
   229  115  236 1    
   230  116  237 1    
   231  116  238 1    
   232  116  239 1    
   233  117  118 2    
   234  117  119 am   BACKBONE|DICT|INTERRES
   235  119  120 1    
   236  119  240 1    
   237  120  121 1    
   238  120  124 1    
   239  120  241 1    
   240  121  122 am   BACKBONE|DICT|INTERRES
   241  121  123 2    
   242  122  242 1    
   243  122  243 1    
   244  124  125 1    
   245  124  244 1    
   246  124  245 1    
   247  125  126 1    
   248  126  246 1    
   249  126  247 1    
@<TRIPOS>SUBSTRUCTURE
     1 UNK         1 GROUP             0       ****    0 ROOT    
