@<TRIPOS>MOLECULE
3R540
247   249    1
SMALL
USER_CHARGES


@<TRIPOS>ATOM
      1 CA         -2.3092   -8.4712  -45.2141 C.3       0 UNK        -0.1800 
      2 C          -1.3659   -9.6460  -45.4227 C.2       0 UNK         0.5000 
      3 O          -0.6487  -10.0260  -44.4977 O.2       0 UNK        -0.5000 
      4 N          -1.3741  -10.2376  -46.6254 N.am      1 UNK        -0.5000 
      5 CA         -0.5194  -11.3612  -47.0384 C.3       1 UNK         0.1400 
      6 C6         -0.7575  -11.7184  -48.5255 C.3       23 UNK        -0.0398 
      7 S7          0.5666  -12.7402  -49.2571 S.3       23 UNK        -0.2404 
      8 C8         -0.3176  -14.3148  -49.4708 C.3       23 UNK        -0.0205 
      9 C9          0.5461  -15.3496  -50.1720 C.ar      23 UNK        -0.0193 
     10 C10         0.6871  -15.3192  -51.5619 C.ar      23 UNK        -0.1150 
     11 C11         1.4542  -16.2840  -52.2213 C.ar      23 UNK        -0.0193 
     12 C12         2.0886  -17.2829  -51.4776 C.ar      23 UNK        -0.1150 
     13 C13         1.9315  -17.3397  -50.0901 C.ar      23 UNK        -0.0193 
     14 C14         1.1752  -16.3591  -49.4400 C.ar      23 UNK        -0.1150 
     15 C15         2.5372  -18.4873  -49.2964 C.3       23 UNK        -0.0205 
     16 S16         1.5583  -20.0185  -49.4620 S.3       23 UNK        -0.2404 
     17 C17        -0.0696  -19.4245  -48.9035 C.3       23 UNK        -0.0398 
     18 CA         -1.0719  -20.5500  -48.5685 C.3       11 UNK         0.1400 
     19 N          -0.6253  -21.4060  -47.4631 N.am      11 UNK        -0.5000 
     20 C          -1.2435  -22.5244  -47.0553 C.2       10 UNK         0.5000 
     21 O          -2.3706  -22.8549  -47.4243 O.2       10 UNK        -0.5000 
     22 CA         -0.4756  -23.4287  -46.0802 C.3       10 UNK         0.1400 
     23 CB          0.7842  -24.0086  -46.7435 C.3       10 UNK        -0.1800 
     24 N          -0.1022  -22.6639  -44.8980 N.am      10 UNK        -0.5000 
     25 C          -0.6851  -22.7811  -43.6979 C.2       9 UNK         0.5000 
     26 O          -1.4570  -23.6925  -43.4000 O.2       9 UNK        -0.5000 
     27 CA         -0.3839  -21.6809  -42.6555 C.3       9 UNK         0.1400 
     28 CB          0.6561  -22.1747  -41.6388 C.3       9 UNK        -0.1800 
     29 N           0.0881  -20.4213  -43.2372 N.am      9 UNK        -0.5000 
     30 C          -0.5807  -19.6685  -44.1229 C.2       8 UNK         0.5000 
     31 O          -1.7334  -19.9020  -44.4893 O.2       8 UNK        -0.5000 
     32 CA          0.1965  -18.5129  -44.7833 C.3       8 UNK         0.1400 
     33 CB         -0.1403  -17.1874  -44.0950 C.3       8 UNK        -0.1800 
     34 N           1.6533  -18.7033  -44.8155 N.am      8 UNK        -0.5000 
     35 C           2.2871  -19.7380  -45.3937 C.2       7 UNK         0.5000 
     36 O           1.6882  -20.6290  -45.9972 O.2       7 UNK        -0.5000 
     37 CA          3.8215  -19.8316  -45.2568 C.3       7 UNK         0.1400 
     38 CB          4.5083  -19.9773  -46.6243 C.3       7 UNK        -0.1800 
     39 N           4.4208  -18.7000  -44.5511 N.am      7 UNK        -0.5000 
     40 C           4.4691  -18.5416  -43.2217 C.2       6 UNK         0.5000 
     41 O           4.0182  -19.3577  -42.4180 O.2       6 UNK        -0.5000 
     42 CA          5.0947  -17.2251  -42.7180 C.3       6 UNK         0.1400 
     43 CB          6.5932  -17.4123  -42.4371 C.3       6 UNK        -0.1800 
     44 N           4.9148  -16.1215  -43.6688 N.am      6 UNK        -0.5000 
     45 C           3.7331  -15.5483  -43.9309 C.2       5 UNK         0.5000 
     46 O           2.6888  -15.8533  -43.3539 O.2       5 UNK        -0.5000 
     47 CA          3.6996  -14.5121  -45.0648 C.3       5 UNK         0.1400 
     48 CB          2.9839  -15.0867  -46.2994 C.3       5 UNK        -0.1800 
     49 N           3.0267  -13.2909  -44.6279 N.am      5 UNK        -0.5000 
     50 C           3.6127  -12.3562  -43.8670 C.2       4 UNK         0.5000 
     51 O           4.7819  -12.4265  -43.4842 O.2       4 UNK        -0.5000 
     52 CA          2.7728  -11.1270  -43.4776 C.3       4 UNK         0.1400 
     53 CB          2.7619  -10.0981  -44.6182 C.3       4 UNK        -0.1800 
     54 N           1.3968  -11.4455  -43.1017 N.am      4 UNK        -0.5000 
     55 C           1.0379  -12.0800  -41.9766 C.2       3 UNK         0.5000 
     56 O           1.8408  -12.5183  -41.1521 O.2       3 UNK        -0.5000 
     57 CA         -0.4705  -12.2315  -41.7151 C.3       3 UNK         0.1400 
     58 CB         -1.0445  -10.9449  -41.1004 C.3       3 UNK        -0.1800 
     59 N          -1.1882  -12.5364  -42.9518 N.am      3 UNK        -0.5000 
     60 C          -1.6165  -13.7579  -43.2965 C.2       2 UNK         0.5000 
     61 O          -1.5662  -14.7308  -42.5444 O.2       2 UNK        -0.5000 
     62 CA         -2.2092  -13.9396  -44.7115 C.3       2 UNK         0.1400 
     63 CB         -3.7361  -14.0953  -44.6446 C.3       2 UNK        -0.1800 
     64 N          -1.8848  -12.8591  -45.6458 N.am      2 UNK        -0.5000 
     65 C          -0.6583  -12.5962  -46.1191 C.2       1 UNK         0.5000 
     66 O           0.3427  -13.2404  -45.8084 O.2       1 UNK        -0.5000 
     67 C          -2.4686  -19.9305  -48.3822 C.2       11 UNK         0.5000 
     68 O          -3.1908  -19.8057  -49.3697 O.2       11 UNK        -0.5000 
     69 N          -2.8141  -19.5383  -47.1509 N.am      12 UNK        -0.5000 
     70 CA         -4.0804  -18.8817  -46.8346 C.3       12 UNK         0.1400 
     71 CB         -3.8135  -17.6229  -45.9907 C.3       12 UNK        -0.1800 
     72 C          -5.0170  -19.8498  -46.1027 C.2       12 UNK         0.5000 
     73 O          -6.1740  -19.9880  -46.4990 O.2       12 UNK        -0.5000 
     74 N          -4.5010  -20.5149  -45.0599 N.am      13 UNK        -0.5000 
     75 CA         -5.2825  -21.3707  -44.1650 C.3       13 UNK         0.1400 
     76 CB         -4.4662  -21.6539  -42.8975 C.3       13 UNK        -0.1800 
     77 C          -5.7677  -22.6828  -44.8105 C.2       13 UNK         0.5000 
     78 O          -6.8327  -23.1728  -44.4326 O.2       13 UNK        -0.5000 
     79 N          -5.0004  -23.2179  -45.7698 N.am      14 UNK        -0.5000 
     80 CA         -5.3343  -24.4306  -46.5239 C.3       14 UNK         0.1400 
     81 CB         -4.2584  -25.4982  -46.2560 C.3       14 UNK        -0.1800 
     82 C          -5.4727  -24.1507  -48.0320 C.2       14 UNK         0.5000 
     83 O          -5.6030  -25.0984  -48.8086 O.2       14 UNK        -0.5000 
     84 N          -5.4042  -22.8714  -48.4342 N.am      15 UNK        -0.5000 
     85 CA         -5.4288  -22.3764  -49.8163 C.3       15 UNK         0.1400 
     86 CB         -6.8374  -22.5407  -50.4218 C.3       15 UNK        -0.1800 
     87 C          -4.3219  -22.9909  -50.7031 C.2       15 UNK         0.5000 
     88 O          -4.5595  -23.2559  -51.8834 O.2       15 UNK        -0.5000 
     89 N          -3.1430  -23.2300  -50.1087 N.am      16 UNK        -0.5000 
     90 CA         -1.9846  -23.9330  -50.6729 C.3       16 UNK         0.1400 
     91 CB         -1.3516  -23.1371  -51.8317 C.3       16 UNK        -0.1800 
     92 C          -2.3091  -25.3972  -51.0353 C.2       16 UNK         0.5000 
     93 O          -1.9090  -25.8785  -52.0949 O.2       16 UNK        -0.5000 
     94 N          -3.0476  -26.0645  -50.1359 N.am      17 UNK        -0.5000 
     95 CA         -3.6070  -27.4138  -50.2644 C.3       17 UNK         0.1400 
     96 CB         -2.4968  -28.4793  -50.3845 C.3       17 UNK        -0.1800 
     97 C          -4.6590  -27.4825  -51.3894 C.2       17 UNK         0.5000 
     98 O          -4.5819  -28.3442  -52.2672 O.2       17 UNK        -0.5000 
     99 N          -5.6211  -26.5492  -51.3275 N.am      18 UNK        -0.5000 
    100 CA        -6.7460  -26.3660  -52.2519 C.3       18 UNK         0.1400 
    101 CB        -7.7339  -27.5465  -52.1454 C.3       18 UNK        -0.1800 
    102 C         -6.3131  -26.0681  -53.7050 C.2       18 UNK         0.5000 
    103 O         -6.9662  -26.5164  -54.6492 O.2       18 UNK        -0.5000 
    104 N         -5.2281  -25.2989  -53.8577 N.am      19 UNK        -0.5000 
    105 CA        -4.6711  -24.8687  -55.1433 C.3       19 UNK         0.1400 
    106 CB        -3.1436  -25.0297  -55.0957 C.3       19 UNK        -0.1800 
    107 C         -5.0618  -23.4184  -55.4952 C.2       19 UNK         0.5000 
    108 O         -4.6041  -22.9073  -56.5176 O.2       19 UNK        -0.5000 
    109 N         -5.8922  -22.7885  -54.6494 N.am      20 UNK        -0.5000 
    110 CA        -6.3341  -21.3904  -54.7001 C.3       20 UNK         0.1400 
    111 CB        -7.1116  -21.0824  -55.9980 C.3       20 UNK        -0.1800 
    112 C         -5.1820  -20.4037  -54.4158 C.2       20 UNK         0.5000 
    113 O         -5.0692  -19.3727  -55.0816 O.2       20 UNK        -0.5000 
    114 N         -4.3758  -20.7486  -53.4008 N.am      21 UNK        -0.5000 
    115 CA        -3.2040  -20.0403  -52.8752 C.3       21 UNK         0.1400 
    116 CB        -3.5381  -18.5844  -52.4872 C.3       21 UNK        -0.1800 
    117 C         -1.9687  -20.1266  -53.7920 C.2       21 UNK         0.5000 
    118 O         -2.0542  -20.5665  -54.9402 O.2       21 UNK        -0.5000 
    119 N         -0.8182  -19.7489  -53.2234 N.am      22 UNK        -0.5000 
    120 CA         0.5347  -19.7131  -53.8130 C.3       22 UNK         0.1400 
    121 C          1.1430  -21.0791  -54.2515 C.2       22 UNK         0.5000 
    122 N          0.3531  -22.0783  -54.6152 N.am      22 UNK        -0.7600 
    123 O          2.3609  -21.2339  -54.2479 O.2       22 UNK        -0.5000 
    124 C124        0.6929  -18.6687  -54.9511 C.3       23 UNK        -0.0398 
    125 S125        0.1116  -16.9879  -54.5305 S.3       23 UNK        -0.2404 
    126 C126        1.5749  -16.2463  -53.7366 C.3       23 UNK        -0.0205 
    127 H127       -2.8933   -8.2553  -46.1088 H         1 UNK         0.0600 
    128 H128       -1.7412   -7.5782  -44.9536 H         1 UNK         0.0600 
    129 H129       -3.0000   -8.6867  -44.3990 H         1 UNK         0.0600 
    130 H130       -1.9951   -9.8773  -47.3361 H         1 UNK         0.3000 
    131 H131        0.5090  -11.0093  -46.9435 H         1 UNK         0.0600 
    132 H132       -1.7297  -12.1956  -48.6615 H         1 UNK         0.0800 
    133 H133       -0.7964  -10.8030  -49.1177 H         1 UNK         0.0800 
    134 H134       -0.6388  -14.6844  -48.4955 H         1 UNK         0.0800 
    135 H135       -1.2248  -14.1488  -50.0541 H         1 UNK         0.0800 
    136 H136        0.1904  -14.5473  -52.1331 H         1 UNK         0.1150 
    137 H137        2.6827  -18.0345  -51.9775 H         1 UNK         0.1150 
    138 H138        1.0535  -16.3958  -48.3665 H         1 UNK         0.1150 
    139 H139        3.5577  -18.6735  -49.6338 H         1 UNK         0.0800 
    140 H140        2.6009  -18.2189  -48.2416 H         1 UNK         0.0800 
    141 H141       -0.4648  -18.7910  -49.7006 H         1 UNK         0.0800 
    142 H142        0.0739  -18.7753  -48.0404 H         1 UNK         0.0800 
    143 H143       -1.1408  -21.1956  -49.4436 H         1 UNK         0.0600 
    144 H144        0.2959  -21.1928  -47.0876 H         1 UNK         0.3000 
    145 H145       -1.1285  -24.2623  -45.8146 H         1 UNK         0.0600 
    146 H146        0.5296  -24.5622  -47.6481 H         1 UNK         0.0600 
    147 H147        1.4970  -23.2315  -47.0224 H         1 UNK         0.0600 
    148 H148        1.2942  -24.6998  -46.0724 H         1 UNK         0.0600 
    149 H149        0.5276  -21.8850  -45.0587 H         1 UNK         0.3000 
    150 H150       -1.3144  -21.4714  -42.1242 H         1 UNK         0.0600 
    151 H151        0.8153  -21.4410  -40.8483 H         1 UNK         0.0600 
    152 H152        1.6185  -22.3725  -42.1128 H         1 UNK         0.0600 
    153 H153        0.3285  -23.0991  -41.1610 H         1 UNK         0.0600 
    154 H154        1.0309  -20.1465  -43.0020 H         1 UNK         0.3000 
    155 H155       -0.1499  -18.4466  -45.8141 H         1 UNK         0.0600 
    156 H156       -1.2190  -17.0371  -44.0448 H         1 UNK         0.0600 
    157 H157        0.2783  -16.3396  -44.6365 H         1 UNK         0.0600 
    158 H158        0.2404  -17.1547  -43.0735 H         1 UNK         0.0600 
    159 H159        2.2031  -18.0123  -44.3229 H         1 UNK         0.3000 
    160 H160        4.0203  -20.7434  -44.6897 H         1 UNK         0.0600 
    161 H161        4.0370  -20.7509  -47.2324 H         1 UNK         0.0600 
    162 H162        5.5546  -20.2585  -46.5038 H         1 UNK         0.0600 
    163 H163        4.4829  -19.0474  -47.1904 H         1 UNK         0.0600 
    164 H164        4.8154  -17.9716  -45.1273 H         1 UNK         0.3000 
    165 H165        4.6010  -16.9587  -41.7809 H         1 UNK         0.0600 
    166 H166        7.0326  -16.5056  -42.0208 H         1 UNK         0.0600 
    167 H167        6.7575  -18.2128  -41.7145 H         1 UNK         0.0600 
    168 H168        7.1451  -17.6689  -43.3423 H         1 UNK         0.0600 
    169 H169        5.7380  -15.8110  -44.1651 H         1 UNK         0.3000 
    170 H170        4.7223  -14.2647  -45.3578 H         1 UNK         0.0600 
    171 H171        2.9413  -14.3566  -47.1082 H         1 UNK         0.0600 
    172 H172        3.5038  -15.9660  -46.6811 H         1 UNK         0.0600 
    173 H173        1.9610  -15.3865  -46.0713 H         1 UNK         0.0600 
    174 H174        2.0492  -13.1941  -44.8893 H         1 UNK         0.3000 
    175 H175        3.2525  -10.6613  -42.6140 H         1 UNK         0.0600 
    176 H176        2.2955  -10.5007  -45.5169 H         1 UNK         0.0600 
    177 H177        2.2183   -9.1970  -44.3332 H         1 UNK         0.0600 
    178 H178        3.7764   -9.7970  -44.8821 H         1 UNK         0.0600 
    179 H179        0.6690  -11.0579  -43.6955 H         1 UNK         0.3000 
    180 H180       -0.6017  -13.0343  -40.9866 H         1 UNK         0.0600 
    181 H181       -2.1041  -11.0585  -40.8710 H         1 UNK         0.0600 
    182 H182       -0.9374  -10.0908  -41.7700 H         1 UNK         0.0600 
    183 H183       -0.5346  -10.6972  -40.1686 H         1 UNK         0.0600 
    184 H184       -1.2490  -11.7860  -43.6296 H         1 UNK         0.3000 
    185 H185       -1.7937  -14.8631  -45.1187 H         1 UNK         0.0600 
    186 H186       -4.0166  -14.9221  -43.9906 H         1 UNK         0.0600 
    187 H187       -4.2153  -13.1943  -44.2597 H         1 UNK         0.0600 
    188 H188       -4.1552  -14.3069  -45.6285 H         1 UNK         0.0600 
    189 H189       -2.6466  -12.2570  -45.9224 H         1 UNK         0.3000 
    190 H190       -2.2024  -19.7387  -46.3674 H         1 UNK         0.3000 
    191 H191       -4.5869  -18.5586  -47.7468 H         1 UNK         0.0600 
    192 H192       -3.3571  -17.8595  -45.0299 H         1 UNK         0.0600 
    193 H193       -4.7426  -17.0897  -45.7859 H         1 UNK         0.0600 
    194 H194       -3.1516  -16.9320  -46.5132 H         1 UNK         0.0600 
    195 H195       -3.5340  -20.3424  -44.7971 H         1 UNK         0.3000 
    196 H196       -6.1716  -20.8108  -43.8668 H         1 UNK         0.0600 
    197 H197       -5.0455  -22.2361  -42.1799 H         1 UNK         0.0600 
    198 H198       -4.1663  -20.7297  -42.4031 H         1 UNK         0.0600 
    199 H199       -3.5658  -22.2193  -43.1267 H         1 UNK         0.0600 
    200 H200       -4.1276  -22.7676  -46.0170 H         1 UNK         0.3000 
    201 H201       -6.2951  -24.8352  -46.2009 H         1 UNK         0.0600 
    202 H202       -4.1492  -25.6867  -45.1879 H         1 UNK         0.0600 
    203 H203       -3.2845  -25.2012  -46.6432 H         1 UNK         0.0600 
    204 H204       -4.5210  -26.4469  -46.7257 H         1 UNK         0.0600 
    205 H205       -5.3169  -22.1645  -47.7186 H         1 UNK         0.3000 
    206 H206       -5.2245  -21.3076  -49.7681 H         1 UNK         0.0600 
    207 H207       -6.8970  -22.0902  -51.4128 H         1 UNK         0.0600 
    208 H208       -7.1176  -23.5888  -50.5174 H         1 UNK         0.0600 
    209 H209       -7.5883  -22.0517  -49.8013 H         1 UNK         0.0600 
    210 H210       -3.0579  -22.9987  -49.1210 H         1 UNK         0.3000 
    211 H211       -1.2406  -23.9856  -49.8770 H         1 UNK         0.0600 
    212 H212       -2.0448  -22.9995  -52.6594 H         1 UNK         0.0600 
    213 H213       -0.4722  -23.6485  -52.2243 H         1 UNK         0.0600 
    214 H214       -1.0221  -22.1527  -51.5058 H         1 UNK         0.0600 
    215 H215       -3.3766  -25.5472  -49.3327 H         1 UNK         0.3000 
    216 H216       -4.1434  -27.6099  -49.3347 H         1 UNK         0.0600 
    217 H217       -2.9195  -29.4839  -50.3466 H         1 UNK         0.0600 
    218 H218       -1.7817  -28.3970  -49.5660 H         1 UNK         0.0600 
    219 H219       -1.9461  -28.3954  -51.3215 H         1 UNK         0.0600 
    220 H220       -5.5967  -25.9104  -50.5359 H         1 UNK         0.3000 
    221 H221       -7.2729  -25.4744  -51.9126 H         1 UNK         0.0600 
    222 H222       -7.3007  -28.4732  -52.5230 H         1 UNK         0.0600 
    223 H223       -8.0366  -27.7143  -51.1117 H         1 UNK         0.0600 
    224 H224       -8.6407  -27.3520  -52.7192 H         1 UNK         0.0600 
    225 H225       -4.7761  -24.9224  -53.0305 H         1 UNK         0.3000 
    226 H226       -5.0469  -25.5046  -55.9471 H         1 UNK         0.0600 
    227 H227       -2.8626  -26.0526  -54.8440 H         1 UNK         0.0600 
    228 H228       -2.6913  -24.7963  -56.0602 H         1 UNK         0.0600 
    229 H229       -2.6953  -24.3691  -54.3554 H         1 UNK         0.0600 
    230 H230       -6.1703  -23.3040  -53.8267 H         1 UNK         0.3000 
    231 H231       -7.0366  -21.2708  -53.8741 H         1 UNK         0.0600 
    232 H232       -6.4646  -21.0911  -56.8753 H         1 UNK         0.0600 
    233 H233       -7.9100  -21.8062  -56.1612 H         1 UNK         0.0600 
    234 H234       -7.5738  -20.0960  -55.9476 H         1 UNK         0.0600 
    235 H235       -4.5360  -21.6590  -52.9806 H         1 UNK         0.3000 
    236 H236       -2.9443  -20.5684  -51.9577 H         1 UNK         0.0600 
    237 H237       -3.6980  -17.9534  -53.3616 H         1 UNK         0.0600 
    238 H238       -4.4331  -18.5378  -51.8666 H         1 UNK         0.0600 
    239 H239       -2.7279  -18.1358  -51.9114 H         1 UNK         0.0600 
    240 H240       -0.8558  -19.4190  -52.2712 H         1 UNK         0.3000 
    241 H241        1.1680  -19.3890  -52.9902 H         1 UNK         0.0600 
    242 H242        0.7497  -22.9604  -54.8961 H         1 UNK         0.3800 
    243 H243       -0.6390  -21.8995  -54.7225 H         1 UNK         0.3800 
    244 H244        1.7334  -18.6071  -55.2746 H         1 UNK         0.0800 
    245 H245        0.1312  -18.9944  -55.8281 H         1 UNK         0.0800 
    246 H246        1.6619  -15.2095  -54.0647 H         1 UNK         0.0800 
    247 H247        2.4887  -16.7431  -54.0653 H         1 UNK         0.0800 
@<TRIPOS>BOND
     1    1    2 1    
     2    1  127 1    
     3    1  128 1    
     4    1  129 1    
     5    2    3 2    
     6    2    4 am   BACKBONE|DICT|INTERRES
     7    4    5 1    
     8    4  130 1    
     9    5    6 1    
    10    5   65 1    
    11    5  131 1    
    12    6    7 1    
    13    6  132 1    
    14    6  133 1    
    15    7    8 1    
    16    8    9 1    
    17    8  134 1    
    18    8  135 1    
    19    9   10 ar   
    20    9   14 ar   
    21   10   11 ar   
    22   10  136 1    
    23   11   12 ar   
    24   11  126 1    
    25   12   13 ar   
    26   12  137 1    
    27   13   14 ar   
    28   13   15 1    
    29   14  138 1    
    30   15   16 1    
    31   15  139 1    
    32   15  140 1    
    33   16   17 1    
    34   17   18 1    
    35   17  141 1    
    36   17  142 1    
    37   18   19 1    
    38   18   67 1    
    39   18  143 1    
    40   19   20 am   BACKBONE|DICT|INTERRES
    41   19  144 1    
    42   20   21 2    
    43   20   22 1    
    44   22   23 1    
    45   22   24 1    
    46   22  145 1    
    47   23  146 1    
    48   23  147 1    
    49   23  148 1    
    50   24   25 am   BACKBONE|DICT|INTERRES
    51   24  149 1    
    52   25   26 2    
    53   25   27 1    
    54   27   28 1    
    55   27   29 1    
    56   27  150 1    
    57   28  151 1    
    58   28  152 1    
    59   28  153 1    
    60   29   30 am   BACKBONE|DICT|INTERRES
    61   29  154 1    
    62   30   31 2    
    63   30   32 1    
    64   32   33 1    
    65   32   34 1    
    66   32  155 1    
    67   33  156 1    
    68   33  157 1    
    69   33  158 1    
    70   34   35 am   BACKBONE|DICT|INTERRES
    71   34  159 1    
    72   35   36 2    
    73   35   37 1    
    74   37   38 1    
    75   37   39 1    
    76   37  160 1    
    77   38  161 1    
    78   38  162 1    
    79   38  163 1    
    80   39   40 am   BACKBONE|DICT|INTERRES
    81   39  164 1    
    82   40   41 2    
    83   40   42 1    
    84   42   43 1    
    85   42   44 1    
    86   42  165 1    
    87   43  166 1    
    88   43  167 1    
    89   43  168 1    
    90   44   45 am   BACKBONE|DICT|INTERRES
    91   44  169 1    
    92   45   46 2    
    93   45   47 1    
    94   47   48 1    
    95   47   49 1    
    96   47  170 1    
    97   48  171 1    
    98   48  172 1    
    99   48  173 1    
   100   49   50 am   BACKBONE|DICT|INTERRES
   101   49  174 1    
   102   50   51 2    
   103   50   52 1    
   104   52   53 1    
   105   52   54 1    
   106   52  175 1    
   107   53  176 1    
   108   53  177 1    
   109   53  178 1    
   110   54   55 am   BACKBONE|DICT|INTERRES
   111   54  179 1    
   112   55   56 2    
   113   55   57 1    
   114   57   58 1    
   115   57   59 1    
   116   57  180 1    
   117   58  181 1    
   118   58  182 1    
   119   58  183 1    
   120   59   60 am   BACKBONE|DICT|INTERRES
   121   59  184 1    
   122   60   61 2    
   123   60   62 1    
   124   62   63 1    
   125   62   64 1    
   126   62  185 1    
   127   63  186 1    
   128   63  187 1    
   129   63  188 1    
   130   64   65 am   BACKBONE|DICT|INTERRES
   131   64  189 1    
   132   65   66 2    
   133   67   68 2    
   134   67   69 am   BACKBONE|DICT|INTERRES
   135   69   70 1    
   136   69  190 1    
   137   70   71 1    
   138   70   72 1    
   139   70  191 1    
   140   71  192 1    
   141   71  193 1    
   142   71  194 1    
   143   72   73 2    
   144   72   74 am   BACKBONE|DICT|INTERRES
   145   74   75 1    
   146   74  195 1    
   147   75   76 1    
   148   75   77 1    
   149   75  196 1    
   150   76  197 1    
   151   76  198 1    
   152   76  199 1    
   153   77   78 2    
   154   77   79 am   BACKBONE|DICT|INTERRES
   155   79   80 1    
   156   79  200 1    
   157   80   81 1    
   158   80   82 1    
   159   80  201 1    
   160   81  202 1    
   161   81  203 1    
   162   81  204 1    
   163   82   83 2    
   164   82   84 am   BACKBONE|DICT|INTERRES
   165   84   85 1    
   166   84  205 1    
   167   85   86 1    
   168   85   87 1    
   169   85  206 1    
   170   86  207 1    
   171   86  208 1    
   172   86  209 1    
   173   87   88 2    
   174   87   89 am   BACKBONE|DICT|INTERRES
   175   89   90 1    
   176   89  210 1    
   177   90   91 1    
   178   90   92 1    
   179   90  211 1    
   180   91  212 1    
   181   91  213 1    
   182   91  214 1    
   183   92   93 2    
   184   92   94 am   BACKBONE|DICT|INTERRES
   185   94   95 1    
   186   94  215 1    
   187   95   96 1    
   188   95   97 1    
   189   95  216 1    
   190   96  217 1    
   191   96  218 1    
   192   96  219 1    
   193   97   98 2    
   194   97   99 am   BACKBONE|DICT|INTERRES
   195   99  100 1    
   196   99  220 1    
   197  100  101 1    
   198  100  102 1    
   199  100  221 1    
   200  101  222 1    
   201  101  223 1    
   202  101  224 1    
   203  102  103 2    
   204  102  104 am   BACKBONE|DICT|INTERRES
   205  104  105 1    
   206  104  225 1    
   207  105  106 1    
   208  105  107 1    
   209  105  226 1    
   210  106  227 1    
   211  106  228 1    
   212  106  229 1    
   213  107  108 2    
   214  107  109 am   BACKBONE|DICT|INTERRES
   215  109  110 1    
   216  109  230 1    
   217  110  111 1    
   218  110  112 1    
   219  110  231 1    
   220  111  232 1    
   221  111  233 1    
   222  111  234 1    
   223  112  113 2    
   224  112  114 am   BACKBONE|DICT|INTERRES
   225  114  115 1    
   226  114  235 1    
   227  115  116 1    
   228  115  117 1    
   229  115  236 1    
   230  116  237 1    
   231  116  238 1    
   232  116  239 1    
   233  117  118 2    
   234  117  119 am   BACKBONE|DICT|INTERRES
   235  119  120 1    
   236  119  240 1    
   237  120  121 1    
   238  120  124 1    
   239  120  241 1    
   240  121  122 am   BACKBONE|DICT|INTERRES
   241  121  123 2    
   242  122  242 1    
   243  122  243 1    
   244  124  125 1    
   245  124  244 1    
   246  124  245 1    
   247  125  126 1    
   248  126  246 1    
   249  126  247 1    
@<TRIPOS>SUBSTRUCTURE
     1 UNK         1 GROUP             0       ****    0 ROOT    
