@<TRIPOS>MOLECULE
3R540
247   249    1
SMALL
USER_CHARGES


@<TRIPOS>ATOM
      1 CA          4.5540   -9.7484  -49.5953 C.3       0 UNK        -0.1800 
      2 C           3.8968  -10.8785  -48.8161 C.2       0 UNK         0.5000 
      3 O           4.3322  -11.1957  -47.7082 O.2       0 UNK        -0.5000 
      4 N           2.8459  -11.4837  -49.3826 N.am      1 UNK        -0.5000 
      5 CA          2.0814  -12.5937  -48.8000 C.3       1 UNK         0.1400 
      6 C6          1.3893  -13.4617  -49.8844 C.3       23 UNK        -0.0398 
      7 S7          2.5514  -14.1053  -51.1388 S.3       23 UNK        -0.2404 
      8 C8          2.9447  -15.7610  -50.4737 C.3       23 UNK        -0.0205 
      9 C9          1.8633  -16.8366  -50.6156 C.ar      23 UNK        -0.0193 
     10 C10         0.6260  -16.6142  -51.2387 C.ar      23 UNK        -0.1150 
     11 C11        -0.3248  -17.6360  -51.3254 C.ar      23 UNK        -0.0193 
     12 C12        -0.0337  -18.8937  -50.7942 C.ar      23 UNK        -0.1150 
     13 C13         1.1975  -19.1373  -50.1819 C.ar      23 UNK        -0.0193 
     14 C14         2.1373  -18.1068  -50.0977 C.ar      23 UNK        -0.1150 
     15 C15         1.5098  -20.5140  -49.6117 C.3       23 UNK        -0.0205 
     16 S16         1.6135  -20.5022  -47.7929 S.3       23 UNK        -0.2404 
     17 C17        -0.0625  -19.9631  -47.3158 C.3       23 UNK        -0.0398 
     18 CA         -0.8422  -21.0418  -46.5341 C.3       11 UNK         0.1400 
     19 N          -0.1741  -21.4209  -45.2878 N.am      11 UNK        -0.5000 
     20 C          -0.4386  -22.5075  -44.5528 C.2       10 UNK         0.5000 
     21 O          -1.2521  -23.3676  -44.8918 O.2       10 UNK        -0.5000 
     22 CA          0.2745  -22.6077  -43.1860 C.3       10 UNK         0.1400 
     23 CB          0.5685  -24.0631  -42.7683 C.3       10 UNK        -0.1800 
     24 N           1.4697  -21.7595  -43.0860 N.am      10 UNK        -0.5000 
     25 C           2.6308  -21.8907  -43.7461 C.2       9 UNK         0.5000 
     26 O           2.8903  -22.8306  -44.4978 O.2       9 UNK        -0.5000 
     27 CA          3.6756  -20.7696  -43.5654 C.3       9 UNK         0.1400 
     28 CB          3.8177  -19.9608  -44.8641 C.3       9 UNK        -0.1800 
     29 N           3.3671  -19.8428  -42.4739 N.am      9 UNK        -0.5000 
     30 C           3.5454  -20.1014  -41.1720 C.2       8 UNK         0.5000 
     31 O           4.0148  -21.1556  -40.7422 O.2       8 UNK        -0.5000 
     32 CA          3.0989  -19.0069  -40.1832 C.3       8 UNK         0.1400 
     33 CB          4.1916  -17.9389  -40.0235 C.3       8 UNK        -0.1800 
     34 N           1.8395  -18.3630  -40.5657 N.am      8 UNK        -0.5000 
     35 C           0.6517  -18.9839  -40.6144 C.2       7 UNK         0.5000 
     36 O           0.4876  -20.1720  -40.3367 O.2       7 UNK        -0.5000 
     37 CA         -0.5490  -18.1515  -41.0975 C.3       7 UNK         0.1400 
     38 CB         -1.0718  -17.2350  -39.9818 C.3       7 UNK        -0.1800 
     39 N          -0.2347  -17.3609  -42.2873 N.am      7 UNK        -0.5000 
     40 C           0.0603  -17.8891  -43.4826 C.2       6 UNK         0.5000 
     41 O           0.0144  -19.0947  -43.7207 O.2       6 UNK        -0.5000 
     42 CA          0.5117  -16.9258  -44.5926 C.3       6 UNK         0.1400 
     43 CB         -0.7006  -16.3272  -45.3202 C.3       6 UNK        -0.1800 
     44 N           1.3732  -15.8550  -44.0979 N.am      6 UNK        -0.5000 
     45 C           2.5806  -16.0397  -43.5468 C.2       5 UNK         0.5000 
     46 O           3.1159  -17.1399  -43.4223 O.2       5 UNK        -0.5000 
     47 CA          3.2795  -14.7906  -42.9872 C.3       5 UNK         0.1400 
     48 CB          3.9358  -13.9704  -44.1092 C.3       5 UNK        -0.1800 
     49 N           2.3529  -13.9487  -42.2313 N.am      5 UNK        -0.5000 
     50 C           1.8020  -14.2947  -41.0590 C.2       4 UNK         0.5000 
     51 O           2.0471  -15.3487  -40.4713 O.2       4 UNK        -0.5000 
     52 CA          0.7749  -13.3129  -40.4663 C.3       4 UNK         0.1400 
     53 CB          1.4818  -12.1849  -39.7002 C.3       4 UNK        -0.1800 
     54 N          -0.1008  -12.7333  -41.4869 N.am      4 UNK        -0.5000 
     55 C          -1.0151  -13.4287  -42.1777 C.2       3 UNK         0.5000 
     56 O          -1.2333  -14.6273  -42.0079 O.2       3 UNK        -0.5000 
     57 CA         -1.7787  -12.6679  -43.2779 C.3       3 UNK         0.1400 
     58 CB         -2.9737  -11.9094  -42.6814 C.3       3 UNK        -0.1800 
     59 N          -0.9412  -11.7371  -44.0422 N.am      3 UNK        -0.5000 
     60 C           0.1377  -12.0938  -44.7511 C.2       2 UNK         0.5000 
     61 O           0.5844  -13.2418  -44.7791 O.2       2 UNK        -0.5000 
     62 CA          0.8661  -10.9733  -45.5149 C.3       2 UNK         0.1400 
     63 CB          1.8469  -10.2475  -44.5808 C.3       2 UNK        -0.1800 
     64 N           1.6124  -11.4851  -46.6647 N.am      2 UNK        -0.5000 
     65 C           1.0797  -12.0651  -47.7478 C.2       1 UNK         0.5000 
     66 O          -0.1344  -12.1530  -47.9437 O.2       1 UNK        -0.5000 
     67 C          -2.2839  -20.5617  -46.2816 C.2       11 UNK         0.5000 
     68 O          -3.1170  -20.6618  -47.1814 O.2       11 UNK        -0.5000 
     69 N          -2.5687  -20.0929  -45.0567 N.am      12 UNK        -0.5000 
     70 CA         -3.8947  -19.6841  -44.5818 C.3       12 UNK         0.1400 
     71 CB         -3.7564  -19.1173  -43.1609 C.3       12 UNK        -0.1800 
     72 C          -4.9567  -20.8062  -44.6218 C.2       12 UNK         0.5000 
     73 O          -6.1506  -20.5067  -44.6390 O.2       12 UNK        -0.5000 
     74 N          -4.5103  -22.0702  -44.6722 N.am      13 UNK        -0.5000 
     75 CA         -5.3452  -23.2534  -44.8873 C.3       13 UNK         0.1400 
     76 CB         -4.5704  -24.4910  -44.4064 C.3       13 UNK        -0.1800 
     77 C          -5.7903  -23.4358  -46.3559 C.2       13 UNK         0.5000 
     78 O          -6.5860  -24.3348  -46.6273 O.2       13 UNK        -0.5000 
     79 N          -5.2494  -22.6268  -47.2821 N.am      14 UNK        -0.5000 
     80 CA         -5.4927  -22.5657  -48.7317 C.3       14 UNK         0.1400 
     81 CB         -6.9800  -22.3176  -49.0437 C.3       14 UNK        -0.1800 
     82 C          -4.9481  -23.7619  -49.5365 C.2       14 UNK         0.5000 
     83 O          -4.5882  -23.5861  -50.7020 O.2       14 UNK        -0.5000 
     84 N          -4.8598  -24.9416  -48.9090 N.am      15 UNK        -0.5000 
     85 CA         -4.3994  -26.2087  -49.4834 C.3       15 UNK         0.1400 
     86 CB         -4.4999  -27.3043  -48.4121 C.3       15 UNK        -0.1800 
     87 C          -2.9778  -26.1654  -50.0765 C.2       15 UNK         0.5000 
     88 O          -2.7075  -26.8800  -51.0414 O.2       15 UNK        -0.5000 
     89 N          -2.1153  -25.2907  -49.5390 N.am      16 UNK        -0.5000 
     90 CA         -0.7651  -25.0172  -50.0442 C.3       16 UNK         0.1400 
     91 CB         -0.0510  -24.0765  -49.0637 C.3       16 UNK        -0.1800 
     92 C          -0.7478  -24.4109  -51.4642 C.2       16 UNK         0.5000 
     93 O           0.2287  -24.5967  -52.1903 O.2       16 UNK        -0.5000 
     94 N          -1.8334  -23.7195  -51.8342 N.am      17 UNK        -0.5000 
     95 CA         -2.0834  -23.1591  -53.1618 C.3       17 UNK         0.1400 
     96 CB         -2.4984  -21.6867  -52.9873 C.3       17 UNK        -0.1800 
     97 C          -3.1752  -23.9556  -53.9054 C.2       17 UNK         0.5000 
     98 O          -3.7236  -23.4559  -54.8896 O.2       17 UNK        -0.5000 
     99 N          -3.5369  -25.1435  -53.3908 N.am      18 UNK        -0.5000 
    100 CA        -4.6311  -26.0182  -53.8389 C.3       18 UNK         0.1400 
    101 CB        -4.2938  -26.6255  -55.2162 C.3       18 UNK        -0.1800 
    102 C         -6.0209  -25.3385  -53.8282 C.2       18 UNK         0.5000 
    103 O         -6.9328  -25.8026  -54.5141 O.2       18 UNK        -0.5000 
    104 N         -6.1401  -24.2304  -53.0789 N.am      19 UNK        -0.5000 
    105 CA        -7.2421  -23.2666  -53.0620 C.3       19 UNK         0.1400 
    106 CB        -8.4728  -23.8749  -52.3593 C.3       19 UNK        -0.1800 
    107 C         -7.5668  -22.6705  -54.4530 C.2       19 UNK         0.5000 
    108 O         -8.7243  -22.3321  -54.7089 O.2       19 UNK        -0.5000 
    109 N         -6.5569  -22.5625  -55.3321 N.am      20 UNK        -0.5000 
    110 CA        -6.7401  -22.1788  -56.7333 C.3       20 UNK         0.1400 
    111 CB        -6.9591  -23.4418  -57.5838 C.3       20 UNK        -0.1800 
    112 C         -5.5840  -21.3415  -57.3006 C.2       20 UNK         0.5000 
    113 O         -5.8469  -20.4082  -58.0608 O.2       20 UNK        -0.5000 
    114 N         -4.3315  -21.6655  -56.9451 N.am      21 UNK        -0.5000 
    115 CA        -3.1255  -21.0702  -57.5377 C.3       21 UNK         0.1400 
    116 CB        -1.8866  -21.8570  -57.0829 C.3       21 UNK        -0.1800 
    117 C         -2.9518  -19.5669  -57.2473 C.2       21 UNK         0.5000 
    118 O         -2.3453  -18.8611  -58.0545 O.2       21 UNK        -0.5000 
    119 N         -3.5090  -19.1076  -56.1218 N.am      22 UNK        -0.5000 
    120 CA        -3.5802  -17.6907  -55.7307 C.3       22 UNK         0.1400 
    121 C         -4.8740  -16.9750  -56.2252 C.2       22 UNK         0.5000 
    122 N         -5.7534  -17.6142  -56.9890 N.am      22 UNK        -0.7600 
    123 O         -5.0817  -15.8028  -55.9238 O.2       22 UNK        -0.5000 
    124 C124       -3.3704  -17.5132  -54.2047 C.3       23 UNK        -0.0398 
    125 S125       -1.7084  -18.0477  -53.6767 S.3       23 UNK        -0.2404 
    126 C126       -1.6711  -17.3841  -51.9853 C.3       23 UNK        -0.0205 
    127 H127        4.0660   -9.5810  -50.5558 H         1 UNK         0.0600 
    128 H128        4.5070   -8.8218  -49.0233 H         1 UNK         0.0600 
    129 H129        5.6019   -9.9824  -49.7825 H         1 UNK         0.0600 
    130 H130        2.5278  -11.1707  -50.2888 H         1 UNK         0.3000 
    131 H131        2.7762  -13.2473  -48.2675 H         1 UNK         0.0600 
    132 H132        0.6293  -12.8810  -50.4101 H         1 UNK         0.0800 
    133 H133        0.8628  -14.2982  -49.4214 H         1 UNK         0.0800 
    134 H134        3.2121  -15.6598  -49.4208 H         1 UNK         0.0800 
    135 H135        3.8419  -16.1153  -50.9832 H         1 UNK         0.0800 
    136 H136        0.3872  -15.6493  -51.6599 H         1 UNK         0.1150 
    137 H137       -0.7690  -19.6828  -50.8601 H         1 UNK         0.1150 
    138 H138        3.0876  -18.2966  -49.6178 H         1 UNK         0.1150 
    139 H139        0.7615  -21.2422  -49.9262 H         1 UNK         0.0800 
    140 H140        2.4614  -20.8607  -50.0167 H         1 UNK         0.0800 
    141 H141       -0.6200  -19.6778  -48.2080 H         1 UNK         0.0800 
    142 H142        0.0341  -19.0540  -46.7231 H         1 UNK         0.0800 
    143 H143       -0.9129  -21.9341  -47.1554 H         1 UNK         0.0600 
    144 H144        0.4354  -20.7214  -44.8811 H         1 UNK         0.3000 
    145 H145       -0.4295  -22.1999  -42.4592 H         1 UNK         0.0600 
    146 H146        1.0771  -24.1017  -41.8050 H         1 UNK         0.0600 
    147 H147       -0.3555  -24.6338  -42.6696 H         1 UNK         0.0600 
    148 H148        1.1904  -24.5797  -43.4995 H         1 UNK         0.0600 
    149 H149        1.3621  -20.9384  -42.5048 H         1 UNK         0.3000 
    150 H150        4.6343  -21.2481  -43.3558 H         1 UNK         0.0600 
    151 H151        4.0771  -20.6054  -45.7048 H         1 UNK         0.0600 
    152 H152        4.6028  -19.2095  -44.7775 H         1 UNK         0.0600 
    153 H153        2.8899  -19.4465  -45.1179 H         1 UNK         0.0600 
    154 H154        3.0451  -18.9171  -42.7465 H         1 UNK         0.3000 
    155 H155        2.9472  -19.4823  -39.2119 H         1 UNK         0.0600 
    156 H156        4.3686  -17.4008  -40.9552 H         1 UNK         0.0600 
    157 H157        5.1371  -18.3888  -39.7183 H         1 UNK         0.0600 
    158 H158        3.9187  -17.2073  -39.2628 H         1 UNK         0.0600 
    159 H159        1.8844  -17.3727  -40.7831 H         1 UNK         0.3000 
    160 H160       -1.3469  -18.8490  -41.3582 H         1 UNK         0.0600 
    161 H161       -1.9803  -16.7186  -40.2922 H         1 UNK         0.0600 
    162 H162       -0.3377  -16.4798  -39.7010 H         1 UNK         0.0600 
    163 H163       -1.3140  -17.8082  -39.0861 H         1 UNK         0.0600 
    164 H164       -0.2566  -16.3513  -42.1850 H         1 UNK         0.3000 
    165 H165        1.0938  -17.5026  -45.3134 H         1 UNK         0.0600 
    166 H166       -0.3884  -15.7064  -46.1604 H         1 UNK         0.0600 
    167 H167       -1.3489  -17.1106  -45.7150 H         1 UNK         0.0600 
    168 H168       -1.3022  -15.7084  -44.6539 H         1 UNK         0.0600 
    169 H169        1.0258  -14.9034  -44.2037 H         1 UNK         0.3000 
    170 H170        4.0665  -15.1242  -42.3075 H         1 UNK         0.0600 
    171 H171        4.6620  -14.5735  -44.6556 H         1 UNK         0.0600 
    172 H172        3.2058  -13.6068  -44.8324 H         1 UNK         0.0600 
    173 H173        4.4673  -13.1075  -43.7078 H         1 UNK         0.0600 
    174 H174        2.0497  -13.0954  -42.6752 H         1 UNK         0.3000 
    175 H175        0.1539  -13.8678  -39.7597 H         1 UNK         0.0600 
    176 H176        0.7612  -11.5286  -39.2119 H         1 UNK         0.0600 
    177 H177        2.1305  -12.5895  -38.9221 H         1 UNK         0.0600 
    178 H178        2.1005  -11.5741  -40.3589 H         1 UNK         0.0600 
    179 H179        0.0167  -11.7520  -41.6914 H         1 UNK         0.3000 
    180 H180       -2.1654  -13.4108  -43.9785 H         1 UNK         0.0600 
    181 H181       -2.6523  -11.1210  -41.9999 H         1 UNK         0.0600 
    182 H182       -3.6233  -12.5833  -42.1211 H         1 UNK         0.0600 
    183 H183       -3.5805  -11.4517  -43.4629 H         1 UNK         0.0600 
    184 H184       -1.2383  -10.7719  -44.0537 H         1 UNK         0.3000 
    185 H185        0.1252  -10.2593  -45.8799 H         1 UNK         0.0600 
    186 H186        2.6156  -10.9224  -44.2016 H         1 UNK         0.0600 
    187 H187        2.3477   -9.4277  -45.0963 H         1 UNK         0.0600 
    188 H188        1.3304   -9.8202  -43.7204 H         1 UNK         0.0600 
    189 H189        2.6237  -11.4251  -46.6185 H         1 UNK         0.3000 
    190 H190       -1.8049  -20.0094  -44.3961 H         1 UNK         0.3000 
    191 H191       -4.2468  -18.8847  -45.2368 H         1 UNK         0.0600 
    192 H192       -3.0914  -18.2537  -43.1441 H         1 UNK         0.0600 
    193 H193       -3.3622  -19.8624  -42.4689 H         1 UNK         0.0600 
    194 H194       -4.7215  -18.7876  -42.7741 H         1 UNK         0.0600 
    195 H195       -3.5123  -22.2288  -44.6508 H         1 UNK         0.3000 
    196 H196       -6.2486  -23.1586  -44.2814 H         1 UNK         0.0600 
    197 H197       -5.1843  -25.3900  -44.4758 H         1 UNK         0.0600 
    198 H198       -4.2658  -24.3876  -43.3648 H         1 UNK         0.0600 
    199 H199       -3.6734  -24.6610  -45.0031 H         1 UNK         0.0600 
    200 H200       -4.5643  -21.9479  -46.9642 H         1 UNK         0.3000 
    201 H201       -4.9390  -21.6921  -49.0793 H         1 UNK         0.0600 
    202 H202       -7.3623  -21.4621  -48.4869 H         1 UNK         0.0600 
    203 H203       -7.5993  -23.1815  -48.8008 H         1 UNK         0.0600 
    204 H204       -7.1237  -22.1036  -50.1023 H         1 UNK         0.0600 
    205 H205       -5.2472  -24.9842  -47.9731 H         1 UNK         0.3000 
    206 H206       -5.0816  -26.4610  -50.2976 H         1 UNK         0.0600 
    207 H207       -5.5241  -27.4137  -48.0550 H         1 UNK         0.0600 
    208 H208       -4.1903  -28.2718  -48.8098 H         1 UNK         0.0600 
    209 H209       -3.8667  -27.0836  -47.5517 H         1 UNK         0.0600 
    210 H210       -2.4242  -24.7446  -48.7485 H         1 UNK         0.3000 
    211 H211       -0.2207  -25.9631  -50.0777 H         1 UNK         0.0600 
    212 H212       -0.5358  -23.1015  -49.0369 H         1 UNK         0.0600 
    213 H213        0.9870  -23.9172  -49.3587 H         1 UNK         0.0600 
    214 H214       -0.0431  -24.4808  -48.0510 H         1 UNK         0.0600 
    215 H215       -2.6090  -23.6454  -51.1843 H         1 UNK         0.3000 
    216 H216       -1.1818  -23.1950  -53.7759 H         1 UNK         0.0600 
    217 H217       -2.6876  -21.2039  -53.9458 H         1 UNK         0.0600 
    218 H218       -1.7118  -21.1166  -52.4947 H         1 UNK         0.0600 
    219 H219       -3.4055  -21.5917  -52.3893 H         1 UNK         0.0600 
    220 H220       -3.0314  -25.4811  -52.5803 H         1 UNK         0.3000 
    221 H221       -4.6867  -26.8347  -53.1178 H         1 UNK         0.0600 
    222 H222       -4.2939  -25.8698  -56.0024 H         1 UNK         0.0600 
    223 H223       -3.3130  -27.1007  -55.2075 H         1 UNK         0.0600 
    224 H224       -5.0194  -27.3894  -55.4976 H         1 UNK         0.0600 
    225 H225       -5.3493  -23.9768  -52.4950 H         1 UNK         0.3000 
    226 H226       -6.8956  -22.4281  -52.4574 H         1 UNK         0.0600 
    227 H227       -8.2094  -24.2713  -51.3786 H         1 UNK         0.0600 
    228 H228       -8.9099  -24.6858  -52.9425 H         1 UNK         0.0600 
    229 H229       -9.2491  -23.1245  -52.2061 H         1 UNK         0.0600 
    230 H230       -5.6273  -22.8601  -55.0546 H         1 UNK         0.3000 
    231 H231       -7.6310  -21.5537  -56.8249 H         1 UNK         0.0600 
    232 H232       -7.8542  -23.9785  -57.2688 H         1 UNK         0.0600 
    233 H233       -6.1148  -24.1280  -57.5049 H         1 UNK         0.0600 
    234 H234       -7.0847  -23.1904  -58.6378 H         1 UNK         0.0600 
    235 H235       -4.1707  -22.4233  -56.2849 H         1 UNK         0.3000 
    236 H236       -3.2093  -21.1796  -58.6210 H         1 UNK         0.0600 
    237 H237       -0.9887  -21.4924  -57.5834 H         1 UNK         0.0600 
    238 H238       -1.7206  -21.7649  -56.0103 H         1 UNK         0.0600 
    239 H239       -1.9823  -22.9172  -57.3180 H         1 UNK         0.0600 
    240 H240       -3.9979  -19.7619  -55.5300 H         1 UNK         0.3000 
    241 H241       -2.7665  -17.1545  -56.2226 H         1 UNK         0.0600 
    242 H242       -6.5770  -17.1240  -57.3005 H         1 UNK         0.3800 
    243 H243       -5.6024  -18.5700  -57.2920 H         1 UNK         0.3800 
    244 H244       -3.4875  -16.4658  -53.9208 H         1 UNK         0.0800 
    245 H245       -4.1209  -18.0723  -53.6437 H         1 UNK         0.0800 
    246 H246       -2.4631  -17.8488  -51.3958 H         1 UNK         0.0800 
    247 H247       -1.8872  -16.3148  -52.0078 H         1 UNK         0.0800 
@<TRIPOS>BOND
     1    1    2 1    
     2    1  127 1    
     3    1  128 1    
     4    1  129 1    
     5    2    3 2    
     6    2    4 am   BACKBONE|DICT|INTERRES
     7    4    5 1    
     8    4  130 1    
     9    5    6 1    
    10    5   65 1    
    11    5  131 1    
    12    6    7 1    
    13    6  132 1    
    14    6  133 1    
    15    7    8 1    
    16    8    9 1    
    17    8  134 1    
    18    8  135 1    
    19    9   10 ar   
    20    9   14 ar   
    21   10   11 ar   
    22   10  136 1    
    23   11   12 ar   
    24   11  126 1    
    25   12   13 ar   
    26   12  137 1    
    27   13   14 ar   
    28   13   15 1    
    29   14  138 1    
    30   15   16 1    
    31   15  139 1    
    32   15  140 1    
    33   16   17 1    
    34   17   18 1    
    35   17  141 1    
    36   17  142 1    
    37   18   19 1    
    38   18   67 1    
    39   18  143 1    
    40   19   20 am   BACKBONE|DICT|INTERRES
    41   19  144 1    
    42   20   21 2    
    43   20   22 1    
    44   22   23 1    
    45   22   24 1    
    46   22  145 1    
    47   23  146 1    
    48   23  147 1    
    49   23  148 1    
    50   24   25 am   BACKBONE|DICT|INTERRES
    51   24  149 1    
    52   25   26 2    
    53   25   27 1    
    54   27   28 1    
    55   27   29 1    
    56   27  150 1    
    57   28  151 1    
    58   28  152 1    
    59   28  153 1    
    60   29   30 am   BACKBONE|DICT|INTERRES
    61   29  154 1    
    62   30   31 2    
    63   30   32 1    
    64   32   33 1    
    65   32   34 1    
    66   32  155 1    
    67   33  156 1    
    68   33  157 1    
    69   33  158 1    
    70   34   35 am   BACKBONE|DICT|INTERRES
    71   34  159 1    
    72   35   36 2    
    73   35   37 1    
    74   37   38 1    
    75   37   39 1    
    76   37  160 1    
    77   38  161 1    
    78   38  162 1    
    79   38  163 1    
    80   39   40 am   BACKBONE|DICT|INTERRES
    81   39  164 1    
    82   40   41 2    
    83   40   42 1    
    84   42   43 1    
    85   42   44 1    
    86   42  165 1    
    87   43  166 1    
    88   43  167 1    
    89   43  168 1    
    90   44   45 am   BACKBONE|DICT|INTERRES
    91   44  169 1    
    92   45   46 2    
    93   45   47 1    
    94   47   48 1    
    95   47   49 1    
    96   47  170 1    
    97   48  171 1    
    98   48  172 1    
    99   48  173 1    
   100   49   50 am   BACKBONE|DICT|INTERRES
   101   49  174 1    
   102   50   51 2    
   103   50   52 1    
   104   52   53 1    
   105   52   54 1    
   106   52  175 1    
   107   53  176 1    
   108   53  177 1    
   109   53  178 1    
   110   54   55 am   BACKBONE|DICT|INTERRES
   111   54  179 1    
   112   55   56 2    
   113   55   57 1    
   114   57   58 1    
   115   57   59 1    
   116   57  180 1    
   117   58  181 1    
   118   58  182 1    
   119   58  183 1    
   120   59   60 am   BACKBONE|DICT|INTERRES
   121   59  184 1    
   122   60   61 2    
   123   60   62 1    
   124   62   63 1    
   125   62   64 1    
   126   62  185 1    
   127   63  186 1    
   128   63  187 1    
   129   63  188 1    
   130   64   65 am   BACKBONE|DICT|INTERRES
   131   64  189 1    
   132   65   66 2    
   133   67   68 2    
   134   67   69 am   BACKBONE|DICT|INTERRES
   135   69   70 1    
   136   69  190 1    
   137   70   71 1    
   138   70   72 1    
   139   70  191 1    
   140   71  192 1    
   141   71  193 1    
   142   71  194 1    
   143   72   73 2    
   144   72   74 am   BACKBONE|DICT|INTERRES
   145   74   75 1    
   146   74  195 1    
   147   75   76 1    
   148   75   77 1    
   149   75  196 1    
   150   76  197 1    
   151   76  198 1    
   152   76  199 1    
   153   77   78 2    
   154   77   79 am   BACKBONE|DICT|INTERRES
   155   79   80 1    
   156   79  200 1    
   157   80   81 1    
   158   80   82 1    
   159   80  201 1    
   160   81  202 1    
   161   81  203 1    
   162   81  204 1    
   163   82   83 2    
   164   82   84 am   BACKBONE|DICT|INTERRES
   165   84   85 1    
   166   84  205 1    
   167   85   86 1    
   168   85   87 1    
   169   85  206 1    
   170   86  207 1    
   171   86  208 1    
   172   86  209 1    
   173   87   88 2    
   174   87   89 am   BACKBONE|DICT|INTERRES
   175   89   90 1    
   176   89  210 1    
   177   90   91 1    
   178   90   92 1    
   179   90  211 1    
   180   91  212 1    
   181   91  213 1    
   182   91  214 1    
   183   92   93 2    
   184   92   94 am   BACKBONE|DICT|INTERRES
   185   94   95 1    
   186   94  215 1    
   187   95   96 1    
   188   95   97 1    
   189   95  216 1    
   190   96  217 1    
   191   96  218 1    
   192   96  219 1    
   193   97   98 2    
   194   97   99 am   BACKBONE|DICT|INTERRES
   195   99  100 1    
   196   99  220 1    
   197  100  101 1    
   198  100  102 1    
   199  100  221 1    
   200  101  222 1    
   201  101  223 1    
   202  101  224 1    
   203  102  103 2    
   204  102  104 am   BACKBONE|DICT|INTERRES
   205  104  105 1    
   206  104  225 1    
   207  105  106 1    
   208  105  107 1    
   209  105  226 1    
   210  106  227 1    
   211  106  228 1    
   212  106  229 1    
   213  107  108 2    
   214  107  109 am   BACKBONE|DICT|INTERRES
   215  109  110 1    
   216  109  230 1    
   217  110  111 1    
   218  110  112 1    
   219  110  231 1    
   220  111  232 1    
   221  111  233 1    
   222  111  234 1    
   223  112  113 2    
   224  112  114 am   BACKBONE|DICT|INTERRES
   225  114  115 1    
   226  114  235 1    
   227  115  116 1    
   228  115  117 1    
   229  115  236 1    
   230  116  237 1    
   231  116  238 1    
   232  116  239 1    
   233  117  118 2    
   234  117  119 am   BACKBONE|DICT|INTERRES
   235  119  120 1    
   236  119  240 1    
   237  120  121 1    
   238  120  124 1    
   239  120  241 1    
   240  121  122 am   BACKBONE|DICT|INTERRES
   241  121  123 2    
   242  122  242 1    
   243  122  243 1    
   244  124  125 1    
   245  124  244 1    
   246  124  245 1    
   247  125  126 1    
   248  126  246 1    
   249  126  247 1    
@<TRIPOS>SUBSTRUCTURE
     1 UNK         1 GROUP             0       ****    0 ROOT    
