@<TRIPOS>MOLECULE
3R540
247   249    1
SMALL
USER_CHARGES


@<TRIPOS>ATOM
      1 CA         -3.8678   -9.5081  -50.3521 C.3       0 UNK        -0.1800 
      2 C          -4.4984  -10.1674  -49.1267 C.2       0 UNK         0.5000 
      3 O          -5.5245   -9.6899  -48.6464 O.2       0 UNK        -0.5000 
      4 N          -3.9427  -11.2629  -48.5927 N.am      1 UNK        -0.5000 
      5 CA         -2.6726  -11.8918  -48.9644 C.3       1 UNK         0.1400 
      6 C6         -2.5971  -13.3724  -48.5008 C.3       23 UNK        -0.0398 
      7 S7         -2.9948  -13.6597  -46.7376 S.3       23 UNK        -0.2404 
      8 C8         -4.7456  -14.1573  -46.7961 C.3       23 UNK        -0.0205 
      9 C9         -4.9400  -15.5861  -47.2822 C.ar      23 UNK        -0.0193 
     10 C10        -5.3764  -15.8348  -48.5869 C.ar      23 UNK        -0.1150 
     11 C11        -5.6242  -17.1411  -49.0170 C.ar      23 UNK        -0.0193 
     12 C12        -5.4422  -18.1982  -48.1194 C.ar      23 UNK        -0.1150 
     13 C13        -4.9627  -17.9747  -46.8224 C.ar      23 UNK        -0.0193 
     14 C14        -4.7256  -16.6592  -46.4113 C.ar      23 UNK        -0.1150 
     15 C15        -4.7123  -19.1199  -45.8384 C.3       23 UNK        -0.0205 
     16 S16        -4.3498  -20.7228  -46.6322 S.3       23 UNK        -0.2404 
     17 C17        -3.9394  -21.7744  -45.2051 C.3       23 UNK        -0.0398 
     18 CA         -3.0993  -23.0003  -45.6368 C.3       11 UNK         0.1400 
     19 N          -1.7384  -22.6458  -46.0547 N.am      11 UNK        -0.5000 
     20 C          -0.8890  -23.4852  -46.6625 C.2       10 UNK         0.5000 
     21 O          -1.1898  -24.6331  -46.9840 O.2       10 UNK        -0.5000 
     22 CA          0.5546  -23.0004  -46.8931 C.3       10 UNK         0.1400 
     23 CB          0.6815  -22.1808  -48.1830 C.3       10 UNK        -0.1800 
     24 N           1.0833  -22.2334  -45.7665 N.am      10 UNK        -0.5000 
     25 C           1.3338  -22.7515  -44.5570 C.2       9 UNK         0.5000 
     26 O           1.1559  -23.9363  -44.2759 O.2       9 UNK        -0.5000 
     27 CA          1.8253  -21.7810  -43.4678 C.3       9 UNK         0.1400 
     28 CB          3.3151  -21.4561  -43.6514 C.3       9 UNK        -0.1800 
     29 N           1.0498  -20.5414  -43.4256 N.am      9 UNK        -0.5000 
     30 C          -0.2564  -20.4787  -43.1286 C.2       8 UNK         0.5000 
     31 O          -0.9368  -21.4567  -42.8173 O.2       8 UNK        -0.5000 
     32 CA         -0.9303  -19.0997  -43.2468 C.3       8 UNK         0.1400 
     33 CB         -0.6396  -18.2430  -42.0059 C.3       8 UNK        -0.1800 
     34 N          -0.5386  -18.3703  -44.4540 N.am      8 UNK        -0.5000 
     35 C          -0.7221  -18.8184  -45.7046 C.2       7 UNK         0.5000 
     36 O          -1.2441  -19.8969  -45.9699 O.2       7 UNK        -0.5000 
     37 CA         -0.1679  -17.9543  -46.8476 C.3       7 UNK         0.1400 
     38 CB         -1.0221  -16.6940  -47.0454 C.3       7 UNK        -0.1800 
     39 N           1.2265  -17.5841  -46.6191 N.am      7 UNK        -0.5000 
     40 C           2.2392  -18.4534  -46.4881 C.2       6 UNK         0.5000 
     41 O           2.1215  -19.6723  -46.6047 O.2       6 UNK        -0.5000 
     42 CA          3.6066  -17.8631  -46.1110 C.3       6 UNK         0.1400 
     43 CB          4.3396  -17.3430  -47.3563 C.3       6 UNK        -0.1800 
     44 N           3.4775  -16.7917  -45.1236 N.am      6 UNK        -0.5000 
     45 C           3.1178  -16.9828  -43.8461 C.2       5 UNK         0.5000 
     46 O           2.8965  -18.0900  -43.3541 O.2       5 UNK        -0.5000 
     47 CA          2.9378  -15.7167  -42.9882 C.3       5 UNK         0.1400 
     48 CB          4.2945  -15.2020  -42.4844 C.3       5 UNK        -0.1800 
     49 N           2.2470  -14.6461  -43.7101 N.am      5 UNK        -0.5000 
     50 C           0.9619  -14.7050  -44.0858 C.2       4 UNK         0.5000 
     51 O           0.2206  -15.6524  -43.8286 O.2       4 UNK        -0.5000 
     52 CA          0.4208  -13.5322  -44.9233 C.3       4 UNK         0.1400 
     53 CB         -0.1371  -12.4256  -44.0174 C.3       4 UNK        -0.1800 
     54 N           1.3866  -12.9521  -45.8603 N.am      4 UNK        -0.5000 
     55 C           2.0007  -13.6205  -46.8450 C.2       3 UNK         0.5000 
     56 O           1.8973  -14.8361  -47.0089 O.2       3 UNK        -0.5000 
     57 CA          2.8226  -12.7728  -47.8303 C.3       3 UNK         0.1400 
     58 CB          3.5848  -13.6267  -48.8596 C.3       3 UNK        -0.1800 
     59 N           1.9244  -11.8678  -48.5429 N.am      3 UNK        -0.5000 
     60 C           1.6611  -10.6042  -48.1889 C.2       2 UNK         0.5000 
     61 O           2.1822  -10.0384  -47.2273 O.2       2 UNK        -0.5000 
     62 CA          0.6084   -9.8682  -49.0352 C.3       2 UNK         0.1400 
     63 CB          1.2243   -9.3505  -50.3443 C.3       2 UNK        -0.1800 
     64 N          -0.5491  -10.7137  -49.3418 N.am      2 UNK        -0.5000 
     65 C          -1.4908  -11.0432  -48.4466 C.2       1 UNK         0.5000 
     66 O          -1.4692  -10.6756  -47.2703 O.2       1 UNK        -0.5000 
     67 C          -3.1112  -24.0869  -44.5433 C.2       11 UNK         0.5000 
     68 O          -3.9909  -24.9458  -44.5657 O.2       11 UNK        -0.5000 
     69 N          -2.1353  -24.0649  -43.6260 N.am      12 UNK        -0.5000 
     70 CA         -1.9537  -25.1115  -42.6203 C.3       12 UNK         0.1400 
     71 CB         -0.9973  -24.6176  -41.5239 C.3       12 UNK        -0.1800 
     72 C          -1.4568  -26.4345  -43.2353 C.2       12 UNK         0.5000 
     73 O          -1.9554  -27.4991  -42.8683 O.2       12 UNK        -0.5000 
     74 N          -0.4852  -26.3446  -44.1527 N.am      13 UNK        -0.5000 
     75 CA          0.1717  -27.4923  -44.7762 C.3       13 UNK         0.1400 
     76 CB          1.5162  -27.0414  -45.3684 C.3       13 UNK        -0.1800 
     77 C          -0.6756  -28.1919  -45.8545 C.2       13 UNK         0.5000 
     78 O          -0.7056  -29.4230  -45.8876 O.2       13 UNK        -0.5000 
     79 N          -1.3097  -27.4080  -46.7354 N.am      14 UNK        -0.5000 
     80 CA         -1.9286  -27.8776  -47.9786 C.3       14 UNK         0.1400 
     81 CB         -1.1156  -27.3248  -49.1641 C.3       14 UNK        -0.1800 
     82 C          -3.4165  -27.4974  -48.0897 C.2       14 UNK         0.5000 
     83 O          -3.9683  -27.5460  -49.1893 O.2       14 UNK        -0.5000 
     84 N          -4.0433  -27.1161  -46.9680 N.am      15 UNK        -0.5000 
     85 CA         -5.4519  -26.7245  -46.7882 C.3       15 UNK         0.1400 
     86 CB         -6.4184  -27.8272  -47.2642 C.3       15 UNK        -0.1800 
     87 C          -5.8318  -25.3521  -47.3856 C.2       15 UNK         0.5000 
     88 O          -6.7419  -24.7070  -46.8635 O.2       15 UNK        -0.5000 
     89 N          -5.1331  -24.9093  -48.4346 N.am      16 UNK        -0.5000 
     90 CA         -5.2665  -23.6005  -49.0602 C.3       16 UNK         0.1400 
     91 CB         -6.3980  -23.6236  -50.1017 C.3       16 UNK        -0.1800 
     92 C          -3.9292  -23.2366  -49.7145 C.2       16 UNK         0.5000 
     93 O          -3.2322  -24.1213  -50.2163 O.2       16 UNK        -0.5000 
     94 N          -3.6120  -21.9388  -49.7442 N.am      17 UNK        -0.5000 
     95 CA         -2.3935  -21.3789  -50.3287 C.3       17 UNK         0.1400 
     96 CB         -2.0246  -20.0967  -49.5637 C.3       17 UNK        -0.1800 
     97 C          -2.5314  -21.1462  -51.8467 C.2       17 UNK         0.5000 
     98 O          -2.1716  -20.0751  -52.3437 O.2       17 UNK        -0.5000 
     99 N          -3.0614  -22.1490  -52.5598 N.am      18 UNK        -0.5000 
    100 CA        -3.2661  -22.1568  -54.0079 C.3       18 UNK         0.1400 
    101 CB        -3.9252  -23.4825  -54.4166 C.3       18 UNK        -0.1800 
    102 C         -1.9399  -21.9394  -54.7566 C.2       18 UNK         0.5000 
    103 O         -0.9921  -22.6963  -54.5392 O.2       18 UNK        -0.5000 
    104 N         -1.8794  -20.8629  -55.5521 N.am      19 UNK        -0.5000 
    105 CA        -0.7165  -20.3108  -56.2649 C.3       19 UNK         0.1400 
    106 CB        -0.1212  -21.3310  -57.2546 C.3       19 UNK        -0.1800 
    107 C          0.3793  -19.7087  -55.3557 C.2       19 UNK         0.5000 
    108 O          1.0774  -18.7940  -55.7940 O.2       19 UNK        -0.5000 
    109 N          0.5058  -20.1992  -54.1157 N.am      20 UNK        -0.5000 
    110 CA         1.4388  -19.7177  -53.0968 C.3       20 UNK         0.1400 
    111 CB         1.4743  -20.7138  -51.9264 C.3       20 UNK        -0.1800 
    112 C          1.1015  -18.3016  -52.5962 C.2       20 UNK         0.5000 
    113 O          2.0177  -17.5084  -52.3751 O.2       20 UNK        -0.5000 
    114 N         -0.1961  -18.0065  -52.4453 N.am      21 UNK        -0.5000 
    115 CA        -0.7003  -16.6941  -52.0415 C.3       21 UNK         0.1400 
    116 CB        -0.7563  -16.5942  -50.5092 C.3       21 UNK        -0.1800 
    117 C         -2.0693  -16.3702  -52.6594 C.2       21 UNK         0.5000 
    118 O         -2.3399  -15.1952  -52.9101 O.2       21 UNK        -0.5000 
    119 N         -2.9071  -17.3882  -52.9029 N.am      22 UNK        -0.5000 
    120 CA        -4.2659  -17.2219  -53.4547 C.3       22 UNK         0.1400 
    121 C         -4.3157  -17.0390  -55.0008 C.2       22 UNK         0.5000 
    122 N         -3.2025  -17.1242  -55.7197 N.am      22 UNK        -0.7600 
    123 O         -5.3851  -16.8119  -55.5598 O.2       22 UNK        -0.5000 
    124 C124       -5.2442  -18.3425  -53.0047 C.3       23 UNK        -0.0398 
    125 S125       -5.1529  -18.7502  -51.2308 S.3       23 UNK        -0.2404 
    126 C126       -6.0952  -17.4033  -50.4450 C.3       23 UNK        -0.0205 
    127 H127       -4.5159   -8.7189  -50.7340 H         1 UNK         0.0600 
    128 H128       -3.7211  -10.2277  -51.1570 H         1 UNK         0.0600 
    129 H129       -2.9093   -9.0548  -50.1008 H         1 UNK         0.0600 
    130 H130       -4.3552  -11.6431  -47.7539 H         1 UNK         0.3000 
    131 H131       -2.6150  -11.9141  -50.0539 H         1 UNK         0.0600 
    132 H132       -3.2651  -13.9763  -49.1148 H         1 UNK         0.0800 
    133 H133       -1.5999  -13.7742  -48.6866 H         1 UNK         0.0800 
    134 H134       -5.1629  -14.0659  -45.7923 H         1 UNK         0.0800 
    135 H135       -5.3105  -13.4620  -47.4179 H         1 UNK         0.0800 
    136 H136       -5.5375  -15.0079  -49.2641 H         1 UNK         0.1150 
    137 H137       -5.6613  -19.2019  -48.4506 H         1 UNK         0.1150 
    138 H138       -4.3778  -16.4654  -45.4061 H         1 UNK         0.1150 
    139 H139       -3.8726  -18.8617  -45.1915 H         1 UNK         0.0800 
    140 H140       -5.5863  -19.2299  -45.1957 H         1 UNK         0.0800 
    141 H141       -4.8826  -22.0837  -44.7505 H         1 UNK         0.0800 
    142 H142       -3.4053  -21.1901  -44.4541 H         1 UNK         0.0800 
    143 H143       -3.5867  -23.4461  -46.5050 H         1 UNK         0.0600 
    144 H144       -1.4497  -21.6828  -45.8859 H         1 UNK         0.3000 
    145 H145        1.1783  -23.8892  -47.0082 H         1 UNK         0.0600 
    146 H146        1.7236  -21.9399  -48.3930 H         1 UNK         0.0600 
    147 H147        0.3003  -22.7382  -49.0383 H         1 UNK         0.0600 
    148 H148        0.1352  -21.2416  -48.1140 H         1 UNK         0.0600 
    149 H149        1.2788  -21.2500  -45.9369 H         1 UNK         0.3000 
    150 H150        1.7055  -22.2798  -42.5038 H         1 UNK         0.0600 
    151 H151        3.9145  -22.3672  -43.6654 H         1 UNK         0.0600 
    152 H152        3.6856  -20.8348  -42.8359 H         1 UNK         0.0600 
    153 H153        3.5011  -20.9257  -44.5854 H         1 UNK         0.0600 
    154 H154        1.5447  -19.6845  -43.6474 H         1 UNK         0.3000 
    155 H155       -2.0082  -19.2644  -43.2998 H         1 UNK         0.0600 
    156 H156        0.4192  -17.9935  -41.9284 H         1 UNK         0.0600 
    157 H157       -1.2014  -17.3092  -42.0328 H         1 UNK         0.0600 
    158 H158       -0.9234  -18.7671  -41.0924 H         1 UNK         0.0600 
    159 H159       -0.1185  -17.4549  -44.3137 H         1 UNK         0.3000 
    160 H160       -0.2015  -18.5386  -47.7687 H         1 UNK         0.0600 
    161 H161       -0.5631  -16.0046  -47.7524 H         1 UNK         0.0600 
    162 H162       -1.1737  -16.1528  -46.1121 H         1 UNK         0.0600 
    163 H163       -2.0070  -16.9544  -47.4341 H         1 UNK         0.0600 
    164 H164        1.4331  -16.5897  -46.5664 H         1 UNK         0.3000 
    165 H165        4.2089  -18.6608  -45.6710 H         1 UNK         0.0600 
    166 H166        5.3095  -16.9180  -47.0979 H         1 UNK         0.0600 
    167 H167        4.5169  -18.1521  -48.0659 H         1 UNK         0.0600 
    168 H168        3.7624  -16.5781  -47.8752 H         1 UNK         0.0600 
    169 H169        3.5714  -15.8469  -45.4660 H         1 UNK         0.3000 
    170 H170        2.3331  -15.9873  -42.1198 H         1 UNK         0.0600 
    171 H171        4.9390  -14.8875  -43.3061 H         1 UNK         0.0600 
    172 H172        4.1686  -14.3529  -41.8123 H         1 UNK         0.0600 
    173 H173        4.8240  -15.9781  -41.9301 H         1 UNK         0.0600 
    174 H174        2.7886  -13.8326  -43.9621 H         1 UNK         0.3000 
    175 H175       -0.4017  -13.9254  -45.5202 H         1 UNK         0.0600 
    176 H176       -0.6306  -11.6503  -44.6043 H         1 UNK         0.0600 
    177 H177        0.6486  -11.9538  -43.4263 H         1 UNK         0.0600 
    178 H178       -0.8780  -12.8255  -43.3237 H         1 UNK         0.0600 
    179 H179        1.5118  -11.9498  -45.8153 H         1 UNK         0.3000 
    180 H180        3.5581  -12.2073  -47.2544 H         1 UNK         0.0600 
    181 H181        2.9131  -14.2562  -49.4451 H         1 UNK         0.0600 
    182 H182        4.3044  -14.2796  -48.3653 H         1 UNK         0.0600 
    183 H183        4.1438  -12.9990  -49.5537 H         1 UNK         0.0600 
    184 H184        1.4180  -12.2637  -49.3209 H         1 UNK         0.3000 
    185 H185        0.2646   -9.0043  -48.4618 H         1 UNK         0.0600 
    186 H186        1.5700  -10.1658  -50.9810 H         1 UNK         0.0600 
    187 H187        0.5034   -8.7630  -50.9131 H         1 UNK         0.0600 
    188 H188        2.0808   -8.7054  -50.1435 H         1 UNK         0.0600 
    189 H189       -0.6333  -11.0316  -50.2967 H         1 UNK         0.3000 
    190 H190       -1.4727  -23.2967  -43.6190 H         1 UNK         0.3000 
    191 H191       -2.9211  -25.3061  -42.1523 H         1 UNK         0.0600 
    192 H192       -1.3834  -23.7197  -41.0412 H         1 UNK         0.0600 
    193 H193       -0.8686  -25.3743  -40.7491 H         1 UNK         0.0600 
    194 H194       -0.0097  -24.3833  -41.9206 H         1 UNK         0.0600 
    195 H195       -0.0913  -25.4304  -44.3563 H         1 UNK         0.3000 
    196 H196        0.3838  -28.2269  -43.9964 H         1 UNK         0.0600 
    197 H197        2.0435  -27.8783  -45.8280 H         1 UNK         0.0600 
    198 H198        2.1680  -26.6305  -44.5971 H         1 UNK         0.0600 
    199 H199        1.3818  -26.2762  -46.1339 H         1 UNK         0.0600 
    200 H200       -1.2359  -26.3946  -46.6462 H         1 UNK         0.3000 
    201 H201       -1.8952  -28.9672  -48.0330 H         1 UNK         0.0600 
    202 H202       -0.0635  -27.5979  -49.0830 H         1 UNK         0.0600 
    203 H203       -1.1765  -26.2370  -49.2190 H         1 UNK         0.0600 
    204 H204       -1.4791  -27.7213  -50.1128 H         1 UNK         0.0600 
    205 H205       -3.4813  -27.0626  -46.1293 H         1 UNK         0.3000 
    206 H206       -5.5906  -26.6359  -45.7103 H         1 UNK         0.0600 
    207 H207       -6.1714  -28.7901  -46.8171 H         1 UNK         0.0600 
    208 H208       -7.4440  -27.5903  -46.9787 H         1 UNK         0.0600 
    209 H209       -6.4066  -27.9447  -48.3479 H         1 UNK         0.0600 
    210 H210       -4.4121  -25.5034  -48.8316 H         1 UNK         0.3000 
    211 H211       -5.4970  -22.8577  -48.2950 H         1 UNK         0.0600 
    212 H212       -6.2127  -24.3669  -50.8782 H         1 UNK         0.0600 
    213 H213       -6.4987  -22.6537  -50.5907 H         1 UNK         0.0600 
    214 H214       -7.3574  -23.8548  -49.6387 H         1 UNK         0.0600 
    215 H215       -4.2470  -21.2678  -49.3355 H         1 UNK         0.3000 
    216 H216       -1.5788  -22.0908  -50.1950 H         1 UNK         0.0600 
    217 H217       -1.0630  -19.7033  -49.8937 H         1 UNK         0.0600 
    218 H218       -1.9490  -20.2890  -48.4950 H         1 UNK         0.0600 
    219 H219       -2.7684  -19.3124  -49.6980 H         1 UNK         0.0600 
    220 H220       -3.2762  -23.0065  -52.0664 H         1 UNK         0.3000 
    221 H221       -3.9528  -21.3442  -54.2511 H         1 UNK         0.0600 
    222 H222       -3.2992  -24.3387  -54.1614 H         1 UNK         0.0600 
    223 H223       -4.8883  -23.6128  -53.9225 H         1 UNK         0.0600 
    224 H224       -4.1039  -23.5143  -55.4921 H         1 UNK         0.0600 
    225 H225       -2.7126  -20.2960  -55.6249 H         1 UNK         0.3000 
    226 H226       -1.1086  -19.4807  -56.8545 H         1 UNK         0.0600 
    227 H227       -0.8861  -21.7243  -57.9242 H         1 UNK         0.0600 
    228 H228        0.6456  -20.8658  -57.8752 H         1 UNK         0.0600 
    229 H229        0.3453  -22.1737  -56.7441 H         1 UNK         0.0600 
    230 H230       -0.0856  -20.9818  -53.8639 H         1 UNK         0.3000 
    231 H231        2.4345  -19.6833  -53.5437 H         1 UNK         0.0600 
    232 H232        0.4982  -20.8182  -51.4542 H         1 UNK         0.0600 
    233 H233        2.1762  -20.3889  -51.1571 H         1 UNK         0.0600 
    234 H234        1.7916  -21.7021  -52.2594 H         1 UNK         0.0600 
    235 H235       -0.8828  -18.7363  -52.6130 H         1 UNK         0.3000 
    236 H236       -0.0131  -15.9277  -52.4067 H         1 UNK         0.0600 
    237 H237        0.2166  -16.7932  -50.0593 H         1 UNK         0.0600 
    238 H238       -1.0594  -15.5942  -50.2000 H         1 UNK         0.0600 
    239 H239       -1.4746  -17.2959  -50.0869 H         1 UNK         0.0600 
    240 H240       -2.6534  -18.3373  -52.6424 H         1 UNK         0.3000 
    241 H241       -4.6639  -16.2900  -53.0498 H         1 UNK         0.0600 
    242 H242       -3.2465  -16.9891  -56.7176 H         1 UNK         0.3800 
    243 H243       -2.3144  -17.2590  -55.2662 H         1 UNK         0.3800 
    244 H244       -6.2740  -18.0747  -53.2476 H         1 UNK         0.0800 
    245 H245       -5.0340  -19.2620  -53.5521 H         1 UNK         0.0800 
    246 H246       -7.1547  -17.6611  -50.4359 H         1 UNK         0.0800 
    247 H247       -5.9966  -16.4974  -51.0439 H         1 UNK         0.0800 
@<TRIPOS>BOND
     1    1    2 1    
     2    1  127 1    
     3    1  128 1    
     4    1  129 1    
     5    2    3 2    
     6    2    4 am   BACKBONE|DICT|INTERRES
     7    4    5 1    
     8    4  130 1    
     9    5    6 1    
    10    5   65 1    
    11    5  131 1    
    12    6    7 1    
    13    6  132 1    
    14    6  133 1    
    15    7    8 1    
    16    8    9 1    
    17    8  134 1    
    18    8  135 1    
    19    9   10 ar   
    20    9   14 ar   
    21   10   11 ar   
    22   10  136 1    
    23   11   12 ar   
    24   11  126 1    
    25   12   13 ar   
    26   12  137 1    
    27   13   14 ar   
    28   13   15 1    
    29   14  138 1    
    30   15   16 1    
    31   15  139 1    
    32   15  140 1    
    33   16   17 1    
    34   17   18 1    
    35   17  141 1    
    36   17  142 1    
    37   18   19 1    
    38   18   67 1    
    39   18  143 1    
    40   19   20 am   BACKBONE|DICT|INTERRES
    41   19  144 1    
    42   20   21 2    
    43   20   22 1    
    44   22   23 1    
    45   22   24 1    
    46   22  145 1    
    47   23  146 1    
    48   23  147 1    
    49   23  148 1    
    50   24   25 am   BACKBONE|DICT|INTERRES
    51   24  149 1    
    52   25   26 2    
    53   25   27 1    
    54   27   28 1    
    55   27   29 1    
    56   27  150 1    
    57   28  151 1    
    58   28  152 1    
    59   28  153 1    
    60   29   30 am   BACKBONE|DICT|INTERRES
    61   29  154 1    
    62   30   31 2    
    63   30   32 1    
    64   32   33 1    
    65   32   34 1    
    66   32  155 1    
    67   33  156 1    
    68   33  157 1    
    69   33  158 1    
    70   34   35 am   BACKBONE|DICT|INTERRES
    71   34  159 1    
    72   35   36 2    
    73   35   37 1    
    74   37   38 1    
    75   37   39 1    
    76   37  160 1    
    77   38  161 1    
    78   38  162 1    
    79   38  163 1    
    80   39   40 am   BACKBONE|DICT|INTERRES
    81   39  164 1    
    82   40   41 2    
    83   40   42 1    
    84   42   43 1    
    85   42   44 1    
    86   42  165 1    
    87   43  166 1    
    88   43  167 1    
    89   43  168 1    
    90   44   45 am   BACKBONE|DICT|INTERRES
    91   44  169 1    
    92   45   46 2    
    93   45   47 1    
    94   47   48 1    
    95   47   49 1    
    96   47  170 1    
    97   48  171 1    
    98   48  172 1    
    99   48  173 1    
   100   49   50 am   BACKBONE|DICT|INTERRES
   101   49  174 1    
   102   50   51 2    
   103   50   52 1    
   104   52   53 1    
   105   52   54 1    
   106   52  175 1    
   107   53  176 1    
   108   53  177 1    
   109   53  178 1    
   110   54   55 am   BACKBONE|DICT|INTERRES
   111   54  179 1    
   112   55   56 2    
   113   55   57 1    
   114   57   58 1    
   115   57   59 1    
   116   57  180 1    
   117   58  181 1    
   118   58  182 1    
   119   58  183 1    
   120   59   60 am   BACKBONE|DICT|INTERRES
   121   59  184 1    
   122   60   61 2    
   123   60   62 1    
   124   62   63 1    
   125   62   64 1    
   126   62  185 1    
   127   63  186 1    
   128   63  187 1    
   129   63  188 1    
   130   64   65 am   BACKBONE|DICT|INTERRES
   131   64  189 1    
   132   65   66 2    
   133   67   68 2    
   134   67   69 am   BACKBONE|DICT|INTERRES
   135   69   70 1    
   136   69  190 1    
   137   70   71 1    
   138   70   72 1    
   139   70  191 1    
   140   71  192 1    
   141   71  193 1    
   142   71  194 1    
   143   72   73 2    
   144   72   74 am   BACKBONE|DICT|INTERRES
   145   74   75 1    
   146   74  195 1    
   147   75   76 1    
   148   75   77 1    
   149   75  196 1    
   150   76  197 1    
   151   76  198 1    
   152   76  199 1    
   153   77   78 2    
   154   77   79 am   BACKBONE|DICT|INTERRES
   155   79   80 1    
   156   79  200 1    
   157   80   81 1    
   158   80   82 1    
   159   80  201 1    
   160   81  202 1    
   161   81  203 1    
   162   81  204 1    
   163   82   83 2    
   164   82   84 am   BACKBONE|DICT|INTERRES
   165   84   85 1    
   166   84  205 1    
   167   85   86 1    
   168   85   87 1    
   169   85  206 1    
   170   86  207 1    
   171   86  208 1    
   172   86  209 1    
   173   87   88 2    
   174   87   89 am   BACKBONE|DICT|INTERRES
   175   89   90 1    
   176   89  210 1    
   177   90   91 1    
   178   90   92 1    
   179   90  211 1    
   180   91  212 1    
   181   91  213 1    
   182   91  214 1    
   183   92   93 2    
   184   92   94 am   BACKBONE|DICT|INTERRES
   185   94   95 1    
   186   94  215 1    
   187   95   96 1    
   188   95   97 1    
   189   95  216 1    
   190   96  217 1    
   191   96  218 1    
   192   96  219 1    
   193   97   98 2    
   194   97   99 am   BACKBONE|DICT|INTERRES
   195   99  100 1    
   196   99  220 1    
   197  100  101 1    
   198  100  102 1    
   199  100  221 1    
   200  101  222 1    
   201  101  223 1    
   202  101  224 1    
   203  102  103 2    
   204  102  104 am   BACKBONE|DICT|INTERRES
   205  104  105 1    
   206  104  225 1    
   207  105  106 1    
   208  105  107 1    
   209  105  226 1    
   210  106  227 1    
   211  106  228 1    
   212  106  229 1    
   213  107  108 2    
   214  107  109 am   BACKBONE|DICT|INTERRES
   215  109  110 1    
   216  109  230 1    
   217  110  111 1    
   218  110  112 1    
   219  110  231 1    
   220  111  232 1    
   221  111  233 1    
   222  111  234 1    
   223  112  113 2    
   224  112  114 am   BACKBONE|DICT|INTERRES
   225  114  115 1    
   226  114  235 1    
   227  115  116 1    
   228  115  117 1    
   229  115  236 1    
   230  116  237 1    
   231  116  238 1    
   232  116  239 1    
   233  117  118 2    
   234  117  119 am   BACKBONE|DICT|INTERRES
   235  119  120 1    
   236  119  240 1    
   237  120  121 1    
   238  120  124 1    
   239  120  241 1    
   240  121  122 am   BACKBONE|DICT|INTERRES
   241  121  123 2    
   242  122  242 1    
   243  122  243 1    
   244  124  125 1    
   245  124  244 1    
   246  124  245 1    
   247  125  126 1    
   248  126  246 1    
   249  126  247 1    
@<TRIPOS>SUBSTRUCTURE
     1 UNK         1 GROUP             0       ****    0 ROOT    
