@<TRIPOS>MOLECULE
3R540
247   249    1
SMALL
USER_CHARGES


@<TRIPOS>ATOM
      1 CA          1.1558   -9.7738  -48.7622 C.3       0 UNK        -0.1800 
      2 C           1.0266  -10.9168  -47.7675 C.2       0 UNK         0.5000 
      3 O           1.5576  -10.8314  -46.6594 O.2       0 UNK        -0.5000 
      4 N           0.3051  -11.9824  -48.1407 N.am      1 UNK        -0.5000 
      5 CA          0.1319  -13.2291  -47.3730 C.3       1 UNK         0.1400 
      6 C6         -0.4291  -14.3820  -48.2406 C.3       23 UNK        -0.0398 
      7 S7          0.6614  -14.7596  -49.6525 S.3       23 UNK        -0.2404 
      8 C8         -0.5248  -15.4260  -50.8603 C.3       23 UNK        -0.0205 
      9 C9         -1.0839  -16.7755  -50.4329 C.ar      23 UNK        -0.0193 
     10 C10        -2.4229  -16.9001  -50.0503 C.ar      23 UNK        -0.1150 
     11 C11        -2.9589  -18.1503  -49.7106 C.ar      23 UNK        -0.0193 
     12 C12        -2.1157  -19.2665  -49.7126 C.ar      23 UNK        -0.1150 
     13 C13        -0.7654  -19.1496  -50.0562 C.ar      23 UNK        -0.0193 
     14 C14        -0.2619  -17.9048  -50.4376 C.ar      23 UNK        -0.1150 
     15 C15         0.1488  -20.3672  -50.0189 C.3       23 UNK        -0.0205 
     16 S16         1.3798  -20.2948  -48.6740 S.3       23 UNK        -0.2404 
     17 C17         0.3380  -20.1886  -47.1805 C.3       23 UNK        -0.0398 
     18 CA          0.0862  -21.5495  -46.4882 C.3       11 UNK         0.1400 
     19 N          -0.3480  -21.3619  -45.1035 N.am      11 UNK        -0.5000 
     20 C          -0.5594  -22.3379  -44.2108 C.2       10 UNK         0.5000 
     21 O          -0.3536  -23.5295  -44.4334 O.2       10 UNK        -0.5000 
     22 CA         -1.1445  -21.9134  -42.8549 C.3       10 UNK         0.1400 
     23 CB         -0.0333  -21.4622  -41.9004 C.3       10 UNK        -0.1800 
     24 N          -2.1312  -20.8438  -42.9993 N.am      10 UNK        -0.5000 
     25 C          -3.3588  -21.0215  -43.5048 C.2       9 UNK         0.5000 
     26 O          -3.7920  -22.1101  -43.8840 O.2       9 UNK        -0.5000 
     27 CA         -4.2334  -19.7618  -43.6419 C.3       9 UNK         0.1400 
     28 CB         -4.8211  -19.3535  -42.2826 C.3       9 UNK        -0.1800 
     29 N          -3.5175  -18.6248  -44.2250 N.am      9 UNK        -0.5000 
     30 C          -3.0223  -18.6093  -45.4695 C.2       8 UNK         0.5000 
     31 O          -3.0787  -19.5665  -46.2394 O.2       8 UNK        -0.5000 
     32 CA         -2.3186  -17.3205  -45.9269 C.3       8 UNK         0.1400 
     33 CB         -3.3537  -16.2350  -46.2639 C.3       8 UNK        -0.1800 
     34 N          -1.3374  -16.7638  -44.9911 N.am      8 UNK        -0.5000 
     35 C          -0.3786  -17.4166  -44.3238 C.2       7 UNK         0.5000 
     36 O          -0.2875  -18.6452  -44.2732 O.2       7 UNK        -0.5000 
     37 CA          0.6653  -16.5261  -43.6241 C.3       7 UNK         0.1400 
     38 CB          0.1948  -16.0561  -42.2346 C.3       7 UNK        -0.1800 
     39 N           1.9781  -17.1749  -43.6083 N.am      7 UNK        -0.5000 
     40 C           2.4320  -18.1622  -42.8210 C.2       6 UNK         0.5000 
     41 O           1.9012  -18.5110  -41.7669 O.2       6 UNK        -0.5000 
     42 CA          3.6854  -18.9219  -43.3093 C.3       6 UNK         0.1400 
     43 CB          3.3330  -20.3884  -43.6151 C.3       6 UNK        -0.1800 
     44 N           4.2780  -18.3345  -44.5137 N.am      6 UNK        -0.5000 
     45 C           5.0908  -17.2719  -44.5257 C.2       5 UNK         0.5000 
     46 O           5.5134  -16.7292  -43.5029 O.2       5 UNK        -0.5000 
     47 CA          5.4912  -16.7029  -45.9046 C.3       5 UNK         0.1400 
     48 CB          4.7707  -17.3640  -47.1042 C.3       5 UNK        -0.1800 
     49 N           5.3276  -15.2464  -45.9458 N.am      5 UNK        -0.5000 
     50 C           4.1935  -14.5555  -45.7584 C.2       4 UNK         0.5000 
     51 O           3.0850  -15.0708  -45.5889 O.2       4 UNK        -0.5000 
     52 CA          4.3352  -13.0232  -45.8191 C.3       4 UNK         0.1400 
     53 CB          4.2752  -12.5438  -47.2782 C.3       4 UNK        -0.1800 
     54 N           3.3148  -12.3216  -45.0360 N.am      4 UNK        -0.5000 
     55 C           3.2610  -12.3148  -43.6955 C.2       3 UNK         0.5000 
     56 O           4.0710  -12.9117  -42.9849 O.2       3 UNK        -0.5000 
     57 CA          2.1486  -11.4950  -43.0154 C.3       3 UNK         0.1400 
     58 CB          2.6418  -10.0754  -42.6908 C.3       3 UNK        -0.1800 
     59 N           0.9283  -11.4082  -43.8182 N.am      3 UNK        -0.5000 
     60 C          -0.3172  -11.5491  -43.3373 C.2       2 UNK         0.5000 
     61 O          -0.5745  -11.7408  -42.1482 O.2       2 UNK        -0.5000 
     62 CA         -1.4809  -11.4735  -44.3518 C.3       2 UNK         0.1400 
     63 CB         -2.0775  -10.0583  -44.3830 C.3       2 UNK        -0.1800 
     64 N          -1.0672  -11.8440  -45.7047 N.am      2 UNK        -0.5000 
     65 C          -0.6643  -13.0714  -46.0558 C.2       1 UNK         0.5000 
     66 O          -0.8571  -14.0562  -45.3454 O.2       1 UNK        -0.5000 
     67 C          -0.9108  -22.4260  -47.2748 C.2       11 UNK         0.5000 
     68 O          -0.5005  -23.4101  -47.8905 O.2       11 UNK        -0.5000 
     69 N          -2.2059  -22.0863  -47.1968 N.am      12 UNK        -0.5000 
     70 CA         -3.2953  -22.8359  -47.8203 C.3       12 UNK         0.1400 
     71 CB         -4.6068  -22.0482  -47.6955 C.3       12 UNK        -0.1800 
     72 C          -3.4591  -24.2502  -47.2397 C.2       12 UNK         0.5000 
     73 O          -3.6972  -25.1882  -47.9992 O.2       12 UNK        -0.5000 
     74 N          -3.2991  -24.3903  -45.9155 N.am      13 UNK        -0.5000 
     75 CA         -3.3302  -25.6767  -45.2177 C.3       13 UNK         0.1400 
     76 CB         -3.3539  -25.4462  -43.6995 C.3       13 UNK        -0.1800 
     77 C          -2.1613  -26.5972  -45.6155 C.2       13 UNK         0.5000 
     78 O          -2.3778  -27.7912  -45.8235 O.2       13 UNK        -0.5000 
     79 N          -0.9556  -26.0245  -45.7397 N.am      14 UNK        -0.5000 
     80 CA          0.2547  -26.7171  -46.1824 C.3       14 UNK         0.1400 
     81 CB          1.4805  -25.8273  -45.9241 C.3       14 UNK        -0.1800 
     82 C           0.1884  -27.1395  -47.6609 C.2       14 UNK         0.5000 
     83 O           0.5849  -28.2583  -47.9898 O.2       14 UNK        -0.5000 
     84 N          -0.3228  -26.2473  -48.5206 N.am      15 UNK        -0.5000 
     85 CA         -0.5286  -26.4991  -49.9479 C.3       15 UNK         0.1400 
     86 CB         -0.7897  -25.1633  -50.6604 C.3       15 UNK        -0.1800 
     87 C          -1.6806  -27.4810  -50.2328 C.2       15 UNK         0.5000 
     88 O          -1.6416  -28.1745  -51.2497 O.2       15 UNK        -0.5000 
     89 N          -2.6868  -27.4951  -49.3454 N.am      16 UNK        -0.5000 
     90 CA         -3.9712  -28.1952  -49.4529 C.3       16 UNK         0.1400 
     91 CB         -3.7753  -29.7253  -49.4381 C.3       16 UNK        -0.1800 
     92 C          -4.8071  -27.6935  -50.6511 C.2       16 UNK         0.5000 
     93 O          -5.5164  -28.4751  -51.2878 O.2       16 UNK        -0.5000 
     94 N          -4.6919  -26.3926  -50.9423 N.am      17 UNK        -0.5000 
     95 CA         -5.2652  -25.6960  -52.0882 C.3       17 UNK         0.1400 
     96 CB         -4.5516  -26.1368  -53.3837 C.3       17 UNK        -0.1800 
     97 C          -5.1026  -24.1836  -51.8713 C.2       17 UNK         0.5000 
     98 O          -4.4127  -23.7666  -50.9385 O.2       17 UNK        -0.5000 
     99 N          -5.7079  -23.3837  -52.7595 N.am      18 UNK        -0.5000 
    100 CA        -5.6044  -21.9194  -52.7643 C.3       18 UNK         0.1400 
    101 CB        -6.6938  -21.3413  -53.6801 C.3       18 UNK        -0.1800 
    102 C         -4.2143  -21.3903  -53.1775 C.2       18 UNK         0.5000 
    103 O         -3.9346  -20.2150  -52.9434 O.2       18 UNK        -0.5000 
    104 N         -3.3815  -22.2554  -53.7802 N.am      19 UNK        -0.5000 
    105 CA        -1.9734  -22.0610  -54.1429 C.3       19 UNK         0.1400 
    106 CB        -1.1111  -21.9574  -52.8689 C.3       19 UNK        -0.1800 
    107 C         -1.7581  -20.8821  -55.1117 C.2       19 UNK         0.5000 
    108 O         -1.8385  -21.0698  -56.3257 O.2       19 UNK        -0.5000 
    109 N         -1.5192  -19.6875  -54.5560 N.am      20 UNK        -0.5000 
    110 CA        -1.3713  -18.4154  -55.2670 C.3       20 UNK         0.1400 
    111 CB        -0.6821  -17.4213  -54.3166 C.3       20 UNK        -0.1800 
    112 C         -2.7078  -17.8340  -55.7827 C.2       20 UNK         0.5000 
    113 O         -2.6970  -16.7677  -56.3967 O.2       20 UNK        -0.5000 
    114 N         -3.8202  -18.5223  -55.4850 N.am      21 UNK        -0.5000 
    115 CA        -5.2344  -18.1808  -55.6940 C.3       21 UNK         0.1400 
    116 CB        -5.5208  -17.5554  -57.0742 C.3       21 UNK        -0.1800 
    117 C         -5.8228  -17.3552  -54.5344 C.2       21 UNK         0.5000 
    118 O         -7.0434  -17.2082  -54.4606 O.2       21 UNK        -0.5000 
    119 N         -4.9579  -16.9012  -53.6185 N.am      22 UNK        -0.5000 
    120 CA        -5.2873  -16.2400  -52.3512 C.3       22 UNK         0.1400 
    121 C         -5.9968  -14.8583  -52.5078 C.2       22 UNK         0.5000 
    122 N         -6.6123  -14.3347  -51.4561 N.am      22 UNK        -0.7600 
    123 O         -5.9516  -14.2237  -53.5598 O.2       22 UNK        -0.5000 
    124 C124       -5.9967  -17.2270  -51.3781 C.3       23 UNK        -0.0398 
    125 S125       -5.5594  -16.9570  -49.6267 S.3       23 UNK        -0.2404 
    126 C126       -4.4208  -18.3513  -49.3004 C.3       23 UNK        -0.0205 
    127 H127        0.6244   -9.9825  -49.6909 H         1 UNK         0.0600 
    128 H128        2.2058   -9.6049  -49.0007 H         1 UNK         0.0600 
    129 H129        0.7501   -8.8571  -48.3345 H         1 UNK         0.0600 
    130 H130       -0.1118  -11.9881  -49.0608 H         1 UNK         0.3000 
    131 H131        1.1294  -13.5359  -47.0520 H         1 UNK         0.0600 
    132 H132       -0.5252  -15.3003  -47.6586 H         1 UNK         0.0800 
    133 H133       -1.4290  -14.1352  -48.6010 H         1 UNK         0.0800 
    134 H134       -1.3252  -14.7032  -51.0255 H         1 UNK         0.0800 
    135 H135       -0.0179  -15.5412  -51.8193 H         1 UNK         0.0800 
    136 H136       -3.0400  -16.0153  -50.0245 H         1 UNK         0.1150 
    137 H137       -2.5118  -20.2317  -49.4308 H         1 UNK         0.1150 
    138 H138        0.7775  -17.8102  -50.7193 H         1 UNK         0.1150 
    139 H139       -0.4316  -21.2862  -49.9284 H         1 UNK         0.0800 
    140 H140        0.6819  -20.4383  -50.9676 H         1 UNK         0.0800 
    141 H141        0.8781  -19.5330  -46.4968 H         1 UNK         0.0800 
    142 H142       -0.5966  -19.6715  -47.3932 H         1 UNK         0.0800 
    143 H143        1.0341  -22.0901  -46.4440 H         1 UNK         0.0600 
    144 H144       -0.5082  -20.4011  -44.8081 H         1 UNK         0.3000 
    145 H145       -1.6370  -22.7821  -42.4132 H         1 UNK         0.0600 
    146 H146       -0.4317  -21.2082  -40.9182 H         1 UNK         0.0600 
    147 H147        0.7081  -22.2498  -41.7606 H         1 UNK         0.0600 
    148 H148        0.4847  -20.5876  -42.2895 H         1 UNK         0.0600 
    149 H149       -1.8213  -19.9057  -42.7877 H         1 UNK         0.3000 
    150 H150       -5.0623  -20.0097  -44.3084 H         1 UNK         0.0600 
    151 H151       -5.3699  -20.1809  -41.8306 H         1 UNK         0.0600 
    152 H152       -5.5185  -18.5223  -42.3886 H         1 UNK         0.0600 
    153 H153       -4.0436  -19.0520  -41.5796 H         1 UNK         0.0600 
    154 H154       -3.4055  -17.8038  -43.6489 H         1 UNK         0.3000 
    155 H155       -1.7780  -17.5615  -46.8441 H         1 UNK         0.0600 
    156 H156       -2.8945  -15.3980  -46.7882 H         1 UNK         0.0600 
    157 H157       -3.8314  -15.8433  -45.3653 H         1 UNK         0.0600 
    158 H158       -4.1424  -16.6206  -46.9087 H         1 UNK         0.0600 
    159 H159       -1.2850  -15.7458  -44.9857 H         1 UNK         0.3000 
    160 H160        0.8100  -15.6374  -44.2373 H         1 UNK         0.0600 
    161 H161       -0.1067  -16.8894  -41.5996 H         1 UNK         0.0600 
    162 H162       -0.6665  -15.3933  -42.3265 H         1 UNK         0.0600 
    163 H163        0.9778  -15.5001  -41.7189 H         1 UNK         0.0600 
    164 H164        2.5463  -16.9395  -44.4118 H         1 UNK         0.3000 
    165 H165        4.4198  -18.9059  -42.5013 H         1 UNK         0.0600 
    166 H166        2.5591  -20.4656  -44.3804 H         1 UNK         0.0600 
    167 H167        4.2058  -20.9425  -43.9609 H         1 UNK         0.0600 
    168 H168        2.9628  -20.8958  -42.7236 H         1 UNK         0.0600 
    169 H169        3.9812  -18.7248  -45.3965 H         1 UNK         0.3000 
    170 H170        6.5591  -16.8971  -46.0135 H         1 UNK         0.0600 
    171 H171        4.9996  -18.4284  -47.1676 H         1 UNK         0.0600 
    172 H172        3.6865  -17.2576  -47.0480 H         1 UNK         0.0600 
    173 H173        5.0934  -16.9161  -48.0442 H         1 UNK         0.0600 
    174 H174        6.1857  -14.7258  -46.0614 H         1 UNK         0.3000 
    175 H175        5.3104  -12.7500  -45.4103 H         1 UNK         0.0600 
    176 H176        3.3478  -12.8468  -47.7645 H         1 UNK         0.0600 
    177 H177        4.3520  -11.4583  -47.3436 H         1 UNK         0.0600 
    178 H178        5.0967  -12.9621  -47.8609 H         1 UNK         0.0600 
    179 H179        2.6406  -11.7843  -45.5733 H         1 UNK         0.3000 
    180 H180        1.9326  -12.0033  -42.0733 H         1 UNK         0.0600 
    181 H181        2.8581   -9.5100  -43.5982 H         1 UNK         0.0600 
    182 H182        3.5542  -10.1037  -42.0937 H         1 UNK         0.0600 
    183 H183        1.8969   -9.5210  -42.1198 H         1 UNK         0.0600 
    184 H184        1.0491  -11.2321  -44.8101 H         1 UNK         0.3000 
    185 H185       -2.2566  -12.1690  -44.0243 H         1 UNK         0.0600 
    186 H186       -2.9358  -10.0066  -45.0531 H         1 UNK         0.0600 
    187 H187       -2.4209   -9.7578  -43.3923 H         1 UNK         0.0600 
    188 H188       -1.3459   -9.3205  -44.7150 H         1 UNK         0.0600 
    189 H189       -0.8706  -11.0855  -46.3412 H         1 UNK         0.3000 
    190 H190       -2.4719  -21.2440  -46.6902 H         1 UNK         0.3000 
    191 H191       -3.0556  -22.9364  -48.8799 H         1 UNK         0.0600 
    192 H192       -5.4293  -22.5831  -48.1721 H         1 UNK         0.0600 
    193 H193       -4.5286  -21.0771  -48.1805 H         1 UNK         0.0600 
    194 H194       -4.8781  -21.8803  -46.6524 H         1 UNK         0.0600 
    195 H195       -3.1502  -23.5643  -45.3475 H         1 UNK         0.3000 
    196 H196       -4.2577  -26.1822  -45.4948 H         1 UNK         0.0600 
    197 H197       -3.4077  -26.3937  -43.1620 H         1 UNK         0.0600 
    198 H198       -4.2210  -24.8554  -43.4039 H         1 UNK         0.0600 
    199 H199       -2.4606  -24.9251  -43.3561 H         1 UNK         0.0600 
    200 H200       -0.8499  -25.0442  -45.4914 H         1 UNK         0.3000 
    201 H201        0.3625  -27.6230  -45.5822 H         1 UNK         0.0600 
    202 H202        1.5828  -25.5973  -44.8635 H         1 UNK         0.0600 
    203 H203        1.4141  -24.8825  -46.4648 H         1 UNK         0.0600 
    204 H204        2.3987  -26.3241  -46.2397 H         1 UNK         0.0600 
    205 H205       -0.5622  -25.3187  -48.1822 H         1 UNK         0.3000 
    206 H206        0.3871  -26.9313  -50.3565 H         1 UNK         0.0600 
    207 H207        0.0480  -24.4772  -50.5334 H         1 UNK         0.0600 
    208 H208       -0.9303  -25.3125  -51.7317 H         1 UNK         0.0600 
    209 H209       -1.6850  -24.6713  -50.2773 H         1 UNK         0.0600 
    210 H210       -2.6431  -26.8229  -48.5872 H         1 UNK         0.3000 
    211 H211       -4.5343  -27.9279  -48.5577 H         1 UNK         0.0600 
    212 H212       -3.2818  -30.0819  -50.3424 H         1 UNK         0.0600 
    213 H213       -4.7340  -30.2400  -49.3656 H         1 UNK         0.0600 
    214 H214       -3.1753  -30.0358  -48.5826 H         1 UNK         0.0600 
    215 H215       -4.1510  -25.7932  -50.3270 H         1 UNK         0.3000 
    216 H216       -6.3306  -25.9254  -52.1494 H         1 UNK         0.0600 
    217 H217       -4.9534  -25.6224  -54.2571 H         1 UNK         0.0600 
    218 H218       -4.6728  -27.2047  -53.5647 H         1 UNK         0.0600 
    219 H219       -3.4816  -25.9284  -53.3400 H         1 UNK         0.0600 
    220 H220       -6.2617  -23.7970  -53.4963 H         1 UNK         0.3000 
    221 H221       -5.7923  -21.5637  -51.7489 H         1 UNK         0.0600 
    222 H222       -6.5429  -21.6312  -54.7206 H         1 UNK         0.0600 
    223 H223       -7.6850  -21.6785  -53.3765 H         1 UNK         0.0600 
    224 H224       -6.7001  -20.2516  -53.6369 H         1 UNK         0.0600 
    225 H225       -3.7457  -23.1777  -53.9669 H         1 UNK         0.3000 
    226 H226       -1.6618  -22.9607  -54.6757 H         1 UNK         0.0600 
    227 H227       -1.1850  -22.8679  -52.2766 H         1 UNK         0.0600 
    228 H228       -0.0582  -21.8123  -53.1136 H         1 UNK         0.0600 
    229 H229       -1.4250  -21.1314  -52.2320 H         1 UNK         0.0600 
    230 H230       -1.5414  -19.6315  -53.5471 H         1 UNK         0.3000 
    231 H231       -0.7261  -18.5728  -56.1335 H         1 UNK         0.0600 
    232 H232       -0.4900  -16.4687  -54.8119 H         1 UNK         0.0600 
    233 H233        0.2785  -17.8043  -53.9714 H         1 UNK         0.0600 
    234 H234       -1.2957  -17.2174  -53.4383 H         1 UNK         0.0600 
    235 H235       -3.6803  -19.3404  -54.9034 H         1 UNK         0.3000 
    236 H236       -5.7572  -19.1375  -55.6701 H         1 UNK         0.0600 
    237 H237       -5.0641  -18.1350  -57.8764 H         1 UNK         0.0600 
    238 H238       -6.5938  -17.5236  -57.2661 H         1 UNK         0.0600 
    239 H239       -5.1551  -16.5307  -57.1422 H         1 UNK         0.0600 
    240 H240       -3.9778  -17.0710  -53.7823 H         1 UNK         0.3000 
    241 H241       -4.3109  -15.9940  -51.9384 H         1 UNK         0.0600 
    242 H242       -6.6327  -14.8228  -50.5728 H         1 UNK         0.3800 
    243 H243       -7.0570  -13.4339  -51.5408 H         1 UNK         0.3800 
    244 H244       -7.0809  -17.1731  -51.4901 H         1 UNK         0.0800 
    245 H245       -5.7379  -18.2561  -51.6321 H         1 UNK         0.0800 
    246 H246       -4.4474  -18.5564  -48.2316 H         1 UNK         0.0800 
    247 H247       -4.8109  -19.2486  -49.7828 H         1 UNK         0.0800 
@<TRIPOS>BOND
     1    1    2 1    
     2    1  127 1    
     3    1  128 1    
     4    1  129 1    
     5    2    3 2    
     6    2    4 am   BACKBONE|DICT|INTERRES
     7    4    5 1    
     8    4  130 1    
     9    5    6 1    
    10    5   65 1    
    11    5  131 1    
    12    6    7 1    
    13    6  132 1    
    14    6  133 1    
    15    7    8 1    
    16    8    9 1    
    17    8  134 1    
    18    8  135 1    
    19    9   10 ar   
    20    9   14 ar   
    21   10   11 ar   
    22   10  136 1    
    23   11   12 ar   
    24   11  126 1    
    25   12   13 ar   
    26   12  137 1    
    27   13   14 ar   
    28   13   15 1    
    29   14  138 1    
    30   15   16 1    
    31   15  139 1    
    32   15  140 1    
    33   16   17 1    
    34   17   18 1    
    35   17  141 1    
    36   17  142 1    
    37   18   19 1    
    38   18   67 1    
    39   18  143 1    
    40   19   20 am   BACKBONE|DICT|INTERRES
    41   19  144 1    
    42   20   21 2    
    43   20   22 1    
    44   22   23 1    
    45   22   24 1    
    46   22  145 1    
    47   23  146 1    
    48   23  147 1    
    49   23  148 1    
    50   24   25 am   BACKBONE|DICT|INTERRES
    51   24  149 1    
    52   25   26 2    
    53   25   27 1    
    54   27   28 1    
    55   27   29 1    
    56   27  150 1    
    57   28  151 1    
    58   28  152 1    
    59   28  153 1    
    60   29   30 am   BACKBONE|DICT|INTERRES
    61   29  154 1    
    62   30   31 2    
    63   30   32 1    
    64   32   33 1    
    65   32   34 1    
    66   32  155 1    
    67   33  156 1    
    68   33  157 1    
    69   33  158 1    
    70   34   35 am   BACKBONE|DICT|INTERRES
    71   34  159 1    
    72   35   36 2    
    73   35   37 1    
    74   37   38 1    
    75   37   39 1    
    76   37  160 1    
    77   38  161 1    
    78   38  162 1    
    79   38  163 1    
    80   39   40 am   BACKBONE|DICT|INTERRES
    81   39  164 1    
    82   40   41 2    
    83   40   42 1    
    84   42   43 1    
    85   42   44 1    
    86   42  165 1    
    87   43  166 1    
    88   43  167 1    
    89   43  168 1    
    90   44   45 am   BACKBONE|DICT|INTERRES
    91   44  169 1    
    92   45   46 2    
    93   45   47 1    
    94   47   48 1    
    95   47   49 1    
    96   47  170 1    
    97   48  171 1    
    98   48  172 1    
    99   48  173 1    
   100   49   50 am   BACKBONE|DICT|INTERRES
   101   49  174 1    
   102   50   51 2    
   103   50   52 1    
   104   52   53 1    
   105   52   54 1    
   106   52  175 1    
   107   53  176 1    
   108   53  177 1    
   109   53  178 1    
   110   54   55 am   BACKBONE|DICT|INTERRES
   111   54  179 1    
   112   55   56 2    
   113   55   57 1    
   114   57   58 1    
   115   57   59 1    
   116   57  180 1    
   117   58  181 1    
   118   58  182 1    
   119   58  183 1    
   120   59   60 am   BACKBONE|DICT|INTERRES
   121   59  184 1    
   122   60   61 2    
   123   60   62 1    
   124   62   63 1    
   125   62   64 1    
   126   62  185 1    
   127   63  186 1    
   128   63  187 1    
   129   63  188 1    
   130   64   65 am   BACKBONE|DICT|INTERRES
   131   64  189 1    
   132   65   66 2    
   133   67   68 2    
   134   67   69 am   BACKBONE|DICT|INTERRES
   135   69   70 1    
   136   69  190 1    
   137   70   71 1    
   138   70   72 1    
   139   70  191 1    
   140   71  192 1    
   141   71  193 1    
   142   71  194 1    
   143   72   73 2    
   144   72   74 am   BACKBONE|DICT|INTERRES
   145   74   75 1    
   146   74  195 1    
   147   75   76 1    
   148   75   77 1    
   149   75  196 1    
   150   76  197 1    
   151   76  198 1    
   152   76  199 1    
   153   77   78 2    
   154   77   79 am   BACKBONE|DICT|INTERRES
   155   79   80 1    
   156   79  200 1    
   157   80   81 1    
   158   80   82 1    
   159   80  201 1    
   160   81  202 1    
   161   81  203 1    
   162   81  204 1    
   163   82   83 2    
   164   82   84 am   BACKBONE|DICT|INTERRES
   165   84   85 1    
   166   84  205 1    
   167   85   86 1    
   168   85   87 1    
   169   85  206 1    
   170   86  207 1    
   171   86  208 1    
   172   86  209 1    
   173   87   88 2    
   174   87   89 am   BACKBONE|DICT|INTERRES
   175   89   90 1    
   176   89  210 1    
   177   90   91 1    
   178   90   92 1    
   179   90  211 1    
   180   91  212 1    
   181   91  213 1    
   182   91  214 1    
   183   92   93 2    
   184   92   94 am   BACKBONE|DICT|INTERRES
   185   94   95 1    
   186   94  215 1    
   187   95   96 1    
   188   95   97 1    
   189   95  216 1    
   190   96  217 1    
   191   96  218 1    
   192   96  219 1    
   193   97   98 2    
   194   97   99 am   BACKBONE|DICT|INTERRES
   195   99  100 1    
   196   99  220 1    
   197  100  101 1    
   198  100  102 1    
   199  100  221 1    
   200  101  222 1    
   201  101  223 1    
   202  101  224 1    
   203  102  103 2    
   204  102  104 am   BACKBONE|DICT|INTERRES
   205  104  105 1    
   206  104  225 1    
   207  105  106 1    
   208  105  107 1    
   209  105  226 1    
   210  106  227 1    
   211  106  228 1    
   212  106  229 1    
   213  107  108 2    
   214  107  109 am   BACKBONE|DICT|INTERRES
   215  109  110 1    
   216  109  230 1    
   217  110  111 1    
   218  110  112 1    
   219  110  231 1    
   220  111  232 1    
   221  111  233 1    
   222  111  234 1    
   223  112  113 2    
   224  112  114 am   BACKBONE|DICT|INTERRES
   225  114  115 1    
   226  114  235 1    
   227  115  116 1    
   228  115  117 1    
   229  115  236 1    
   230  116  237 1    
   231  116  238 1    
   232  116  239 1    
   233  117  118 2    
   234  117  119 am   BACKBONE|DICT|INTERRES
   235  119  120 1    
   236  119  240 1    
   237  120  121 1    
   238  120  124 1    
   239  120  241 1    
   240  121  122 am   BACKBONE|DICT|INTERRES
   241  121  123 2    
   242  122  242 1    
   243  122  243 1    
   244  124  125 1    
   245  124  244 1    
   246  124  245 1    
   247  125  126 1    
   248  126  246 1    
   249  126  247 1    
@<TRIPOS>SUBSTRUCTURE
     1 UNK         1 GROUP             0       ****    0 ROOT    
