@<TRIPOS>MOLECULE
3R540
247   249    1
SMALL
USER_CHARGES


@<TRIPOS>ATOM
      1 CA          4.9668  -15.1094  -46.7021 C.3       0 UNK        -0.1800 
      2 C           4.1941  -14.5932  -47.9081 C.2       0 UNK         0.5000 
      3 O           4.6032  -13.6053  -48.5180 O.2       0 UNK        -0.5000 
      4 N           3.0822  -15.2603  -48.2437 N.am      1 UNK        -0.5000 
      5 CA          2.1715  -14.9719  -49.3618 C.3       1 UNK         0.1400 
      6 C6          2.8429  -15.0744  -50.7621 C.3       23 UNK        -0.0398 
      7 S7          3.8483  -16.5844  -51.0033 S.3       23 UNK        -0.2404 
      8 C8          2.8935  -17.5142  -52.2382 C.3       23 UNK        -0.0205 
      9 C9          1.8259  -18.3853  -51.5963 C.ar      23 UNK        -0.0193 
     10 C10         0.5166  -17.9198  -51.4645 C.ar      23 UNK        -0.1150 
     11 C11        -0.4828  -18.7455  -50.9414 C.ar      23 UNK        -0.0193 
     12 C12        -0.1594  -20.0442  -50.5325 C.ar      23 UNK        -0.1150 
     13 C13         1.1518  -20.5185  -50.6495 C.ar      23 UNK        -0.0193 
     14 C14         2.1383  -19.6822  -51.1798 C.ar      23 UNK        -0.1150 
     15 C15         1.5036  -21.9491  -50.2627 C.3       23 UNK        -0.0205 
     16 S16         2.3600  -22.0420  -48.6579 S.3       23 UNK        -0.2404 
     17 C17         0.9592  -21.9236  -47.5005 C.3       23 UNK        -0.0398 
     18 CA          0.5912  -23.2852  -46.8775 C.3       11 UNK         0.1400 
     19 N           1.6717  -23.8368  -46.0582 N.am      11 UNK        -0.5000 
     20 C           1.7306  -25.1060  -45.6365 C.2       10 UNK         0.5000 
     21 O           0.8720  -25.9518  -45.8857 O.2       10 UNK        -0.5000 
     22 CA          2.9294  -25.4751  -44.7464 C.3       10 UNK         0.1400 
     23 CB          4.1849  -25.7158  -45.5976 C.3       10 UNK        -0.1800 
     24 N           3.2102  -24.4530  -43.7364 N.am      10 UNK        -0.5000 
     25 C           2.3760  -24.1361  -42.7366 C.2       9 UNK         0.5000 
     26 O           1.2851  -24.6749  -42.5589 O.2       9 UNK        -0.5000 
     27 CA          2.8127  -22.9956  -41.8031 C.3       9 UNK         0.1400 
     28 CB          3.7626  -23.5199  -40.7158 C.3       9 UNK        -0.1800 
     29 N           3.4402  -21.8686  -42.4979 N.am      9 UNK        -0.5000 
     30 C           2.8410  -21.1161  -43.4292 C.2       8 UNK         0.5000 
     31 O           1.7240  -21.3520  -43.8987 O.2       8 UNK        -0.5000 
     32 CA          3.6094  -19.8842  -43.9144 C.3       8 UNK         0.1400 
     33 CB          4.1896  -20.1043  -45.3212 C.3       8 UNK        -0.1800 
     34 N           2.6671  -18.7753  -43.9352 N.am      8 UNK        -0.5000 
     35 C           2.9483  -17.4948  -43.6731 C.2       7 UNK         0.5000 
     36 O           4.0793  -17.0891  -43.4000 O.2       7 UNK        -0.5000 
     37 CA          1.7550  -16.5105  -43.7085 C.3       7 UNK         0.1400 
     38 CB          2.1812  -15.0536  -43.9870 C.3       7 UNK        -0.1800 
     39 N           0.6757  -16.9053  -44.6248 N.am      7 UNK        -0.5000 
     40 C           0.7798  -17.1106  -45.9471 C.2       6 UNK         0.5000 
     41 O           1.8397  -17.0523  -46.5669 O.2       6 UNK        -0.5000 
     42 CA         -0.5108  -17.4303  -46.7185 C.3       6 UNK         0.1400 
     43 CB         -0.5620  -18.9119  -47.0991 C.3       6 UNK        -0.1800 
     44 N          -1.7298  -17.0703  -45.9920 N.am      6 UNK        -0.5000 
     45 C          -2.1975  -15.8197  -45.9228 C.2       5 UNK         0.5000 
     46 O          -1.6465  -14.8549  -46.4583 O.2       5 UNK        -0.5000 
     47 CA         -3.4635  -15.6035  -45.0775 C.3       5 UNK         0.1400 
     48 CB         -3.0821  -15.1907  -43.6478 C.3       5 UNK        -0.1800 
     49 N          -4.2973  -14.5588  -45.6655 N.am      5 UNK        -0.5000 
     50 C          -5.0843  -14.7314  -46.7352 C.2       4 UNK         0.5000 
     51 O          -5.2968  -15.8267  -47.2524 O.2       4 UNK        -0.5000 
     52 CA         -5.7308  -13.4695  -47.3434 C.3       4 UNK         0.1400 
     53 CB         -7.2197  -13.4039  -46.9709 C.3       4 UNK        -0.1800 
     54 N          -5.0851  -12.2247  -46.9113 N.am      4 UNK        -0.5000 
     55 C          -3.8999  -11.7228  -47.2918 C.2       3 UNK         0.5000 
     56 O          -3.4679  -10.7006  -46.7605 O.2       3 UNK        -0.5000 
     57 CA         -3.0827  -12.4044  -48.4184 C.3       3 UNK         0.1400 
     58 CB         -3.2877  -11.6859  -49.7671 C.3       3 UNK        -0.1800 
     59 N          -1.6650  -12.5279  -48.0639 N.am      3 UNK        -0.5000 
     60 C          -0.7206  -11.5778  -48.0046 C.2       2 UNK         0.5000 
     61 O          -0.8654  -10.4121  -48.3754 O.2       2 UNK        -0.5000 
     62 CA          0.6391  -12.0109  -47.4269 C.3       2 UNK         0.1400 
     63 CB          0.6034  -12.0055  -45.8902 C.3       2 UNK        -0.1800 
     64 N           1.1073  -13.3194  -47.8879 N.am      2 UNK        -0.5000 
     65 C           1.4452  -13.6204  -49.1514 C.2       1 UNK         0.5000 
     66 O           1.2596  -12.8614  -50.1040 O.2       1 UNK        -0.5000 
     67 C          -0.7238  -23.1698  -46.0858 C.2       11 UNK         0.5000 
     68 O          -1.7887  -23.4139  -46.6513 O.2       11 UNK        -0.5000 
     69 N          -0.6337  -22.8186  -44.7972 N.am      12 UNK        -0.5000 
     70 CA         -1.7730  -22.7654  -43.8843 C.3       12 UNK         0.1400 
     71 CB         -1.3570  -22.0379  -42.5973 C.3       12 UNK        -0.1800 
     72 C          -2.3433  -24.1611  -43.5673 C.2       12 UNK         0.5000 
     73 O          -3.5610  -24.3043  -43.4641 O.2       12 UNK        -0.5000 
     74 N          -1.4623  -25.1590  -43.4195 N.am      13 UNK        -0.5000 
     75 CA         -1.8244  -26.5356  -43.0944 C.3       13 UNK         0.1400 
     76 CB         -0.6231  -27.2476  -42.4505 C.3       13 UNK        -0.1800 
     77 C          -2.3361  -27.3223  -44.3123 C.2       13 UNK         0.5000 
     78 O          -3.4532  -27.8391  -44.2716 O.2       13 UNK        -0.5000 
     79 N          -1.4995  -27.4422  -45.3520 N.am      14 UNK        -0.5000 
     80 CA         -1.7305  -28.3532  -46.4731 C.3       14 UNK         0.1400 
     81 CB         -0.3822  -28.8164  -47.0483 C.3       14 UNK        -0.1800 
     82 C          -2.6020  -27.7278  -47.5699 C.2       14 UNK         0.5000 
     83 O          -3.5463  -28.3695  -48.0319 O.2       14 UNK        -0.5000 
     84 N          -2.2676  -26.4957  -47.9754 N.am      15 UNK        -0.5000 
     85 CA         -2.9583  -25.7857  -49.0559 C.3       15 UNK         0.1400 
     86 CB         -1.9683  -24.8476  -49.7687 C.3       15 UNK        -0.1800 
     87 C          -4.1951  -25.0091  -48.5699 C.2       15 UNK         0.5000 
     88 O          -4.9803  -24.5605  -49.4036 O.2       15 UNK        -0.5000 
     89 N          -4.3272  -24.8195  -47.2473 N.am      16 UNK        -0.5000 
     90 CA         -5.3616  -24.0360  -46.5560 C.3       16 UNK         0.1400 
     91 CB         -6.7304  -24.7375  -46.6744 C.3       16 UNK        -0.1800 
     92 C          -5.4143  -22.5556  -47.0011 C.2       16 UNK         0.5000 
     93 O          -6.4703  -21.9269  -46.9167 O.2       16 UNK        -0.5000 
     94 N          -4.2800  -22.0460  -47.5089 N.am      17 UNK        -0.5000 
     95 CA         -4.0995  -20.7633  -48.2001 C.3       17 UNK         0.1400 
     96 CB         -4.2483  -19.5870  -47.2134 C.3       17 UNK        -0.1800 
     97 C          -4.9768  -20.5893  -49.4657 C.2       17 UNK         0.5000 
     98 O          -5.1649  -19.4616  -49.9233 O.2       17 UNK        -0.5000 
     99 N          -5.4890  -21.6912  -50.0327 N.am      18 UNK        -0.5000 
    100 CA        -6.3750  -21.6981  -51.1949 C.3       18 UNK         0.1400 
    101 CB        -7.3537  -22.8804  -51.0743 C.3       18 UNK        -0.1800 
    102 C         -5.5605  -21.7263  -52.5011 C.2       18 UNK         0.5000 
    103 O         -5.5695  -22.7266  -53.2215 O.2       18 UNK        -0.5000 
    104 N         -4.8634  -20.6214  -52.7793 N.am      19 UNK        -0.5000 
    105 CA        -4.1350  -20.3744  -54.0186 C.3       19 UNK         0.1400 
    106 CB        -2.6489  -20.7215  -53.8310 C.3       19 UNK        -0.1800 
    107 C         -4.3307  -18.9049  -54.4124 C.2       19 UNK         0.5000 
    108 O         -4.5014  -18.0543  -53.5345 O.2       19 UNK        -0.5000 
    109 N         -4.2928  -18.6327  -55.7241 N.am      20 UNK        -0.5000 
    110 CA        -4.5975  -17.3344  -56.3399 C.3       20 UNK         0.1400 
    111 CB        -4.5111  -17.4714  -57.8676 C.3       20 UNK        -0.1800 
    112 C         -3.7187  -16.1655  -55.8563 C.2       20 UNK         0.5000 
    113 O         -4.1888  -15.0276  -55.8220 O.2       20 UNK        -0.5000 
    114 N         -2.4819  -16.4706  -55.4410 N.am      21 UNK        -0.5000 
    115 CA        -1.5324  -15.5288  -54.8427 C.3       21 UNK         0.1400 
    116 CB        -0.1814  -16.2382  -54.6662 C.3       21 UNK        -0.1800 
    117 C         -2.0096  -14.9090  -53.5105 C.2       21 UNK         0.5000 
    118 O         -1.5311  -13.8345  -53.1474 O.2       21 UNK        -0.5000 
    119 N         -2.9511  -15.5738  -52.8286 N.am      22 UNK        -0.5000 
    120 CA        -3.6348  -15.0805  -51.6235 C.3       22 UNK         0.1400 
    121 C         -5.0112  -14.4196  -51.9322 C.2       22 UNK         0.5000 
    122 N         -5.4140  -14.2442  -53.1861 N.am      22 UNK        -0.7600 
    123 O         -5.7275  -14.0340  -51.0136 O.2       22 UNK        -0.5000 
    124 C124       -3.7584  -16.1850  -50.5429 C.3       23 UNK        -0.0398 
    125 S125       -2.1288  -16.7339  -49.9364 S.3       23 UNK        -0.2404 
    126 C126       -1.9231  -18.2594  -50.9025 C.3       23 UNK        -0.0205 
    127 H127        4.5267  -16.0226  -46.2993 H         1 UNK         0.0600 
    128 H128        4.9769  -14.3589  -45.9118 H         1 UNK         0.0600 
    129 H129        5.9975  -15.3267  -46.9816 H         1 UNK         0.0600 
    130 H130        2.7897  -16.0444  -47.6606 H         1 UNK         0.3000 
    131 H131        1.3965  -15.7389  -49.3177 H         1 UNK         0.0600 
    132 H132        2.0836  -15.0145  -51.5431 H         1 UNK         0.0800 
    133 H133        3.5036  -14.2218  -50.9271 H         1 UNK         0.0800 
    134 H134        2.4531  -16.8354  -52.9694 H         1 UNK         0.0800 
    135 H135        3.5828  -18.1462  -52.8002 H         1 UNK         0.0800 
    136 H136        0.2659  -16.9206  -51.7905 H         1 UNK         0.1150 
    137 H137       -0.9321  -20.6950  -50.1495 H         1 UNK         0.1150 
    138 H138        3.1496  -20.0495  -51.2853 H         1 UNK         0.1150 
    139 H139        0.6128  -22.5791  -50.2451 H         1 UNK         0.0800 
    140 H140        2.1551  -22.3740  -51.0277 H         1 UNK         0.0800 
    141 H141        1.2222  -21.2085  -46.7199 H         1 UNK         0.0800 
    142 H142        0.1014  -21.5069  -48.0290 H         1 UNK         0.0800 
    143 H143        0.4072  -23.9869  -47.6940 H         1 UNK         0.0600 
    144 H144        2.4006  -23.1965  -45.7816 H         1 UNK         0.3000 
    145 H145        2.6843  -26.4049  -44.2285 H         1 UNK         0.0600 
    146 H146        5.0186  -26.0552  -44.9826 H         1 UNK         0.0600 
    147 H147        4.0038  -26.4842  -46.3503 H         1 UNK         0.0600 
    148 H148        4.4993  -24.8116  -46.1206 H         1 UNK         0.0600 
    149 H149        4.0839  -23.9540  -43.8146 H         1 UNK         0.3000 
    150 H150        1.9140  -22.6169  -41.3116 H         1 UNK         0.0600 
    151 H151        3.3119  -24.3510  -40.1714 H         1 UNK         0.0600 
    152 H152        3.9939  -22.7438  -39.9860 H         1 UNK         0.0600 
    153 H153        4.7031  -23.8756  -41.1382 H         1 UNK         0.0600 
    154 H154        4.3620  -21.6072  -42.1789 H         1 UNK         0.3000 
    155 H155        4.4212  -19.6712  -43.2157 H         1 UNK         0.0600 
    156 H156        4.7465  -19.2291  -45.6563 H         1 UNK         0.0600 
    157 H157        3.4067  -20.2977  -46.0550 H         1 UNK         0.0600 
    158 H158        4.8743  -20.9530  -45.3356 H         1 UNK         0.0600 
    159 H159        1.7089  -19.0436  -44.1149 H         1 UNK         0.3000 
    160 H160        1.3258  -16.5363  -42.7060 H         1 UNK         0.0600 
    161 H161        2.6248  -14.9427  -44.9755 H         1 UNK         0.0600 
    162 H162        2.9140  -14.7080  -43.2572 H         1 UNK         0.0600 
    163 H163        1.3269  -14.3795  -43.9280 H         1 UNK         0.0600 
    164 H164       -0.2399  -16.9939  -44.2097 H         1 UNK         0.3000 
    165 H165       -0.4640  -16.8520  -47.6420 H         1 UNK         0.0600 
    166 H166       -0.6198  -19.5587  -46.2227 H         1 UNK         0.0600 
    167 H167        0.3313  -19.1794  -47.6641 H         1 UNK         0.0600 
    168 H168       -1.4169  -19.1225  -47.7397 H         1 UNK         0.0600 
    169 H169       -2.2259  -17.8171  -45.5286 H         1 UNK         0.3000 
    170 H170       -4.0332  -16.5345  -45.0352 H         1 UNK         0.0600 
    171 H171       -2.4856  -15.9640  -43.1623 H         1 UNK         0.0600 
    172 H172       -2.4974  -14.2696  -43.6363 H         1 UNK         0.0600 
    173 H173       -3.9687  -15.0328  -43.0334 H         1 UNK         0.0600 
    174 H174       -4.1568  -13.6214  -45.3186 H         1 UNK         0.3000 
    175 H175       -5.6664  -13.5453  -48.4290 H         1 UNK         0.0600 
    176 H176       -7.3632  -13.3226  -45.8927 H         1 UNK         0.0600 
    177 H177       -7.7067  -12.5492  -47.4410 H         1 UNK         0.0600 
    178 H178       -7.7458  -14.2990  -47.3057 H         1 UNK         0.0600 
    179 H179       -5.5897  -11.7174  -46.1993 H         1 UNK         0.3000 
    180 H180       -3.4043  -13.4349  -48.5512 H         1 UNK         0.0600 
    181 H181       -3.1110  -10.6129  -49.6897 H         1 UNK         0.0600 
    182 H182       -4.3111  -11.8147  -50.1199 H         1 UNK         0.0600 
    183 H183       -2.6214  -12.0770  -50.5358 H         1 UNK         0.0600 
    184 H184       -1.4255  -13.4269  -47.6503 H         1 UNK         0.3000 
    185 H185        1.3775  -11.2723  -47.7461 H         1 UNK         0.0600 
    186 H186        1.5917  -12.1961  -45.4716 H         1 UNK         0.0600 
    187 H187        0.2715  -11.0382  -45.5108 H         1 UNK         0.0600 
    188 H188       -0.0789  -12.7617  -45.5000 H         1 UNK         0.0600 
    189 H189        1.2914  -14.0062  -47.1721 H         1 UNK         0.3000 
    190 H190        0.2725  -22.5648  -44.4148 H         1 UNK         0.3000 
    191 H191       -2.5641  -22.1833  -44.3624 H         1 UNK         0.0600 
    192 H192       -1.0082  -21.0274  -42.8115 H         1 UNK         0.0600 
    193 H193       -2.1967  -21.9542  -41.9065 H         1 UNK         0.0600 
    194 H194       -0.5551  -22.5645  -42.0791 H         1 UNK         0.0600 
    195 H195       -0.4702  -24.9465  -43.4497 H         1 UNK         0.3000 
    196 H196       -2.6263  -26.5166  -42.3530 H         1 UNK         0.0600 
    197 H197       -0.8641  -28.2836  -42.2095 H         1 UNK         0.0600 
    198 H198       -0.3300  -26.7583  -41.5215 H         1 UNK         0.0600 
    199 H199        0.2458  -27.2559  -43.1097 H         1 UNK         0.0600 
    200 H200       -0.6138  -26.9412  -45.3504 H         1 UNK         0.3000 
    201 H201       -2.2473  -29.2426  -46.1052 H         1 UNK         0.0600 
    202 H202        0.2323  -29.2878  -46.2812 H         1 UNK         0.0600 
    203 H203        0.1878  -27.9886  -47.4710 H         1 UNK         0.0600 
    204 H204       -0.5299  -29.5492  -47.8424 H         1 UNK         0.0600 
    205 H205       -1.4911  -26.0253  -47.5323 H         1 UNK         0.3000 
    206 H206       -3.3068  -26.5105  -49.7948 H         1 UNK         0.0600 
    207 H207       -1.0954  -25.3932  -50.1272 H         1 UNK         0.0600 
    208 H208       -2.4350  -24.3796  -50.6365 H         1 UNK         0.0600 
    209 H209       -1.6195  -24.0456  -49.1212 H         1 UNK         0.0600 
    210 H210       -3.5866  -25.1750  -46.6593 H         1 UNK         0.3000 
    211 H211       -5.0893  -24.0235  -45.5021 H         1 UNK         0.0600 
    212 H212       -7.1051  -24.7232  -47.6984 H         1 UNK         0.0600 
    213 H213       -7.4768  -24.2504  -46.0461 H         1 UNK         0.0600 
    214 H214       -6.6683  -25.7775  -46.3539 H         1 UNK         0.0600 
    215 H215       -3.4555  -22.6375  -47.4616 H         1 UNK         0.3000 
    216 H216       -3.0686  -20.7646  -48.5554 H         1 UNK         0.0600 
    217 H217       -3.6116  -19.7232  -46.3396 H         1 UNK         0.0600 
    218 H218       -5.2761  -19.4782  -46.8665 H         1 UNK         0.0600 
    219 H219       -3.9623  -18.6429  -47.6801 H         1 UNK         0.0600 
    220 H220       -5.2652  -22.6028  -49.6452 H         1 UNK         0.3000 
    221 H221       -6.9743  -20.7850  -51.2009 H         1 UNK         0.0600 
    222 H222       -6.8399  -23.8411  -51.1100 H         1 UNK         0.0600 
    223 H223       -7.9124  -22.8355  -50.1392 H         1 UNK         0.0600 
    224 H224       -8.0792  -22.8684  -51.8884 H         1 UNK         0.0600 
    225 H225       -4.9268  -19.8268  -52.1511 H         1 UNK         0.3000 
    226 H226       -4.5464  -20.9925  -54.8196 H         1 UNK         0.0600 
    227 H227       -2.5211  -21.7794  -53.6010 H         1 UNK         0.0600 
    228 H228       -2.0788  -20.5154  -54.7374 H         1 UNK         0.0600 
    229 H229       -2.1965  -20.1519  -53.0214 H         1 UNK         0.0600 
    230 H230       -4.1235  -19.3925  -56.3677 H         1 UNK         0.3000 
    231 H231       -5.6284  -17.0872  -56.0787 H         1 UNK         0.0600 
    232 H232       -4.7566  -16.5293  -58.3598 H         1 UNK         0.0600 
    233 H233       -5.2113  -18.2204  -58.2378 H         1 UNK         0.0600 
    234 H234       -3.5092  -17.7585  -58.1894 H         1 UNK         0.0600 
    235 H235       -2.1870  -17.4337  -55.5009 H         1 UNK         0.3000 
    236 H236       -1.3942  -14.7041  -55.5449 H         1 UNK         0.0600 
    237 H237        0.2498  -16.5052  -55.6310 H         1 UNK         0.0600 
    238 H238        0.5388  -15.5970  -54.1562 H         1 UNK         0.0600 
    239 H239       -0.2844  -17.1539  -54.0845 H         1 UNK         0.0600 
    240 H240       -3.3248  -16.4355  -53.2121 H         1 UNK         0.3000 
    241 H241       -3.0353  -14.2834  -51.1840 H         1 UNK         0.0600 
    242 H242       -4.8426  -14.5278  -53.9735 H         1 UNK         0.3800 
    243 H243       -6.3055  -13.8065  -53.3550 H         1 UNK         0.3800 
    244 H244       -4.3282  -17.0359  -50.9197 H         1 UNK         0.0800 
    245 H245       -4.3087  -15.8159  -49.6780 H         1 UNK         0.0800 
    246 H246       -2.5821  -19.0262  -50.4975 H         1 UNK         0.0800 
    247 H247       -2.2466  -18.0811  -51.9270 H         1 UNK         0.0800 
@<TRIPOS>BOND
     1    1    2 1    
     2    1  127 1    
     3    1  128 1    
     4    1  129 1    
     5    2    3 2    
     6    2    4 am   BACKBONE|DICT|INTERRES
     7    4    5 1    
     8    4  130 1    
     9    5    6 1    
    10    5   65 1    
    11    5  131 1    
    12    6    7 1    
    13    6  132 1    
    14    6  133 1    
    15    7    8 1    
    16    8    9 1    
    17    8  134 1    
    18    8  135 1    
    19    9   10 ar   
    20    9   14 ar   
    21   10   11 ar   
    22   10  136 1    
    23   11   12 ar   
    24   11  126 1    
    25   12   13 ar   
    26   12  137 1    
    27   13   14 ar   
    28   13   15 1    
    29   14  138 1    
    30   15   16 1    
    31   15  139 1    
    32   15  140 1    
    33   16   17 1    
    34   17   18 1    
    35   17  141 1    
    36   17  142 1    
    37   18   19 1    
    38   18   67 1    
    39   18  143 1    
    40   19   20 am   BACKBONE|DICT|INTERRES
    41   19  144 1    
    42   20   21 2    
    43   20   22 1    
    44   22   23 1    
    45   22   24 1    
    46   22  145 1    
    47   23  146 1    
    48   23  147 1    
    49   23  148 1    
    50   24   25 am   BACKBONE|DICT|INTERRES
    51   24  149 1    
    52   25   26 2    
    53   25   27 1    
    54   27   28 1    
    55   27   29 1    
    56   27  150 1    
    57   28  151 1    
    58   28  152 1    
    59   28  153 1    
    60   29   30 am   BACKBONE|DICT|INTERRES
    61   29  154 1    
    62   30   31 2    
    63   30   32 1    
    64   32   33 1    
    65   32   34 1    
    66   32  155 1    
    67   33  156 1    
    68   33  157 1    
    69   33  158 1    
    70   34   35 am   BACKBONE|DICT|INTERRES
    71   34  159 1    
    72   35   36 2    
    73   35   37 1    
    74   37   38 1    
    75   37   39 1    
    76   37  160 1    
    77   38  161 1    
    78   38  162 1    
    79   38  163 1    
    80   39   40 am   BACKBONE|DICT|INTERRES
    81   39  164 1    
    82   40   41 2    
    83   40   42 1    
    84   42   43 1    
    85   42   44 1    
    86   42  165 1    
    87   43  166 1    
    88   43  167 1    
    89   43  168 1    
    90   44   45 am   BACKBONE|DICT|INTERRES
    91   44  169 1    
    92   45   46 2    
    93   45   47 1    
    94   47   48 1    
    95   47   49 1    
    96   47  170 1    
    97   48  171 1    
    98   48  172 1    
    99   48  173 1    
   100   49   50 am   BACKBONE|DICT|INTERRES
   101   49  174 1    
   102   50   51 2    
   103   50   52 1    
   104   52   53 1    
   105   52   54 1    
   106   52  175 1    
   107   53  176 1    
   108   53  177 1    
   109   53  178 1    
   110   54   55 am   BACKBONE|DICT|INTERRES
   111   54  179 1    
   112   55   56 2    
   113   55   57 1    
   114   57   58 1    
   115   57   59 1    
   116   57  180 1    
   117   58  181 1    
   118   58  182 1    
   119   58  183 1    
   120   59   60 am   BACKBONE|DICT|INTERRES
   121   59  184 1    
   122   60   61 2    
   123   60   62 1    
   124   62   63 1    
   125   62   64 1    
   126   62  185 1    
   127   63  186 1    
   128   63  187 1    
   129   63  188 1    
   130   64   65 am   BACKBONE|DICT|INTERRES
   131   64  189 1    
   132   65   66 2    
   133   67   68 2    
   134   67   69 am   BACKBONE|DICT|INTERRES
   135   69   70 1    
   136   69  190 1    
   137   70   71 1    
   138   70   72 1    
   139   70  191 1    
   140   71  192 1    
   141   71  193 1    
   142   71  194 1    
   143   72   73 2    
   144   72   74 am   BACKBONE|DICT|INTERRES
   145   74   75 1    
   146   74  195 1    
   147   75   76 1    
   148   75   77 1    
   149   75  196 1    
   150   76  197 1    
   151   76  198 1    
   152   76  199 1    
   153   77   78 2    
   154   77   79 am   BACKBONE|DICT|INTERRES
   155   79   80 1    
   156   79  200 1    
   157   80   81 1    
   158   80   82 1    
   159   80  201 1    
   160   81  202 1    
   161   81  203 1    
   162   81  204 1    
   163   82   83 2    
   164   82   84 am   BACKBONE|DICT|INTERRES
   165   84   85 1    
   166   84  205 1    
   167   85   86 1    
   168   85   87 1    
   169   85  206 1    
   170   86  207 1    
   171   86  208 1    
   172   86  209 1    
   173   87   88 2    
   174   87   89 am   BACKBONE|DICT|INTERRES
   175   89   90 1    
   176   89  210 1    
   177   90   91 1    
   178   90   92 1    
   179   90  211 1    
   180   91  212 1    
   181   91  213 1    
   182   91  214 1    
   183   92   93 2    
   184   92   94 am   BACKBONE|DICT|INTERRES
   185   94   95 1    
   186   94  215 1    
   187   95   96 1    
   188   95   97 1    
   189   95  216 1    
   190   96  217 1    
   191   96  218 1    
   192   96  219 1    
   193   97   98 2    
   194   97   99 am   BACKBONE|DICT|INTERRES
   195   99  100 1    
   196   99  220 1    
   197  100  101 1    
   198  100  102 1    
   199  100  221 1    
   200  101  222 1    
   201  101  223 1    
   202  101  224 1    
   203  102  103 2    
   204  102  104 am   BACKBONE|DICT|INTERRES
   205  104  105 1    
   206  104  225 1    
   207  105  106 1    
   208  105  107 1    
   209  105  226 1    
   210  106  227 1    
   211  106  228 1    
   212  106  229 1    
   213  107  108 2    
   214  107  109 am   BACKBONE|DICT|INTERRES
   215  109  110 1    
   216  109  230 1    
   217  110  111 1    
   218  110  112 1    
   219  110  231 1    
   220  111  232 1    
   221  111  233 1    
   222  111  234 1    
   223  112  113 2    
   224  112  114 am   BACKBONE|DICT|INTERRES
   225  114  115 1    
   226  114  235 1    
   227  115  116 1    
   228  115  117 1    
   229  115  236 1    
   230  116  237 1    
   231  116  238 1    
   232  116  239 1    
   233  117  118 2    
   234  117  119 am   BACKBONE|DICT|INTERRES
   235  119  120 1    
   236  119  240 1    
   237  120  121 1    
   238  120  124 1    
   239  120  241 1    
   240  121  122 am   BACKBONE|DICT|INTERRES
   241  121  123 2    
   242  122  242 1    
   243  122  243 1    
   244  124  125 1    
   245  124  244 1    
   246  124  245 1    
   247  125  126 1    
   248  126  246 1    
   249  126  247 1    
@<TRIPOS>SUBSTRUCTURE
     1 UNK         1 GROUP             0       ****    0 ROOT    
