@<TRIPOS>MOLECULE
3R540
247   249    1
SMALL
USER_CHARGES


@<TRIPOS>ATOM
      1 CA         -2.9068  -10.5389  -49.4838 C.3       0 UNK        -0.1800 
      2 C          -2.4361  -11.6963  -48.6164 C.2       0 UNK         0.5000 
      3 O          -1.2778  -11.7166  -48.2020 O.2       0 UNK        -0.5000 
      4 N          -3.3323  -12.6480  -48.3224 N.am      1 UNK        -0.5000 
      5 CA         -3.0742  -13.8697  -47.5451 C.3       1 UNK         0.1400 
      6 C6         -4.3407  -14.7548  -47.4391 C.3       23 UNK        -0.0398 
      7 S7         -4.8657  -15.4289  -49.0535 S.3       23 UNK        -0.2404 
      8 C8         -4.5739  -17.2153  -48.8335 C.3       23 UNK        -0.0205 
      9 C9         -3.1296  -17.6080  -49.1144 C.ar      23 UNK        -0.0193 
     10 C10        -2.7985  -18.2851  -50.2915 C.ar      23 UNK        -0.1150 
     11 C11        -1.4767  -18.6633  -50.5480 C.ar      23 UNK        -0.0193 
     12 C12        -0.4811  -18.3599  -49.6150 C.ar      23 UNK        -0.1150 
     13 C13        -0.7991  -17.6838  -48.4346 C.ar      23 UNK        -0.0193 
     14 C14        -2.1247  -17.3192  -48.1886 C.ar      23 UNK        -0.1150 
     15 C15         0.2924  -17.3094  -47.4448 C.3       23 UNK        -0.0205 
     16 S16         0.6422  -18.6303  -46.2424 S.3       23 UNK        -0.2404 
     17 C17        -0.8646  -18.6094  -45.2123 C.3       23 UNK        -0.0398 
     18 CA         -1.6603  -19.9226  -45.3769 C.3       11 UNK         0.1400 
     19 N          -0.9051  -21.0530  -44.8315 N.am      11 UNK        -0.5000 
     20 C          -1.2456  -22.3464  -44.8635 C.2       10 UNK         0.5000 
     21 O          -2.2544  -22.7723  -45.4257 O.2       10 UNK        -0.5000 
     22 CA         -0.3310  -23.3094  -44.0818 C.3       10 UNK         0.1400 
     23 CB          0.6879  -23.9638  -45.0260 C.3       10 UNK        -0.1800 
     24 N           0.3878  -22.6637  -42.9753 N.am      10 UNK        -0.5000 
     25 C          -0.1824  -22.0693  -41.9153 C.2       9 UNK         0.5000 
     26 O          -1.4025  -21.9823  -41.7728 O.2       9 UNK        -0.5000 
     27 CA          0.7463  -21.4006  -40.8796 C.3       9 UNK         0.1400 
     28 CB          0.3152  -21.7029  -39.4299 C.3       9 UNK        -0.1800 
     29 N           2.1787  -21.6596  -41.0769 N.am      9 UNK        -0.5000 
     30 C           2.8408  -22.8184  -40.9209 C.2       8 UNK         0.5000 
     31 O           2.2991  -23.8805  -40.6152 O.2       8 UNK        -0.5000 
     32 CA          4.3640  -22.8033  -41.1750 C.3       8 UNK         0.1400 
     33 CB          4.6854  -23.4817  -42.5165 C.3       8 UNK        -0.1800 
     34 N           4.9446  -21.4591  -41.1831 N.am      8 UNK        -0.5000 
     35 C           5.0879  -20.6681  -40.1102 C.2       7 UNK         0.5000 
     36 O           4.8341  -21.0262  -38.9598 O.2       7 UNK        -0.5000 
     37 CA          5.5671  -19.2239  -40.3690 C.3       7 UNK         0.1400 
     38 CB          7.0602  -19.0858  -40.0337 C.3       7 UNK        -0.1800 
     39 N           5.3420  -18.7502  -41.7410 N.am      7 UNK        -0.5000 
     40 C           4.1437  -18.5872  -42.3179 C.2       6 UNK         0.5000 
     41 O           3.0740  -18.8640  -41.7684 O.2       6 UNK        -0.5000 
     42 CA          4.1544  -18.1153  -43.7816 C.3       6 UNK         0.1400 
     43 CB          4.2104  -19.3280  -44.7245 C.3       6 UNK        -0.1800 
     44 N           2.9663  -17.3316  -44.1051 N.am      6 UNK        -0.5000 
     45 C           2.7398  -16.0739  -43.7087 C.2       5 UNK         0.5000 
     46 O           3.5360  -15.4025  -43.0483 O.2       5 UNK        -0.5000 
     47 CA          1.3902  -15.4664  -44.1412 C.3       5 UNK         0.1400 
     48 CB          0.6451  -14.8686  -42.9372 C.3       5 UNK        -0.1800 
     49 N           1.4819  -14.4517  -45.1948 N.am      5 UNK        -0.5000 
     50 C           2.2067  -14.4861  -46.3244 C.2       4 UNK         0.5000 
     51 O           2.9969  -15.3831  -46.6172 O.2       4 UNK        -0.5000 
     52 CA          1.9798  -13.3486  -47.3414 C.3       4 UNK         0.1400 
     53 CB          1.2737  -13.8890  -48.5964 C.3       4 UNK        -0.1800 
     54 N           1.1915  -12.2328  -46.8189 N.am      4 UNK        -0.5000 
     55 C           1.6395  -11.2918  -45.9780 C.2       3 UNK         0.5000 
     56 O           2.7900  -11.2519  -45.5419 O.2       3 UNK        -0.5000 
     57 CA          0.6157  -10.2331  -45.5360 C.3       3 UNK         0.1400 
     58 CB          0.5120   -9.1064  -46.5759 C.3       3 UNK        -0.1800 
     59 N          -0.7066  -10.8251  -45.3276 N.am      3 UNK        -0.5000 
     60 C          -1.0853  -11.4483  -44.2035 C.2       2 UNK         0.5000 
     61 O          -0.3695  -11.5505  -43.2077 O.2       2 UNK        -0.5000 
     62 CA         -2.4970  -12.0651  -44.1827 C.3       2 UNK         0.1400 
     63 CB         -3.5112  -11.0632  -43.6106 C.3       2 UNK        -0.1800 
     64 N          -2.9528  -12.5034  -45.5026 N.am      2 UNK        -0.5000 
     65 C          -2.5057  -13.5973  -46.1356 C.2       1 UNK         0.5000 
     66 O          -1.6708  -14.3681  -45.6631 O.2       1 UNK        -0.5000 
     67 C          -3.0811  -19.7846  -44.7847 C.2       11 UNK         0.5000 
     68 O          -3.9499  -19.2308  -45.4580 O.2       11 UNK        -0.5000 
     69 N          -3.3264  -20.3370  -43.5846 N.am      12 UNK        -0.5000 
     70 CA         -4.6601  -20.4425  -42.9811 C.3       12 UNK         0.1400 
     71 CB         -4.5215  -20.8920  -41.5191 C.3       12 UNK        -0.1800 
     72 C          -5.6011  -21.3950  -43.7509 C.2       12 UNK         0.5000 
     73 O          -6.8187  -21.2263  -43.6851 O.2       12 UNK        -0.5000 
     74 N          -5.0199  -22.3498  -44.4894 N.am      13 UNK        -0.5000 
     75 CA         -5.6965  -23.2546  -45.4192 C.3       13 UNK         0.1400 
     76 CB         -5.2608  -24.6959  -45.1000 C.3       13 UNK        -0.1800 
     77 C          -5.3764  -22.8742  -46.8812 C.2       13 UNK         0.5000 
     78 O          -5.4650  -23.7258  -47.7675 O.2       13 UNK        -0.5000 
     79 N          -4.9625  -21.6149  -47.1028 N.am      14 UNK        -0.5000 
     80 CA         -4.5510  -21.0104  -48.3754 C.3       14 UNK         0.1400 
     81 CB         -5.7708  -20.8205  -49.2986 C.3       14 UNK        -0.1800 
     82 C          -3.3769  -21.7345  -49.0691 C.2       14 UNK         0.5000 
     83 O          -3.2522  -21.6686  -50.2915 O.2       14 UNK        -0.5000 
     84 N          -2.5477  -22.4266  -48.2725 N.am      15 UNK        -0.5000 
     85 CA         -1.4306  -23.2772  -48.6858 C.3       15 UNK         0.1400 
     86 CB         -0.2645  -22.4207  -49.2164 C.3       15 UNK        -0.1800 
     87 C          -1.8553  -24.4394  -49.6132 C.2       15 UNK         0.5000 
     88 O          -1.0785  -24.8680  -50.4693 O.2       15 UNK        -0.5000 
     89 N          -3.0815  -24.9440  -49.3975 N.am      16 UNK        -0.5000 
     90 CA         -3.7167  -26.0711  -50.0816 C.3       16 UNK         0.1400 
     91 CB         -3.0424  -27.3977  -49.6647 C.3       16 UNK        -0.1800 
     92 C          -3.7960  -25.8508  -51.6062 C.2       16 UNK         0.5000 
     93 O          -4.4882  -24.9325  -52.0456 O.2       16 UNK        -0.5000 
     94 N          -3.0870  -26.6777  -52.3872 N.am      17 UNK        -0.5000 
     95 CA         -3.0514  -26.6451  -53.8520 C.3       17 UNK         0.1400 
     96 CB         -2.2367  -27.8458  -54.3562 C.3       17 UNK        -0.1800 
     97 C          -2.5016  -25.3338  -54.4482 C.2       17 UNK         0.5000 
     98 O          -2.8396  -25.0024  -55.5856 O.2       17 UNK        -0.5000 
     99 N          -1.6944  -24.5939  -53.6735 N.am      18 UNK        -0.5000 
    100 CA        -1.1485  -23.2911  -54.0574 C.3       18 UNK         0.1400 
    101 CB        -0.0369  -22.8950  -53.0789 C.3       18 UNK        -0.1800 
    102 C         -2.2090  -22.1772  -54.1535 C.2       18 UNK         0.5000 
    103 O         -1.9384  -21.1555  -54.7844 O.2       18 UNK        -0.5000 
    104 N         -3.4046  -22.3863  -53.5792 N.am      19 UNK        -0.5000 
    105 CA        -4.5409  -21.4612  -53.6410 C.3       19 UNK         0.1400 
    106 CB        -5.7212  -22.0506  -52.8571 C.3       19 UNK        -0.1800 
    107 C         -4.9814  -21.1237  -55.0788 C.2       19 UNK         0.5000 
    108 O         -5.4243  -20.0034  -55.3308 O.2       19 UNK        -0.5000 
    109 N         -4.8045  -22.0792  -56.0028 N.am      20 UNK        -0.5000 
    110 CA        -5.0535  -21.9156  -57.4349 C.3       20 UNK         0.1400 
    111 CB        -4.9878  -23.2939  -58.1100 C.3       20 UNK        -0.1800 
    112 C         -4.0819  -20.9324  -58.1197 C.2       20 UNK         0.5000 
    113 O         -4.4534  -20.3282  -59.1267 O.2       20 UNK        -0.5000 
    114 N         -2.8685  -20.7845  -57.5697 N.am      21 UNK        -0.5000 
    115 CA        -1.8670  -19.8234  -58.0263 C.3       21 UNK         0.1400 
    116 CB        -0.4590  -20.3971  -57.7979 C.3       21 UNK        -0.1800 
    117 C         -2.0331  -18.4726  -57.3109 C.2       21 UNK         0.5000 
    118 O         -1.9429  -17.4310  -57.9626 O.2       21 UNK        -0.5000 
    119 N         -2.2731  -18.5111  -55.9928 N.am      22 UNK        -0.5000 
    120 CA        -2.4770  -17.3194  -55.1521 C.3       22 UNK         0.1400 
    121 C         -3.8034  -16.5582  -55.4340 C.2       22 UNK         0.5000 
    122 N         -4.8889  -17.2297  -55.7973 N.am      22 UNK        -0.7600 
    123 O         -3.8457  -15.3357  -55.3263 O.2       22 UNK        -0.5000 
    124 C124       -2.3539  -17.6379  -53.6423 C.3       23 UNK        -0.0398 
    125 S125       -0.7075  -18.2807  -53.1875 S.3       23 UNK        -0.2404 
    126 C126       -1.1242  -19.4117  -51.8244 C.3       23 UNK        -0.0205 
    127 H127       -3.9567  -10.6391  -49.7599 H         1 UNK         0.0600 
    128 H128       -2.3162  -10.4941  -50.3987 H         1 UNK         0.0600 
    129 H129       -2.7823   -9.5967  -48.9502 H         1 UNK         0.0600 
    130 H130       -4.2642  -12.5739  -48.7053 H         1 UNK         0.3000 
    131 H131       -2.3069  -14.4277  -48.0850 H         1 UNK         0.0600 
    132 H132       -5.1709  -14.1769  -47.0293 H         1 UNK         0.0800 
    133 H133       -4.1911  -15.5778  -46.7386 H         1 UNK         0.0800 
    134 H134       -5.2427  -17.7514  -49.5082 H         1 UNK         0.0800 
    135 H135       -4.8568  -17.5271  -47.8268 H         1 UNK         0.0800 
    136 H136       -3.5718  -18.5279  -51.0059 H         1 UNK         0.1150 
    137 H137        0.5433  -18.6446  -49.8103 H         1 UNK         0.1150 
    138 H138       -2.3717  -16.7981  -47.2776 H         1 UNK         0.1150 
    139 H139        1.2112  -17.0805  -47.9864 H         1 UNK         0.0800 
    140 H140        0.0172  -16.3968  -46.9152 H         1 UNK         0.0800 
    141 H141       -1.4697  -17.7387  -45.4641 H         1 UNK         0.0800 
    142 H142       -0.5721  -18.4685  -44.1703 H         1 UNK         0.0800 
    143 H143       -1.7939  -20.1098  -46.4448 H         1 UNK         0.0600 
    144 H144       -0.0452  -20.8149  -44.3610 H         1 UNK         0.3000 
    145 H145       -0.9642  -24.0913  -43.6578 H         1 UNK         0.0600 
    146 H146        1.3168  -24.6781  -44.4942 H         1 UNK         0.0600 
    147 H147        0.1855  -24.5103  -45.8247 H         1 UNK         0.0600 
    148 H148        1.3399  -23.2236  -45.4921 H         1 UNK         0.0600 
    149 H149        1.3954  -22.6915  -43.0117 H         1 UNK         0.3000 
    150 H150        0.6250  -20.3273  -41.0327 H         1 UNK         0.0600 
    151 H151       -0.6986  -21.3477  -39.2413 H         1 UNK         0.0600 
    152 H152        0.9695  -21.2069  -38.7128 H         1 UNK         0.0600 
    153 H153        0.3285  -22.7715  -39.2149 H         1 UNK         0.0600 
    154 H154        2.7159  -20.8375  -41.3329 H         1 UNK         0.3000 
    155 H155        4.8359  -23.3776  -40.3751 H         1 UNK         0.0600 
    156 H156        4.2496  -22.9403  -43.3573 H         1 UNK         0.0600 
    157 H157        4.2957  -24.5002  -42.5445 H         1 UNK         0.0600 
    158 H158        5.7616  -23.5443  -42.6788 H         1 UNK         0.0600 
    159 H159        5.2002  -21.0835  -42.0839 H         1 UNK         0.3000 
    160 H160        5.0039  -18.5728  -39.6972 H         1 UNK         0.0600 
    161 H161        7.6784  -19.6975  -40.6919 H         1 UNK         0.0600 
    162 H162        7.2620  -19.3998  -39.0086 H         1 UNK         0.0600 
    163 H163        7.3918  -18.0513  -40.1251 H         1 UNK         0.0600 
    164 H164        6.1711  -18.5203  -42.2704 H         1 UNK         0.3000 
    165 H165        5.0367  -17.4944  -43.9511 H         1 UNK         0.0600 
    166 H166        4.2302  -19.0137  -45.7684 H         1 UNK         0.0600 
    167 H167        5.1075  -19.9229  -44.5491 H         1 UNK         0.0600 
    168 H168        3.3489  -19.9840  -44.5905 H         1 UNK         0.0600 
    169 H169        2.2668  -17.7995  -44.6646 H         1 UNK         0.3000 
    170 H170        0.7646  -16.2662  -44.5342 H         1 UNK         0.0600 
    171 H171        1.1571  -13.9892  -42.5443 H         1 UNK         0.0600 
    172 H172       -0.3685  -14.5723  -43.2071 H         1 UNK         0.0600 
    173 H173        0.5648  -15.5935  -42.1262 H         1 UNK         0.0600 
    174 H174        0.8507  -13.6708  -45.0931 H         1 UNK         0.3000 
    175 H175        2.9617  -12.9725  -47.6355 H         1 UNK         0.0600 
    176 H176        0.2785  -14.2698  -48.3636 H         1 UNK         0.0600 
    177 H177        1.1634  -13.1111  -49.3522 H         1 UNK         0.0600 
    178 H178        1.8404  -14.7032  -49.0499 H         1 UNK         0.0600 
    179 H179        0.2440  -12.1466  -47.1789 H         1 UNK         0.3000 
    180 H180        0.9662   -9.7945  -44.5991 H         1 UNK         0.0600 
    181 H181       -0.1807   -8.3312  -46.2482 H         1 UNK         0.0600 
    182 H182        0.1683   -9.4757  -47.5427 H         1 UNK         0.0600 
    183 H183        1.4812   -8.6312  -46.7325 H         1 UNK         0.0600 
    184 H184       -1.3265  -10.8379  -46.1262 H         1 UNK         0.3000 
    185 H185       -2.4680  -12.9340  -43.5215 H         1 UNK         0.0600 
    186 H186       -4.5012  -11.5109  -43.5223 H         1 UNK         0.0600 
    187 H187       -3.2148  -10.7340  -42.6137 H         1 UNK         0.0600 
    188 H188       -3.5981  -10.1747  -44.2373 H         1 UNK         0.0600 
    189 H189       -3.6347  -11.9214  -45.9672 H         1 UNK         0.3000 
    190 H190       -2.5743  -20.7994  -43.0852 H         1 UNK         0.3000 
    191 H191       -5.1145  -19.4496  -42.9911 H         1 UNK         0.0600 
    192 H192       -5.4920  -20.9048  -41.0214 H         1 UNK         0.0600 
    193 H193       -3.8758  -20.2176  -40.9565 H         1 UNK         0.0600 
    194 H194       -4.1031  -21.8965  -41.4457 H         1 UNK         0.0600 
    195 H195       -4.0068  -22.4014  -44.5087 H         1 UNK         0.3000 
    196 H196       -6.7795  -23.1891  -45.2999 H         1 UNK         0.0600 
    197 H197       -4.1922  -24.8384  -45.2661 H         1 UNK         0.0600 
    198 H198       -5.4750  -24.9505  -44.0620 H         1 UNK         0.0600 
    199 H199       -5.7906  -25.4161  -45.7246 H         1 UNK         0.0600 
    200 H200       -4.9073  -20.9935  -46.3053 H         1 UNK         0.3000 
    201 H201       -4.1717  -20.0216  -48.1221 H         1 UNK         0.0600 
    202 H202       -5.4989  -20.2813  -50.2068 H         1 UNK         0.0600 
    203 H203       -6.5515  -20.2433  -48.8036 H         1 UNK         0.0600 
    204 H204       -6.2001  -21.7765  -49.5988 H         1 UNK         0.0600 
    205 H205       -2.7357  -22.4374  -47.2747 H         1 UNK         0.3000 
    206 H206       -1.0755  -23.7647  -47.7780 H         1 UNK         0.0600 
    207 H207        0.1062  -21.7502  -48.4406 H         1 UNK         0.0600 
    208 H208        0.5746  -23.0382  -49.5383 H         1 UNK         0.0600 
    209 H209       -0.5692  -21.8037  -50.0587 H         1 UNK         0.0600 
    210 H210       -3.6749  -24.4678  -48.7272 H         1 UNK         0.3000 
    211 H211       -4.7482  -26.1008  -49.7272 H         1 UNK         0.0600 
    212 H212       -3.5424  -28.2543  -50.1186 H         1 UNK         0.0600 
    213 H213       -3.0957  -27.5348  -48.5845 H         1 UNK         0.0600 
    214 H214       -1.9896  -27.4350  -49.9468 H         1 UNK         0.0600 
    215 H215       -2.5226  -27.3856  -51.9404 H         1 UNK         0.3000 
    216 H216       -4.0777  -26.7545  -54.2082 H         1 UNK         0.0600 
    217 H217       -1.2047  -27.8065  -54.0055 H         1 UNK         0.0600 
    218 H218       -2.2122  -27.8720  -55.4466 H         1 UNK         0.0600 
    219 H219       -2.6712  -28.7876  -54.0205 H         1 UNK         0.0600 
    220 H220       -1.4872  -24.9150  -52.7351 H         1 UNK         0.3000 
    221 H221       -0.7017  -23.3932  -55.0485 H         1 UNK         0.0600 
    222 H222        0.7506  -23.6478  -53.0444 H         1 UNK         0.0600 
    223 H223       -0.4302  -22.7730  -52.0725 H         1 UNK         0.0600 
    224 H224        0.4246  -21.9503  -53.3697 H         1 UNK         0.0600 
    225 H225       -3.5564  -23.2442  -53.0609 H         1 UNK         0.3000 
    226 H226       -4.2352  -20.5334  -53.1549 H         1 UNK         0.0600 
    227 H227       -6.0968  -22.9630  -53.3218 H         1 UNK         0.0600 
    228 H228       -5.4317  -22.2961  -51.8362 H         1 UNK         0.0600 
    229 H229       -6.5482  -21.3419  -52.8016 H         1 UNK         0.0600 
    230 H230       -4.4123  -22.9641  -55.7099 H         1 UNK         0.3000 
    231 H231       -6.0638  -21.5204  -57.5590 H         1 UNK         0.0600 
    232 H232       -4.0030  -23.7496  -57.9972 H         1 UNK         0.0600 
    233 H233       -5.1945  -23.2170  -59.1783 H         1 UNK         0.0600 
    234 H234       -5.7236  -23.9770  -57.6855 H         1 UNK         0.0600 
    235 H235       -2.6599  -21.2681  -56.7046 H         1 UNK         0.3000 
    236 H236       -1.9842  -19.6540  -59.0989 H         1 UNK         0.0600 
    237 H237       -0.2519  -20.5666  -56.7411 H         1 UNK         0.0600 
    238 H238       -0.3310  -21.3453  -58.3203 H         1 UNK         0.0600 
    239 H239        0.3032  -19.7133  -58.1733 H         1 UNK         0.0600 
    240 H240       -2.2681  -19.4085  -55.5174 H         1 UNK         0.3000 
    241 H241       -1.6732  -16.6217  -55.3960 H         1 UNK         0.0600 
    242 H242       -5.7389  -16.7230  -55.9844 H         1 UNK         0.3800 
    243 H243       -4.9075  -18.2460  -55.8021 H         1 UNK         0.3800 
    244 H244       -3.1199  -18.3595  -53.3574 H         1 UNK         0.0800 
    245 H245       -2.5325  -16.7442  -53.0412 H         1 UNK         0.0800 
    246 H246       -1.9451  -20.0668  -52.1156 H         1 UNK         0.0800 
    247 H247       -0.2682  -20.0627  -51.6456 H         1 UNK         0.0800 
@<TRIPOS>BOND
     1    1    2 1    
     2    1  127 1    
     3    1  128 1    
     4    1  129 1    
     5    2    3 2    
     6    2    4 am   BACKBONE|DICT|INTERRES
     7    4    5 1    
     8    4  130 1    
     9    5    6 1    
    10    5   65 1    
    11    5  131 1    
    12    6    7 1    
    13    6  132 1    
    14    6  133 1    
    15    7    8 1    
    16    8    9 1    
    17    8  134 1    
    18    8  135 1    
    19    9   10 ar   
    20    9   14 ar   
    21   10   11 ar   
    22   10  136 1    
    23   11   12 ar   
    24   11  126 1    
    25   12   13 ar   
    26   12  137 1    
    27   13   14 ar   
    28   13   15 1    
    29   14  138 1    
    30   15   16 1    
    31   15  139 1    
    32   15  140 1    
    33   16   17 1    
    34   17   18 1    
    35   17  141 1    
    36   17  142 1    
    37   18   19 1    
    38   18   67 1    
    39   18  143 1    
    40   19   20 am   BACKBONE|DICT|INTERRES
    41   19  144 1    
    42   20   21 2    
    43   20   22 1    
    44   22   23 1    
    45   22   24 1    
    46   22  145 1    
    47   23  146 1    
    48   23  147 1    
    49   23  148 1    
    50   24   25 am   BACKBONE|DICT|INTERRES
    51   24  149 1    
    52   25   26 2    
    53   25   27 1    
    54   27   28 1    
    55   27   29 1    
    56   27  150 1    
    57   28  151 1    
    58   28  152 1    
    59   28  153 1    
    60   29   30 am   BACKBONE|DICT|INTERRES
    61   29  154 1    
    62   30   31 2    
    63   30   32 1    
    64   32   33 1    
    65   32   34 1    
    66   32  155 1    
    67   33  156 1    
    68   33  157 1    
    69   33  158 1    
    70   34   35 am   BACKBONE|DICT|INTERRES
    71   34  159 1    
    72   35   36 2    
    73   35   37 1    
    74   37   38 1    
    75   37   39 1    
    76   37  160 1    
    77   38  161 1    
    78   38  162 1    
    79   38  163 1    
    80   39   40 am   BACKBONE|DICT|INTERRES
    81   39  164 1    
    82   40   41 2    
    83   40   42 1    
    84   42   43 1    
    85   42   44 1    
    86   42  165 1    
    87   43  166 1    
    88   43  167 1    
    89   43  168 1    
    90   44   45 am   BACKBONE|DICT|INTERRES
    91   44  169 1    
    92   45   46 2    
    93   45   47 1    
    94   47   48 1    
    95   47   49 1    
    96   47  170 1    
    97   48  171 1    
    98   48  172 1    
    99   48  173 1    
   100   49   50 am   BACKBONE|DICT|INTERRES
   101   49  174 1    
   102   50   51 2    
   103   50   52 1    
   104   52   53 1    
   105   52   54 1    
   106   52  175 1    
   107   53  176 1    
   108   53  177 1    
   109   53  178 1    
   110   54   55 am   BACKBONE|DICT|INTERRES
   111   54  179 1    
   112   55   56 2    
   113   55   57 1    
   114   57   58 1    
   115   57   59 1    
   116   57  180 1    
   117   58  181 1    
   118   58  182 1    
   119   58  183 1    
   120   59   60 am   BACKBONE|DICT|INTERRES
   121   59  184 1    
   122   60   61 2    
   123   60   62 1    
   124   62   63 1    
   125   62   64 1    
   126   62  185 1    
   127   63  186 1    
   128   63  187 1    
   129   63  188 1    
   130   64   65 am   BACKBONE|DICT|INTERRES
   131   64  189 1    
   132   65   66 2    
   133   67   68 2    
   134   67   69 am   BACKBONE|DICT|INTERRES
   135   69   70 1    
   136   69  190 1    
   137   70   71 1    
   138   70   72 1    
   139   70  191 1    
   140   71  192 1    
   141   71  193 1    
   142   71  194 1    
   143   72   73 2    
   144   72   74 am   BACKBONE|DICT|INTERRES
   145   74   75 1    
   146   74  195 1    
   147   75   76 1    
   148   75   77 1    
   149   75  196 1    
   150   76  197 1    
   151   76  198 1    
   152   76  199 1    
   153   77   78 2    
   154   77   79 am   BACKBONE|DICT|INTERRES
   155   79   80 1    
   156   79  200 1    
   157   80   81 1    
   158   80   82 1    
   159   80  201 1    
   160   81  202 1    
   161   81  203 1    
   162   81  204 1    
   163   82   83 2    
   164   82   84 am   BACKBONE|DICT|INTERRES
   165   84   85 1    
   166   84  205 1    
   167   85   86 1    
   168   85   87 1    
   169   85  206 1    
   170   86  207 1    
   171   86  208 1    
   172   86  209 1    
   173   87   88 2    
   174   87   89 am   BACKBONE|DICT|INTERRES
   175   89   90 1    
   176   89  210 1    
   177   90   91 1    
   178   90   92 1    
   179   90  211 1    
   180   91  212 1    
   181   91  213 1    
   182   91  214 1    
   183   92   93 2    
   184   92   94 am   BACKBONE|DICT|INTERRES
   185   94   95 1    
   186   94  215 1    
   187   95   96 1    
   188   95   97 1    
   189   95  216 1    
   190   96  217 1    
   191   96  218 1    
   192   96  219 1    
   193   97   98 2    
   194   97   99 am   BACKBONE|DICT|INTERRES
   195   99  100 1    
   196   99  220 1    
   197  100  101 1    
   198  100  102 1    
   199  100  221 1    
   200  101  222 1    
   201  101  223 1    
   202  101  224 1    
   203  102  103 2    
   204  102  104 am   BACKBONE|DICT|INTERRES
   205  104  105 1    
   206  104  225 1    
   207  105  106 1    
   208  105  107 1    
   209  105  226 1    
   210  106  227 1    
   211  106  228 1    
   212  106  229 1    
   213  107  108 2    
   214  107  109 am   BACKBONE|DICT|INTERRES
   215  109  110 1    
   216  109  230 1    
   217  110  111 1    
   218  110  112 1    
   219  110  231 1    
   220  111  232 1    
   221  111  233 1    
   222  111  234 1    
   223  112  113 2    
   224  112  114 am   BACKBONE|DICT|INTERRES
   225  114  115 1    
   226  114  235 1    
   227  115  116 1    
   228  115  117 1    
   229  115  236 1    
   230  116  237 1    
   231  116  238 1    
   232  116  239 1    
   233  117  118 2    
   234  117  119 am   BACKBONE|DICT|INTERRES
   235  119  120 1    
   236  119  240 1    
   237  120  121 1    
   238  120  124 1    
   239  120  241 1    
   240  121  122 am   BACKBONE|DICT|INTERRES
   241  121  123 2    
   242  122  242 1    
   243  122  243 1    
   244  124  125 1    
   245  124  244 1    
   246  124  245 1    
   247  125  126 1    
   248  126  246 1    
   249  126  247 1    
@<TRIPOS>SUBSTRUCTURE
     1 UNK         1 GROUP             0       ****    0 ROOT    
