@<TRIPOS>MOLECULE
3R540
247   249    1
SMALL
USER_CHARGES


@<TRIPOS>ATOM
      1 CA          4.3411  -17.4776  -47.2802 C.3       0 UNK        -0.1800 
      2 C           3.2208  -16.7041  -47.9602 C.2       0 UNK         0.5000 
      3 O           2.0832  -16.7480  -47.5039 O.2       0 UNK        -0.5000 
      4 N           3.5362  -15.9886  -49.0468 N.am      1 UNK        -0.5000 
      5 CA          2.5835  -15.1786  -49.8200 C.3       1 UNK         0.1400 
      6 C6          3.1906  -14.8147  -51.2001 C.3       23 UNK        -0.0398 
      7 S7          1.9791  -14.2132  -52.4264 S.3       23 UNK        -0.2404 
      8 C8          1.5263  -15.7469  -53.2999 C.3       23 UNK        -0.0205 
      9 C9          0.7071  -16.6879  -52.4276 C.ar      23 UNK        -0.0193 
     10 C10        -0.5647  -16.3079  -51.9895 C.ar      23 UNK        -0.1150 
     11 C11        -1.3308  -17.1640  -51.1941 C.ar      23 UNK        -0.0193 
     12 C12        -0.8217  -18.4232  -50.8560 C.ar      23 UNK        -0.1150 
     13 C13         0.4520  -18.8127  -51.2811 C.ar      23 UNK        -0.0193 
     14 C14         1.2117  -17.9403  -52.0661 C.ar      23 UNK        -0.1150 
     15 C15         0.9947  -20.1905  -50.9332 C.3       23 UNK        -0.0205 
     16 S16         2.1699  -20.1628  -49.5383 S.3       23 UNK        -0.2404 
     17 C17         1.0893  -19.9501  -48.0808 C.3       23 UNK        -0.0398 
     18 CA          0.6372  -21.2998  -47.4647 C.3       11 UNK         0.1400 
     19 N           0.4095  -21.2209  -46.0179 N.am      11 UNK        -0.5000 
     20 C           0.1315  -22.2700  -45.2284 C.2       10 UNK         0.5000 
     21 O           0.0862  -23.4331  -45.6266 O.2       10 UNK        -0.5000 
     22 CA         -0.2008  -21.9771  -43.7547 C.3       10 UNK         0.1400 
     23 CB          1.0796  -21.7831  -42.9293 C.3       10 UNK        -0.1800 
     24 N          -1.0848  -20.8232  -43.5922 N.am      10 UNK        -0.5000 
     25 C          -2.3393  -20.7601  -44.0627 C.2       9 UNK         0.5000 
     26 O          -2.8997  -21.6893  -44.6438 O.2       9 UNK        -0.5000 
     27 CA         -3.0784  -19.4192  -43.9028 C.3       9 UNK         0.1400 
     28 CB         -3.6409  -19.2707  -42.4816 C.3       9 UNK        -0.1800 
     29 N          -2.2411  -18.2636  -44.2266 N.am      9 UNK        -0.5000 
     30 C          -1.6664  -18.0531  -45.4201 C.2       8 UNK         0.5000 
     31 O          -1.8004  -18.8075  -46.3842 O.2       8 UNK        -0.5000 
     32 CA         -0.7291  -16.8368  -45.5287 C.3       8 UNK         0.1400 
     33 CB         -1.5127  -15.5159  -45.5741 C.3       8 UNK        -0.1800 
     34 N           0.2445  -16.7850  -44.4372 N.am      8 UNK        -0.5000 
     35 C           1.1484  -17.7381  -44.1676 C.2       7 UNK         0.5000 
     36 O           1.3006  -18.7569  -44.8399 O.2       7 UNK        -0.5000 
     37 CA          1.9686  -17.5637  -42.8784 C.3       7 UNK         0.1400 
     38 CB          3.1410  -16.5922  -43.0825 C.3       7 UNK        -0.1800 
     39 N           1.1340  -17.1169  -41.7625 N.am      7 UNK        -0.5000 
     40 C           0.1850  -17.8673  -41.1829 C.2       6 UNK         0.5000 
     41 O          -0.0547  -19.0317  -41.4989 O.2       6 UNK        -0.5000 
     42 CA         -0.6656  -17.1891  -40.0939 C.3       6 UNK         0.1400 
     43 CB          0.0506  -17.2406  -38.7362 C.3       6 UNK        -0.1800 
     44 N          -0.9852  -15.7998  -40.4214 N.am      6 UNK        -0.5000 
     45 C          -1.7764  -15.4212  -41.4357 C.2       5 UNK         0.5000 
     46 O          -2.3715  -16.2094  -42.1692 O.2       5 UNK        -0.5000 
     47 CA         -1.8733  -13.9072  -41.7040 C.3       5 UNK         0.1400 
     48 CB         -2.9954  -13.2794  -40.8642 C.3       5 UNK        -0.1800 
     49 N          -0.6127  -13.2076  -41.4369 N.am      5 UNK        -0.5000 
     50 C           0.5177  -13.4052  -42.1271 C.2       4 UNK         0.5000 
     51 O           0.6054  -14.1681  -43.0916 O.2       4 UNK        -0.5000 
     52 CA          1.7666  -12.6872  -41.6049 C.3       4 UNK         0.1400 
     53 CB          2.4097  -13.4938  -40.4603 C.3       4 UNK        -0.1800 
     54 N           2.7239  -12.5140  -42.6925 N.am      4 UNK        -0.5000 
     55 C           3.7167  -11.6192  -42.7081 C.2       3 UNK         0.5000 
     56 O           3.9379  -10.8378  -41.7816 O.2       3 UNK        -0.5000 
     57 CA          4.6065  -11.5527  -43.9642 C.3       3 UNK         0.1400 
     58 CB          5.7335  -12.6034  -43.9097 C.3       3 UNK        -0.1800 
     59 N           3.8707  -11.5957  -45.2359 N.am      3 UNK        -0.5000 
     60 C           3.2409  -12.6275  -45.8133 C.2       2 UNK         0.5000 
     61 O           3.1793  -13.7529  -45.3176 O.2       2 UNK        -0.5000 
     62 CA          2.5625  -12.3665  -47.1698 C.3       2 UNK         0.1400 
     63 CB          2.9507  -11.0298  -47.8392 C.3       2 UNK        -0.1800 
     64 N           2.8742  -13.4770  -48.0613 N.am      2 UNK        -0.5000 
     65 C           2.0871  -13.9325  -49.0429 C.2       1 UNK         0.5000 
     66 O           1.0044  -13.4202  -49.3311 O.2       1 UNK        -0.5000 
     67 C          -0.5964  -21.8567  -48.1965 C.2       11 UNK         0.5000 
     68 O          -0.4674  -22.8161  -48.9570 O.2       11 UNK        -0.5000 
     69 N          -1.7712  -21.2719  -47.9213 N.am      12 UNK        -0.5000 
     70 CA         -3.0534  -21.6893  -48.4855 C.3       12 UNK         0.1400 
     71 CB         -4.1579  -20.7243  -48.0309 C.3       12 UNK        -0.1800 
     72 C          -3.4118  -23.1449  -48.1393 C.2       12 UNK         0.5000 
     73 O          -3.8456  -23.8825  -49.0238 O.2       12 UNK        -0.5000 
     74 N          -3.1824  -23.5444  -46.8801 N.am      13 UNK        -0.5000 
     75 CA         -3.3689  -24.9118  -46.3967 C.3       13 UNK         0.1400 
     76 CB         -3.2171  -24.9496  -44.8686 C.3       13 UNK        -0.1800 
     77 C          -2.4155  -25.9164  -47.0679 C.2       13 UNK         0.5000 
     78 O          -2.8740  -26.9588  -47.5362 O.2       13 UNK        -0.5000 
     79 N          -1.1195  -25.5776  -47.1364 N.am      14 UNK        -0.5000 
     80 CA         -0.0756  -26.3940  -47.7635 C.3       14 UNK         0.1400 
     81 CB          1.3021  -25.7753  -47.4829 C.3       14 UNK        -0.1800 
     82 C          -0.2832  -26.5834  -49.2769 C.2       14 UNK         0.5000 
     83 O          -0.0454  -27.6757  -49.7933 O.2       14 UNK        -0.5000 
     84 N          -0.7557  -25.5277  -49.9505 N.am      15 UNK        -0.5000 
     85 CA         -1.1076  -25.5292  -51.3695 C.3       15 UNK         0.1400 
     86 CB         -1.0551  -24.0851  -51.8865 C.3       15 UNK        -0.1800 
     87 C          -2.4898  -26.1457  -51.6629 C.2       15 UNK         0.5000 
     88 O          -2.8637  -26.2267  -52.8333 O.2       15 UNK        -0.5000 
     89 N          -3.2468  -26.5188  -50.6183 N.am      16 UNK        -0.5000 
     90 CA         -4.6181  -27.0432  -50.6573 C.3       16 UNK         0.1400 
     91 CB         -4.6289  -28.4719  -51.2382 C.3       16 UNK        -0.1800 
     92 C          -5.6014  -26.0929  -51.3772 C.2       16 UNK         0.5000 
     93 O          -6.4897  -26.5468  -52.0999 O.2       16 UNK        -0.5000 
     94 N          -5.3809  -24.7826  -51.1922 N.am      17 UNK        -0.5000 
     95 CA         -6.0654  -23.6390  -51.8023 C.3       17 UNK         0.1400 
     96 CB         -7.5492  -23.6156  -51.3846 C.3       17 UNK        -0.1800 
     97 C          -5.8919  -23.5071  -53.3338 C.2       17 UNK         0.5000 
     98 O          -6.4901  -22.6049  -53.9214 O.2       17 UNK        -0.5000 
     99 N          -5.0799  -24.3687  -53.9658 N.am      18 UNK        -0.5000 
    100 CA        -4.8874  -24.4001  -55.4185 C.3       18 UNK         0.1400 
    101 CB        -4.3365  -25.7734  -55.8308 C.3       18 UNK        -0.1800 
    102 C         -3.9687  -23.2759  -55.9285 C.2       18 UNK         0.5000 
    103 O         -4.1565  -22.8015  -57.0493 O.2       18 UNK        -0.5000 
    104 N         -3.0053  -22.8631  -55.0977 N.am      19 UNK        -0.5000 
    105 CA        -2.0593  -21.7860  -55.3750 C.3       19 UNK         0.1400 
    106 CB        -0.8879  -22.3292  -56.2180 C.3       19 UNK        -0.1800 
    107 C         -1.6044  -21.1792  -54.0344 C.2       19 UNK         0.5000 
    108 O         -0.4762  -21.4268  -53.6153 O.2       19 UNK        -0.5000 
    109 N         -2.4623  -20.4439  -53.3178 N.am      20 UNK        -0.5000 
    110 CA        -3.8068  -19.9990  -53.6764 C.3       20 UNK         0.1400 
    111 CB        -3.7058  -18.6621  -54.4342 C.3       20 UNK        -0.1800 
    112 C         -4.6366  -19.8399  -52.3949 C.2       20 UNK         0.5000 
    113 O         -4.0886  -19.9031  -51.2924 O.2       20 UNK        -0.5000 
    114 N         -5.9433  -19.6131  -52.5626 N.am      21 UNK        -0.5000 
    115 CA        -6.8600  -19.2299  -51.4932 C.3       21 UNK         0.1400 
    116 CB        -8.3041  -19.4932  -51.9546 C.3       21 UNK        -0.1800 
    117 C         -6.6434  -17.7460  -51.1447 C.2       21 UNK         0.5000 
    118 O         -7.1220  -16.8745  -51.8740 O.2       21 UNK        -0.5000 
    119 N         -5.8841  -17.4853  -50.0755 N.am      22 UNK        -0.5000 
    120 CA        -5.5857  -16.1343  -49.5767 C.3       22 UNK         0.1400 
    121 C         -6.8518  -15.3964  -49.0532 C.2       22 UNK         0.5000 
    122 N         -6.9466  -14.0897  -49.2589 N.am      22 UNK        -0.7600 
    123 O         -7.7260  -15.9892  -48.4243 O.2       22 UNK        -0.5000 
    124 C124       -4.4980  -16.1605  -48.4722 C.3       23 UNK        -0.0398 
    125 S125       -2.8623  -16.8578  -48.9060 S.3       23 UNK        -0.2404 
    126 C126       -2.7094  -16.7270  -50.7162 C.3       23 UNK        -0.0205 
    127 H127        4.0729  -18.5308  -47.1966 H         1 UNK         0.0600 
    128 H128        4.5077  -17.0866  -46.2767 H         1 UNK         0.0600 
    129 H129        5.2773  -17.4081  -47.8344 H         1 UNK         0.0600 
    130 H130        4.4896  -15.9901  -49.3800 H         1 UNK         0.3000 
    131 H131        1.7062  -15.8056  -49.9894 H         1 UNK         0.0600 
    132 H132        3.9689  -14.0581  -51.0865 H         1 UNK         0.0800 
    133 H133        3.6891  -15.6862  -51.6271 H         1 UNK         0.0800 
    134 H134        2.4285  -16.2367  -53.6694 H         1 UNK         0.0800 
    135 H135        0.9389  -15.4867  -54.1815 H         1 UNK         0.0800 
    136 H136       -0.9514  -15.3365  -52.2644 H         1 UNK         0.1150 
    137 H137       -1.4182  -19.0944  -50.2529 H         1 UNK         0.1150 
    138 H138        2.1936  -18.2437  -52.4011 H         1 UNK         0.1150 
    139 H139        0.1779  -20.8837  -50.7350 H         1 UNK         0.0800 
    140 H140        1.5106  -20.5954  -51.8050 H         1 UNK         0.0800 
    141 H141        0.2511  -19.2902  -48.3112 H         1 UNK         0.0800 
    142 H142        1.6864  -19.4059  -47.3502 H         1 UNK         0.0800 
    143 H143        1.4458  -22.0222  -47.5963 H         1 UNK         0.0600 
    144 H144        0.4704  -20.2962  -45.5986 H         1 UNK         0.3000 
    145 H145       -0.7244  -22.8489  -43.3572 H         1 UNK         0.0600 
    146 H146        0.8509  -21.6665  -41.8699 H         1 UNK         0.0600 
    147 H147        1.7403  -22.6454  -43.0261 H         1 UNK         0.0600 
    148 H148        1.6384  -20.9041  -43.2493 H         1 UNK         0.0600 
    149 H149       -0.7066  -20.0287  -43.0856 H         1 UNK         0.3000 
    150 H150       -3.9175  -19.4207  -44.6014 H         1 UNK         0.0600 
    151 H151       -4.2823  -20.1148  -42.2249 H         1 UNK         0.0600 
    152 H152       -4.2412  -18.3656  -42.3884 H         1 UNK         0.0600 
    153 H153       -2.8462  -19.2225  -41.7369 H         1 UNK         0.0600 
    154 H154       -2.1057  -17.5791  -43.4876 H         1 UNK         0.3000 
    155 H155       -0.1849  -16.9351  -46.4672 H         1 UNK         0.0600 
    156 H156       -2.0744  -15.3445  -44.6573 H         1 UNK         0.0600 
    157 H157       -2.2264  -15.5100  -46.3966 H         1 UNK         0.0600 
    158 H158       -0.8424  -14.6684  -45.7198 H         1 UNK         0.0600 
    159 H159        0.2324  -15.9527  -43.8564 H         1 UNK         0.3000 
    160 H160        2.3861  -18.5383  -42.6164 H         1 UNK         0.0600 
    161 H161        2.7999  -15.5900  -43.3385 H         1 UNK         0.0600 
    162 H162        3.7876  -16.9304  -43.8926 H         1 UNK         0.0600 
    163 H163        3.7552  -16.5188  -42.1853 H         1 UNK         0.0600 
    164 H164        1.2318  -16.1546  -41.4793 H         1 UNK         0.3000 
    165 H165       -1.6027  -17.7434  -40.0081 H         1 UNK         0.0600 
    166 H166       -0.5756  -16.8289  -37.9445 H         1 UNK         0.0600 
    167 H167        0.2878  -18.2689  -38.4598 H         1 UNK         0.0600 
    168 H168        0.9863  -16.6802  -38.7507 H         1 UNK         0.0600 
    169 H169       -0.5455  -15.0853  -39.8612 H         1 UNK         0.3000 
    170 H170       -2.1193  -13.7709  -42.7589 H         1 UNK         0.0600 
    171 H171       -3.9496  -13.7707  -41.0598 H         1 UNK         0.0600 
    172 H172       -2.7959  -13.3633  -39.7952 H         1 UNK         0.0600 
    173 H173       -3.1211  -12.2228  -41.1011 H         1 UNK         0.0600 
    174 H174       -0.6089  -12.5675  -40.6556 H         1 UNK         0.3000 
    175 H175        1.4645  -11.7048  -41.2356 H         1 UNK         0.0600 
    176 H176        2.7602  -14.4678  -40.8031 H         1 UNK         0.0600 
    177 H177        3.2628  -12.9663  -40.0338 H         1 UNK         0.0600 
    178 H178        1.7015  -13.6643  -39.6486 H         1 UNK         0.0600 
    179 H179        2.5893  -13.1208  -43.4981 H         1 UNK         0.3000 
    180 H180        5.0863  -10.5728  -43.9478 H         1 UNK         0.0600 
    181 H181        5.3456  -13.6213  -43.8625 H         1 UNK         0.0600 
    182 H182        6.3557  -12.4558  -43.0263 H         1 UNK         0.0600 
    183 H183        6.3839  -12.5308  -44.7813 H         1 UNK         0.0600 
    184 H184        3.8363  -10.7124  -45.7256 H         1 UNK         0.3000 
    185 H185        1.4883  -12.3577  -46.9734 H         1 UNK         0.0600 
    186 H186        2.6612  -10.1763  -47.2252 H         1 UNK         0.0600 
    187 H187        4.0239  -10.9673  -48.0240 H         1 UNK         0.0600 
    188 H188        2.4453  -10.9111  -48.7979 H         1 UNK         0.0600 
    189 H189        3.7014  -14.0061  -47.8223 H         1 UNK         0.3000 
    190 H190       -1.7893  -20.4751  -47.2876 H         1 UNK         0.3000 
    191 H191       -2.9675  -21.6229  -49.5717 H         1 UNK         0.0600 
    192 H192       -4.2705  -20.7212  -46.9463 H         1 UNK         0.0600 
    193 H193       -5.1194  -20.9996  -48.4658 H         1 UNK         0.0600 
    194 H194       -3.9382  -19.7046  -48.3470 H         1 UNK         0.0600 
    195 H195       -2.8635  -22.8612  -46.1984 H         1 UNK         0.3000 
    196 H196       -4.3901  -25.2120  -46.6404 H         1 UNK         0.0600 
    197 H197       -3.3591  -25.9610  -44.4859 H         1 UNK         0.0600 
    198 H198       -3.9568  -24.3119  -44.3844 H         1 UNK         0.0600 
    199 H199       -2.2293  -24.6134  -44.5526 H         1 UNK         0.0600 
    200 H200       -0.8123  -24.7070  -46.7086 H         1 UNK         0.3000 
    201 H201       -0.1046  -27.3824  -47.3004 H         1 UNK         0.0600 
    202 H202        1.5018  -25.7284  -46.4123 H         1 UNK         0.0600 
    203 H203        1.3759  -24.7627  -47.8816 H         1 UNK         0.0600 
    204 H204        2.0981  -26.3673  -47.9363 H         1 UNK         0.0600 
    205 H205       -0.8624  -24.6425  -49.4606 H         1 UNK         0.3000 
    206 H206       -0.3655  -26.1138  -51.9168 H         1 UNK         0.0600 
    207 H207       -0.0829  -23.6300  -51.6954 H         1 UNK         0.0600 
    208 H208       -1.2168  -24.0536  -52.9639 H         1 UNK         0.0600 
    209 H209       -1.8145  -23.4587  -51.4161 H         1 UNK         0.0600 
    210 H210       -2.8643  -26.3891  -49.6899 H         1 UNK         0.3000 
    211 H211       -4.9534  -27.1015  -49.6210 H         1 UNK         0.0600 
    212 H212       -4.3501  -28.4821  -52.2924 H         1 UNK         0.0600 
    213 H213       -5.6195  -28.9206  -51.1567 H         1 UNK         0.0600 
    214 H214       -3.9355  -29.1193  -50.7015 H         1 UNK         0.0600 
    215 H215       -4.6538  -24.5305  -50.5235 H         1 UNK         0.3000 
    216 H216       -5.5923  -22.7535  -51.3749 H         1 UNK         0.0600 
    217 H217       -8.0397  -22.7047  -51.7226 H         1 UNK         0.0600 
    218 H218       -7.6535  -23.6542  -50.3003 H         1 UNK         0.0600 
    219 H219       -8.1043  -24.4537  -51.8063 H         1 UNK         0.0600 
    220 H220       -4.5973  -25.0805  -53.4292 H         1 UNK         0.3000 
    221 H221       -5.8615  -24.2747  -55.8962 H         1 UNK         0.0600 
    222 H222       -3.3346  -25.9424  -55.4355 H         1 UNK         0.0600 
    223 H223       -4.9782  -26.5803  -55.4760 H         1 UNK         0.0600 
    224 H224       -4.2765  -25.8577  -56.9166 H         1 UNK         0.0600 
    225 H225       -2.9318  -23.2978  -54.1889 H         1 UNK         0.3000 
    226 H226       -2.5488  -20.9997  -55.9518 H         1 UNK         0.0600 
    227 H227       -1.2306  -22.6843  -57.1899 H         1 UNK         0.0600 
    228 H228       -0.1453  -21.5517  -56.4010 H         1 UNK         0.0600 
    229 H229       -0.3833  -23.1578  -55.7194 H         1 UNK         0.0600 
    230 H230       -2.1854  -20.1399  -52.3939 H         1 UNK         0.3000 
    231 H231       -4.3154  -20.7345  -54.2984 H         1 UNK         0.0600 
    232 H232       -3.1178  -18.7595  -55.3462 H         1 UNK         0.0600 
    233 H233       -3.2371  -17.8911  -53.8208 H         1 UNK         0.0600 
    234 H234       -4.6903  -18.2950  -54.7261 H         1 UNK         0.0600 
    235 H235       -6.3188  -19.5761  -53.4991 H         1 UNK         0.3000 
    236 H236       -6.6659  -19.8434  -50.6104 H         1 UNK         0.0600 
    237 H237       -9.0148  -19.2460  -51.1652 H         1 UNK         0.0600 
    238 H238       -8.5672  -18.8997  -52.8311 H         1 UNK         0.0600 
    239 H239       -8.4546  -20.5395  -52.2135 H         1 UNK         0.0600 
    240 H240       -5.4808  -18.2519  -49.5573 H         1 UNK         0.3000 
    241 H241       -5.2050  -15.5559  -50.4198 H         1 UNK         0.0600 
    242 H242       -7.7554  -13.5980  -48.9111 H         1 UNK         0.3800 
    243 H243       -6.2408  -13.5783  -49.7663 H         1 UNK         0.3800 
    244 H244       -4.3123  -15.1456  -48.1159 H         1 UNK         0.0800 
    245 H245       -4.8627  -16.7132  -47.6044 H         1 UNK         0.0800 
    246 H246       -2.9052  -15.6958  -51.0124 H         1 UNK         0.0800 
    247 H247       -3.4577  -17.3458  -51.2061 H         1 UNK         0.0800 
@<TRIPOS>BOND
     1    1    2 1    
     2    1  127 1    
     3    1  128 1    
     4    1  129 1    
     5    2    3 2    
     6    2    4 am   BACKBONE|DICT|INTERRES
     7    4    5 1    
     8    4  130 1    
     9    5    6 1    
    10    5   65 1    
    11    5  131 1    
    12    6    7 1    
    13    6  132 1    
    14    6  133 1    
    15    7    8 1    
    16    8    9 1    
    17    8  134 1    
    18    8  135 1    
    19    9   10 ar   
    20    9   14 ar   
    21   10   11 ar   
    22   10  136 1    
    23   11   12 ar   
    24   11  126 1    
    25   12   13 ar   
    26   12  137 1    
    27   13   14 ar   
    28   13   15 1    
    29   14  138 1    
    30   15   16 1    
    31   15  139 1    
    32   15  140 1    
    33   16   17 1    
    34   17   18 1    
    35   17  141 1    
    36   17  142 1    
    37   18   19 1    
    38   18   67 1    
    39   18  143 1    
    40   19   20 am   BACKBONE|DICT|INTERRES
    41   19  144 1    
    42   20   21 2    
    43   20   22 1    
    44   22   23 1    
    45   22   24 1    
    46   22  145 1    
    47   23  146 1    
    48   23  147 1    
    49   23  148 1    
    50   24   25 am   BACKBONE|DICT|INTERRES
    51   24  149 1    
    52   25   26 2    
    53   25   27 1    
    54   27   28 1    
    55   27   29 1    
    56   27  150 1    
    57   28  151 1    
    58   28  152 1    
    59   28  153 1    
    60   29   30 am   BACKBONE|DICT|INTERRES
    61   29  154 1    
    62   30   31 2    
    63   30   32 1    
    64   32   33 1    
    65   32   34 1    
    66   32  155 1    
    67   33  156 1    
    68   33  157 1    
    69   33  158 1    
    70   34   35 am   BACKBONE|DICT|INTERRES
    71   34  159 1    
    72   35   36 2    
    73   35   37 1    
    74   37   38 1    
    75   37   39 1    
    76   37  160 1    
    77   38  161 1    
    78   38  162 1    
    79   38  163 1    
    80   39   40 am   BACKBONE|DICT|INTERRES
    81   39  164 1    
    82   40   41 2    
    83   40   42 1    
    84   42   43 1    
    85   42   44 1    
    86   42  165 1    
    87   43  166 1    
    88   43  167 1    
    89   43  168 1    
    90   44   45 am   BACKBONE|DICT|INTERRES
    91   44  169 1    
    92   45   46 2    
    93   45   47 1    
    94   47   48 1    
    95   47   49 1    
    96   47  170 1    
    97   48  171 1    
    98   48  172 1    
    99   48  173 1    
   100   49   50 am   BACKBONE|DICT|INTERRES
   101   49  174 1    
   102   50   51 2    
   103   50   52 1    
   104   52   53 1    
   105   52   54 1    
   106   52  175 1    
   107   53  176 1    
   108   53  177 1    
   109   53  178 1    
   110   54   55 am   BACKBONE|DICT|INTERRES
   111   54  179 1    
   112   55   56 2    
   113   55   57 1    
   114   57   58 1    
   115   57   59 1    
   116   57  180 1    
   117   58  181 1    
   118   58  182 1    
   119   58  183 1    
   120   59   60 am   BACKBONE|DICT|INTERRES
   121   59  184 1    
   122   60   61 2    
   123   60   62 1    
   124   62   63 1    
   125   62   64 1    
   126   62  185 1    
   127   63  186 1    
   128   63  187 1    
   129   63  188 1    
   130   64   65 am   BACKBONE|DICT|INTERRES
   131   64  189 1    
   132   65   66 2    
   133   67   68 2    
   134   67   69 am   BACKBONE|DICT|INTERRES
   135   69   70 1    
   136   69  190 1    
   137   70   71 1    
   138   70   72 1    
   139   70  191 1    
   140   71  192 1    
   141   71  193 1    
   142   71  194 1    
   143   72   73 2    
   144   72   74 am   BACKBONE|DICT|INTERRES
   145   74   75 1    
   146   74  195 1    
   147   75   76 1    
   148   75   77 1    
   149   75  196 1    
   150   76  197 1    
   151   76  198 1    
   152   76  199 1    
   153   77   78 2    
   154   77   79 am   BACKBONE|DICT|INTERRES
   155   79   80 1    
   156   79  200 1    
   157   80   81 1    
   158   80   82 1    
   159   80  201 1    
   160   81  202 1    
   161   81  203 1    
   162   81  204 1    
   163   82   83 2    
   164   82   84 am   BACKBONE|DICT|INTERRES
   165   84   85 1    
   166   84  205 1    
   167   85   86 1    
   168   85   87 1    
   169   85  206 1    
   170   86  207 1    
   171   86  208 1    
   172   86  209 1    
   173   87   88 2    
   174   87   89 am   BACKBONE|DICT|INTERRES
   175   89   90 1    
   176   89  210 1    
   177   90   91 1    
   178   90   92 1    
   179   90  211 1    
   180   91  212 1    
   181   91  213 1    
   182   91  214 1    
   183   92   93 2    
   184   92   94 am   BACKBONE|DICT|INTERRES
   185   94   95 1    
   186   94  215 1    
   187   95   96 1    
   188   95   97 1    
   189   95  216 1    
   190   96  217 1    
   191   96  218 1    
   192   96  219 1    
   193   97   98 2    
   194   97   99 am   BACKBONE|DICT|INTERRES
   195   99  100 1    
   196   99  220 1    
   197  100  101 1    
   198  100  102 1    
   199  100  221 1    
   200  101  222 1    
   201  101  223 1    
   202  101  224 1    
   203  102  103 2    
   204  102  104 am   BACKBONE|DICT|INTERRES
   205  104  105 1    
   206  104  225 1    
   207  105  106 1    
   208  105  107 1    
   209  105  226 1    
   210  106  227 1    
   211  106  228 1    
   212  106  229 1    
   213  107  108 2    
   214  107  109 am   BACKBONE|DICT|INTERRES
   215  109  110 1    
   216  109  230 1    
   217  110  111 1    
   218  110  112 1    
   219  110  231 1    
   220  111  232 1    
   221  111  233 1    
   222  111  234 1    
   223  112  113 2    
   224  112  114 am   BACKBONE|DICT|INTERRES
   225  114  115 1    
   226  114  235 1    
   227  115  116 1    
   228  115  117 1    
   229  115  236 1    
   230  116  237 1    
   231  116  238 1    
   232  116  239 1    
   233  117  118 2    
   234  117  119 am   BACKBONE|DICT|INTERRES
   235  119  120 1    
   236  119  240 1    
   237  120  121 1    
   238  120  124 1    
   239  120  241 1    
   240  121  122 am   BACKBONE|DICT|INTERRES
   241  121  123 2    
   242  122  242 1    
   243  122  243 1    
   244  124  125 1    
   245  124  244 1    
   246  124  245 1    
   247  125  126 1    
   248  126  246 1    
   249  126  247 1    
@<TRIPOS>SUBSTRUCTURE
     1 UNK         1 GROUP             0       ****    0 ROOT    
