@<TRIPOS>MOLECULE
3R540
247   249    1
SMALL
USER_CHARGES


@<TRIPOS>ATOM
      1 CA         -3.2528  -18.4016  -48.5956 C.3       0 UNK        -0.1800 
      2 C          -3.0337  -16.8978  -48.4969 C.2       0 UNK         0.5000 
      3 O          -4.0023  -16.1409  -48.4198 O.2       0 UNK        -0.5000 
      4 N          -1.7652  -16.4680  -48.4877 N.am      1 UNK        -0.5000 
      5 CA         -1.3391  -15.0834  -48.2457 C.3       1 UNK         0.1400 
      6 C6          0.1219  -14.8475  -48.7112 C.3       23 UNK        -0.0398 
      7 S7          0.3000  -14.8852  -50.5244 S.3       23 UNK        -0.2404 
      8 C8          1.3609  -16.3457  -50.7909 C.3       23 UNK        -0.0205 
      9 C9          0.5922  -17.6616  -50.8132 C.ar      23 UNK        -0.0193 
     10 C10        -0.5685  -17.7920  -51.5803 C.ar      23 UNK        -0.1150 
     11 C11        -1.2499  -19.0095  -51.6555 C.ar      23 UNK        -0.0193 
     12 C12        -0.7460  -20.1171  -50.9672 C.ar      23 UNK        -0.1150 
     13 C13         0.4204  -20.0061  -50.2015 C.ar      23 UNK        -0.0193 
     14 C14         1.0794  -18.7748  -50.1231 C.ar      23 UNK        -0.1150 
     15 C15         0.9937  -21.2225  -49.4865 C.3       23 UNK        -0.0205 
     16 S16         0.7766  -21.1242  -47.6822 S.3       23 UNK        -0.2404 
     17 C17        -1.0351  -21.2408  -47.5323 C.3       23 UNK        -0.0398 
     18 CA         -1.4747  -22.4201  -46.6397 C.3       11 UNK         0.1400 
     19 N          -1.0292  -22.2734  -45.2454 N.am      11 UNK        -0.5000 
     20 C          -1.1608  -23.2035  -44.2862 C.2       10 UNK         0.5000 
     21 O          -1.8146  -24.2361  -44.4338 O.2       10 UNK        -0.5000 
     22 CA         -0.4478  -22.9660  -42.9425 C.3       10 UNK         0.1400 
     23 CB          0.8643  -23.7633  -42.8989 C.3       10 UNK        -0.1800 
     24 N          -0.1558  -21.5584  -42.6778 N.am      10 UNK        -0.5000 
     25 C          -1.0614  -20.6603  -42.2687 C.2       9 UNK         0.5000 
     26 O          -2.2408  -20.9325  -42.0429 O.2       9 UNK        -0.5000 
     27 CA         -0.5704  -19.2069  -42.1095 C.3       9 UNK         0.1400 
     28 CB         -0.1036  -18.9510  -40.6680 C.3       9 UNK        -0.1800 
     29 N           0.5038  -18.8308  -43.0373 N.am      9 UNK        -0.5000 
     30 C           0.4021  -18.8493  -44.3749 C.2       8 UNK         0.5000 
     31 O          -0.6130  -19.2222  -44.9609 O.2       8 UNK        -0.5000 
     32 CA          1.6269  -18.3995  -45.1918 C.3       8 UNK         0.1400 
     33 CB          1.2124  -17.5565  -46.4078 C.3       8 UNK        -0.1800 
     34 N           2.5615  -17.6165  -44.3862 N.am      8 UNK        -0.5000 
     35 C           3.8758  -17.8395  -44.2653 C.2       7 UNK         0.5000 
     36 O           4.4547  -18.8176  -44.7410 O.2       7 UNK        -0.5000 
     37 CA          4.6634  -16.7597  -43.4920 C.3       7 UNK         0.1400 
     38 CB          6.1942  -16.8966  -43.6250 C.3       7 UNK        -0.1800 
     39 N           4.2150  -15.4082  -43.8455 N.am      7 UNK        -0.5000 
     40 C           4.2736  -14.8077  -45.0440 C.2       6 UNK         0.5000 
     41 O           4.8564  -15.2741  -46.0232 O.2       6 UNK        -0.5000 
     42 CA          3.5182  -13.4711  -45.1891 C.3       6 UNK         0.1400 
     43 CB          2.2557  -13.6748  -46.0375 C.3       6 UNK        -0.1800 
     44 N           3.1299  -12.8919  -43.9011 N.am      6 UNK        -0.5000 
     45 C           3.9407  -12.1582  -43.1268 C.2       5 UNK         0.5000 
     46 O           5.0758  -11.8119  -43.4554 O.2       5 UNK        -0.5000 
     47 CA          3.4071  -11.7911  -41.7300 C.3       5 UNK         0.1400 
     48 CB          2.5178  -10.5397  -41.7882 C.3       5 UNK        -0.1800 
     49 N           2.6678  -12.8978  -41.1177 N.am      5 UNK        -0.5000 
     50 C           3.2367  -14.0299  -40.6764 C.2       4 UNK         0.5000 
     51 O           4.4502  -14.2334  -40.6959 O.2       4 UNK        -0.5000 
     52 CA          2.3059  -15.1393  -40.1511 C.3       4 UNK         0.1400 
     53 CB          2.2471  -15.1127  -38.6167 C.3       4 UNK        -0.1800 
     54 N           0.9435  -15.0677  -40.6790 N.am      4 UNK        -0.5000 
     55 C           0.5929  -15.2868  -41.9526 C.2       3 UNK         0.5000 
     56 O           1.4007  -15.5765  -42.8371 O.2       3 UNK        -0.5000 
     57 CA         -0.9084  -15.1864  -42.2933 C.3       3 UNK         0.1400 
     58 CB         -1.7652  -14.5664  -41.1675 C.3       3 UNK        -0.1800 
     59 N          -1.1807  -14.4883  -43.5498 N.am      3 UNK        -0.5000 
     60 C          -0.7597  -13.2804  -43.9392 C.2       2 UNK         0.5000 
     61 O           0.1000  -12.6299  -43.3405 O.2       2 UNK        -0.5000 
     62 CA         -1.4569  -12.6913  -45.1900 C.3       2 UNK         0.1400 
     63 CB         -1.1043  -11.2071  -45.4005 C.3       2 UNK        -0.1800 
     64 N          -1.2238  -13.4005  -46.4546 N.am      2 UNK        -0.5000 
     65 C          -1.5587  -14.6617  -46.7677 C.2       1 UNK         0.5000 
     66 O          -2.0439  -15.4541  -45.9563 O.2       1 UNK        -0.5000 
     67 C          -2.9901  -22.6398  -46.7905 C.2       11 UNK         0.5000 
     68 O          -3.4033  -23.2938  -47.7480 O.2       11 UNK        -0.5000 
     69 N          -3.7833  -22.1386  -45.8355 N.am      12 UNK        -0.5000 
     70 CA         -5.2306  -22.3421  -45.7629 C.3       12 UNK         0.1400 
     71 CB         -5.7989  -21.4561  -44.6448 C.3       12 UNK        -0.1800 
     72 C          -5.6421  -23.8145  -45.5515 C.2       12 UNK         0.5000 
     73 O          -6.7669  -24.1733  -45.8998 O.2       12 UNK        -0.5000 
     74 N          -4.7335  -24.6343  -45.0050 N.am      13 UNK        -0.5000 
     75 CA         -4.9158  -26.0691  -44.7983 C.3       13 UNK         0.1400 
     76 CB         -4.6449  -26.4030  -43.3225 C.3       13 UNK        -0.1800 
     77 C          -3.9859  -26.8808  -45.7142 C.2       13 UNK         0.5000 
     78 O          -4.4426  -27.8309  -46.3492 O.2       13 UNK        -0.5000 
     79 N          -2.7022  -26.4981  -45.7697 N.am      14 UNK        -0.5000 
     80 CA         -1.6401  -27.2281  -46.4650 C.3       14 UNK         0.1400 
     81 CB         -0.2749  -26.6950  -46.0022 C.3       14 UNK        -0.1800 
     82 C          -1.7481  -27.1647  -47.9975 C.2       14 UNK         0.5000 
     83 O          -1.4608  -28.1599  -48.6636 O.2       14 UNK        -0.5000 
     84 N          -2.1612  -26.0047  -48.5225 N.am      15 UNK        -0.5000 
     85 CA         -2.3593  -25.7601  -49.9530 C.3       15 UNK         0.1400 
     86 CB         -1.5188  -24.5371  -50.3661 C.3       15 UNK        -0.1800 
     87 C          -3.8439  -25.5367  -50.2914 C.2       15 UNK         0.5000 
     88 O          -4.1603  -25.3051  -51.4572 O.2       15 UNK        -0.5000 
     89 N          -4.7199  -25.5471  -49.2726 N.am      16 UNK        -0.5000 
     90 CA         -6.1538  -25.2254  -49.3162 C.3       16 UNK         0.1400 
     91 CB         -6.9213  -26.3232  -50.0810 C.3       16 UNK        -0.1800 
     92 C          -6.4570  -23.8085  -49.8614 C.2       16 UNK         0.5000 
     93 O          -7.5547  -23.5719  -50.3681 O.2       16 UNK        -0.5000 
     94 N          -5.4595  -22.9104  -49.7904 N.am      17 UNK        -0.5000 
     95 CA         -5.3803  -21.6033  -50.4549 C.3       17 UNK         0.1400 
     96 CB         -6.3485  -20.6005  -49.7959 C.3       17 UNK        -0.1800 
     97 C          -5.5420  -21.6753  -51.9950 C.2       17 UNK         0.5000 
     98 O          -5.9754  -20.7013  -52.6111 O.2       17 UNK        -0.5000 
     99 N          -5.1935  -22.8216  -52.5953 N.am      18 UNK        -0.5000 
    100 CA        -5.3475  -23.1166  -54.0154 C.3       18 UNK         0.1400 
    101 CB        -6.1646  -24.4132  -54.1651 C.3       18 UNK        -0.1800 
    102 C         -3.9583  -23.2118  -54.6644 C.2       18 UNK         0.5000 
    103 O         -3.4659  -24.3079  -54.9390 O.2       18 UNK        -0.5000 
    104 N         -3.3475  -22.0467  -54.8915 N.am      19 UNK        -0.5000 
    105 CA        -2.1014  -21.8718  -55.6306 C.3       19 UNK         0.1400 
    106 CB        -0.9084  -21.8714  -54.6590 C.3       19 UNK        -0.1800 
    107 C         -2.1981  -20.5590  -56.4208 C.2       19 UNK         0.5000 
    108 O         -3.0381  -19.7152  -56.0962 O.2       19 UNK        -0.5000 
    109 N         -1.3388  -20.4027  -57.4371 N.am      20 UNK        -0.5000 
    110 CA        -1.3529  -19.2961  -58.4044 C.3       20 UNK         0.1400 
    111 CB        -0.2219  -19.5037  -59.4231 C.3       20 UNK        -0.1800 
    112 C         -1.2644  -17.8878  -57.7837 C.2       20 UNK         0.5000 
    113 O         -1.8756  -16.9542  -58.3055 O.2       20 UNK        -0.5000 
    114 N         -0.5555  -17.7710  -56.6528 N.am      21 UNK        -0.5000 
    115 CA        -0.4309  -16.5477  -55.8549 C.3       21 UNK         0.1400 
    116 CB         0.6338  -16.7756  -54.7712 C.3       21 UNK        -0.1800 
    117 C         -1.7580  -16.0569  -55.2332 C.2       21 UNK         0.5000 
    118 O         -1.8595  -14.8781  -54.8917 O.2       21 UNK        -0.5000 
    119 N         -2.7471  -16.9517  -55.1196 N.am      22 UNK        -0.5000 
    120 CA        -4.1189  -16.6627  -54.6749 C.3       22 UNK         0.1400 
    121 C         -5.0959  -16.3949  -55.8590 C.2       22 UNK         0.5000 
    122 N         -4.6570  -16.3959  -57.1137 N.am      22 UNK        -0.7600 
    123 O         -6.2801  -16.1571  -55.6371 O.2       22 UNK        -0.5000 
    124 C124       -4.6550  -17.7741  -53.7317 C.3       23 UNK        -0.0398 
    125 S125       -3.7325  -17.8525  -52.1601 S.3       23 UNK        -0.2404 
    126 C126       -2.4920  -19.1349  -52.5272 C.3       23 UNK        -0.0205 
    127 H127       -4.0542  -18.6243  -49.2986 H         1 UNK         0.0600 
    128 H128       -3.5315  -18.8054  -47.6223 H         1 UNK         0.0600 
    129 H129       -2.3536  -18.9124  -48.9357 H         1 UNK         0.0600 
    130 H130       -1.0208  -17.1421  -48.5825 H         1 UNK         0.3000 
    131 H131       -1.9861  -14.4337  -48.8391 H         1 UNK         0.0600 
    132 H132        0.7989  -15.5672  -48.2550 H         1 UNK         0.0800 
    133 H133        0.4817  -13.8646  -48.4071 H         1 UNK         0.0800 
    134 H134        1.8595  -16.2335  -51.7543 H         1 UNK         0.0800 
    135 H135        2.1533  -16.3640  -50.0411 H         1 UNK         0.0800 
    136 H136       -0.9415  -16.9413  -52.1331 H         1 UNK         0.1150 
    137 H137       -1.2520  -21.0694  -51.0404 H         1 UNK         0.1150 
    138 H138        1.9863  -18.6941  -49.5402 H         1 UNK         0.1150 
    139 H139        0.5416  -22.1436  -49.8576 H         1 UNK         0.0800 
    140 H140        2.0592  -21.2970  -49.7080 H         1 UNK         0.0800 
    141 H141       -1.4139  -20.2965  -47.1415 H         1 UNK         0.0800 
    142 H142       -1.4645  -21.3440  -48.5295 H         1 UNK         0.0800 
    143 H143       -0.9993  -23.3238  -47.0269 H         1 UNK         0.0600 
    144 H144       -0.5434  -21.4119  -45.0304 H         1 UNK         0.3000 
    145 H145       -1.1012  -23.3440  -42.1533 H         1 UNK         0.0600 
    146 H146        1.3521  -23.6679  -41.9287 H         1 UNK         0.0600 
    147 H147        0.6820  -24.8260  -43.0660 H         1 UNK         0.0600 
    148 H148        1.5661  -23.4272  -43.6634 H         1 UNK         0.0600 
    149 H149        0.7919  -21.2493  -42.8364 H         1 UNK         0.3000 
    150 H150       -1.4255  -18.5602  -42.3135 H         1 UNK         0.0600 
    151 H151       -0.8886  -19.2014  -39.9531 H         1 UNK         0.0600 
    152 H152        0.1521  -17.9041  -40.5103 H         1 UNK         0.0600 
    153 H153        0.7717  -19.5511  -40.4167 H         1 UNK         0.0600 
    154 H154        1.3752  -18.5244  -42.6306 H         1 UNK         0.3000 
    155 H155        2.1078  -19.3104  -45.5526 H         1 UNK         0.0600 
    156 H156        0.5546  -18.1145  -47.0749 H         1 UNK         0.0600 
    157 H157        2.0830  -17.2531  -46.9896 H         1 UNK         0.0600 
    158 H158        0.6813  -16.6572  -46.0959 H         1 UNK         0.0600 
    159 H159        2.1674  -16.7960  -43.9264 H         1 UNK         0.3000 
    160 H160        4.4133  -16.8964  -42.4391 H         1 UNK         0.0600 
    161 H161        6.7082  -16.1136  -43.0675 H         1 UNK         0.0600 
    162 H162        6.5211  -16.8400  -44.6634 H         1 UNK         0.0600 
    163 H163        6.5346  -17.8538  -43.2287 H         1 UNK         0.0600 
    164 H164        3.6721  -14.9366  -43.1360 H         1 UNK         0.3000 
    165 H165        4.1739  -12.7745  -45.7158 H         1 UNK         0.0600 
    166 H166        1.5666  -14.3767  -45.5669 H         1 UNK         0.0600 
    167 H167        1.7294  -12.7335  -46.1925 H         1 UNK         0.0600 
    168 H168        2.5113  -14.0716  -47.0204 H         1 UNK         0.0600 
    169 H169        2.1925  -13.0946  -43.5707 H         1 UNK         0.3000 
    170 H170        4.2660  -11.5627  -41.0951 H         1 UNK         0.0600 
    171 H171        3.0656   -9.6934  -42.2047 H         1 UNK         0.0600 
    172 H172        1.6361  -10.6948  -42.4100 H         1 UNK         0.0600 
    173 H173        2.1798  -10.2496  -40.7933 H         1 UNK         0.0600 
    174 H174        1.6607  -12.8198  -41.1028 H         1 UNK         0.3000 
    175 H175        2.7339  -16.0959  -40.4583 H         1 UNK         0.0600 
    176 H176        1.8055  -14.1866  -38.2468 H         1 UNK         0.0600 
    177 H177        1.6584  -15.9448  -38.2299 H         1 UNK         0.0600 
    178 H178        3.2457  -15.1955  -38.1853 H         1 UNK         0.0600 
    179 H179        0.2196  -14.8284  -40.0169 H         1 UNK         0.3000 
    180 H180       -1.2488  -16.2104  -42.4431 H         1 UNK         0.0600 
    181 H181       -1.4522  -13.5480  -40.9329 H         1 UNK         0.0600 
    182 H182       -1.7152  -15.1569  -40.2518 H         1 UNK         0.0600 
    183 H183       -2.8158  -14.5273  -41.4563 H         1 UNK         0.0600 
    184 H184       -1.7682  -14.9880  -44.2142 H         1 UNK         0.3000 
    185 H185       -2.5291  -12.7406  -44.9905 H         1 UNK         0.0600 
    186 H186       -1.3121  -10.6233  -44.5026 H         1 UNK         0.0600 
    187 H187       -0.0490  -11.0731  -45.6406 H         1 UNK         0.0600 
    188 H188       -1.6915  -10.7707  -46.2087 H         1 UNK         0.0600 
    189 H189       -0.8335  -12.8247  -47.1857 H         1 UNK         0.3000 
    190 H190       -3.3567  -21.6251  -45.0773 H         1 UNK         0.3000 
    191 H191       -5.6627  -22.0178  -46.7119 H         1 UNK         0.0600 
    192 H192       -5.5879  -20.4028  -44.8306 H         1 UNK         0.0600 
    193 H193       -6.8823  -21.5616  -44.5736 H         1 UNK         0.0600 
    194 H194       -5.3780  -21.7170  -43.6728 H         1 UNK         0.0600 
    195 H195       -3.8231  -24.2593  -44.7638 H         1 UNK         0.3000 
    196 H196       -5.9419  -26.3654  -45.0256 H         1 UNK         0.0600 
    197 H197       -4.7573  -27.4718  -43.1360 H         1 UNK         0.0600 
    198 H198       -5.3459  -25.8836  -42.6690 H         1 UNK         0.0600 
    199 H199       -3.6356  -26.1198  -43.0206 H         1 UNK         0.0600 
    200 H200       -2.3996  -25.7000  -45.2139 H         1 UNK         0.3000 
    201 H201       -1.7087  -28.2780  -46.1723 H         1 UNK         0.0600 
    202 H202       -0.1608  -26.7873  -44.9220 H         1 UNK         0.0600 
    203 H203       -0.1416  -25.6446  -46.2634 H         1 UNK         0.0600 
    204 H204        0.5399  -27.2537  -46.4642 H         1 UNK         0.0600 
    205 H205       -2.3915  -25.2370  -47.9054 H         1 UNK         0.3000 
    206 H206       -2.0261  -26.6149  -50.5446 H         1 UNK         0.0600 
    207 H207       -0.4644  -24.6891  -50.1357 H         1 UNK         0.0600 
    208 H208       -1.5916  -24.3552  -51.4393 H         1 UNK         0.0600 
    209 H209       -1.8436  -23.6284  -49.8598 H         1 UNK         0.0600 
    210 H210       -4.3492  -25.7383  -48.3541 H         1 UNK         0.3000 
    211 H211       -6.5033  -25.2389  -48.2846 H         1 UNK         0.0600 
    212 H212       -6.6759  -26.3223  -51.1436 H         1 UNK         0.0600 
    213 H213       -7.9991  -26.1820  -49.9943 H         1 UNK         0.0600 
    214 H214       -6.6929  -27.3125  -49.6843 H         1 UNK         0.0600 
    215 H215       -4.6254  -23.1906  -49.2827 H         1 UNK         0.3000 
    216 H216       -4.3666  -21.2392  -50.2811 H         1 UNK         0.0600 
    217 H217       -6.1766  -20.5350  -48.7218 H         1 UNK         0.0600 
    218 H218       -7.3901  -20.8807  -49.9543 H         1 UNK         0.0600 
    219 H219       -6.2140  -19.5984  -50.2049 H         1 UNK         0.0600 
    220 H220       -4.8203  -23.5858  -52.0381 H         1 UNK         0.3000 
    221 H221       -5.8975  -22.3219  -54.5236 H         1 UNK         0.0600 
    222 H222       -5.6750  -25.2619  -53.6865 H         1 UNK         0.0600 
    223 H223       -7.1531  -24.3063  -53.7180 H         1 UNK         0.0600 
    224 H224       -6.3070  -24.6652  -55.2165 H         1 UNK         0.0600 
    225 H225       -3.8366  -21.1820  -54.6965 H         1 UNK         0.3000 
    226 H226       -1.9826  -22.6855  -56.3494 H         1 UNK         0.0600 
    227 H227       -0.8661  -22.7996  -54.0888 H         1 UNK         0.0600 
    228 H228        0.0356  -21.7796  -55.1970 H         1 UNK         0.0600 
    229 H229       -0.9593  -21.0487  -53.9480 H         1 UNK         0.0600 
    230 H230       -0.6704  -21.1374  -57.6199 H         1 UNK         0.3000 
    231 H231       -2.3036  -19.3492  -58.9387 H         1 UNK         0.0600 
    232 H232       -0.2182  -18.7098  -60.1713 H         1 UNK         0.0600 
    233 H233       -0.3377  -20.4479  -59.9556 H         1 UNK         0.0600 
    234 H234        0.7570  -19.5061  -58.9420 H         1 UNK         0.0600 
    235 H235       -0.0962  -18.5946  -56.2933 H         1 UNK         0.3000 
    236 H236       -0.0779  -15.7526  -56.5148 H         1 UNK         0.0600 
    237 H237        1.6186  -16.9238  -55.2142 H         1 UNK         0.0600 
    238 H238        0.7065  -15.9192  -54.0992 H         1 UNK         0.0600 
    239 H239        0.4069  -17.6535  -54.1669 H         1 UNK         0.0600 
    240 H240       -2.6037  -17.8926  -55.4709 H         1 UNK         0.3000 
    241 H241       -4.1132  -15.7339  -54.1018 H         1 UNK         0.0600 
    242 H242       -3.6833  -16.5683  -57.3320 H         1 UNK         0.3800 
    243 H243       -5.3070  -16.2115  -57.8613 H         1 UNK         0.3800 
    244 H244       -4.6419  -18.7482  -54.2214 H         1 UNK         0.0800 
    245 H245       -5.6978  -17.5873  -53.4705 H         1 UNK         0.0800 
    246 H246       -2.9532  -20.1164  -52.4157 H         1 UNK         0.0800 
    247 H247       -2.1777  -19.0547  -53.5659 H         1 UNK         0.0800 
@<TRIPOS>BOND
     1    1    2 1    
     2    1  127 1    
     3    1  128 1    
     4    1  129 1    
     5    2    3 2    
     6    2    4 am   BACKBONE|DICT|INTERRES
     7    4    5 1    
     8    4  130 1    
     9    5    6 1    
    10    5   65 1    
    11    5  131 1    
    12    6    7 1    
    13    6  132 1    
    14    6  133 1    
    15    7    8 1    
    16    8    9 1    
    17    8  134 1    
    18    8  135 1    
    19    9   10 ar   
    20    9   14 ar   
    21   10   11 ar   
    22   10  136 1    
    23   11   12 ar   
    24   11  126 1    
    25   12   13 ar   
    26   12  137 1    
    27   13   14 ar   
    28   13   15 1    
    29   14  138 1    
    30   15   16 1    
    31   15  139 1    
    32   15  140 1    
    33   16   17 1    
    34   17   18 1    
    35   17  141 1    
    36   17  142 1    
    37   18   19 1    
    38   18   67 1    
    39   18  143 1    
    40   19   20 am   BACKBONE|DICT|INTERRES
    41   19  144 1    
    42   20   21 2    
    43   20   22 1    
    44   22   23 1    
    45   22   24 1    
    46   22  145 1    
    47   23  146 1    
    48   23  147 1    
    49   23  148 1    
    50   24   25 am   BACKBONE|DICT|INTERRES
    51   24  149 1    
    52   25   26 2    
    53   25   27 1    
    54   27   28 1    
    55   27   29 1    
    56   27  150 1    
    57   28  151 1    
    58   28  152 1    
    59   28  153 1    
    60   29   30 am   BACKBONE|DICT|INTERRES
    61   29  154 1    
    62   30   31 2    
    63   30   32 1    
    64   32   33 1    
    65   32   34 1    
    66   32  155 1    
    67   33  156 1    
    68   33  157 1    
    69   33  158 1    
    70   34   35 am   BACKBONE|DICT|INTERRES
    71   34  159 1    
    72   35   36 2    
    73   35   37 1    
    74   37   38 1    
    75   37   39 1    
    76   37  160 1    
    77   38  161 1    
    78   38  162 1    
    79   38  163 1    
    80   39   40 am   BACKBONE|DICT|INTERRES
    81   39  164 1    
    82   40   41 2    
    83   40   42 1    
    84   42   43 1    
    85   42   44 1    
    86   42  165 1    
    87   43  166 1    
    88   43  167 1    
    89   43  168 1    
    90   44   45 am   BACKBONE|DICT|INTERRES
    91   44  169 1    
    92   45   46 2    
    93   45   47 1    
    94   47   48 1    
    95   47   49 1    
    96   47  170 1    
    97   48  171 1    
    98   48  172 1    
    99   48  173 1    
   100   49   50 am   BACKBONE|DICT|INTERRES
   101   49  174 1    
   102   50   51 2    
   103   50   52 1    
   104   52   53 1    
   105   52   54 1    
   106   52  175 1    
   107   53  176 1    
   108   53  177 1    
   109   53  178 1    
   110   54   55 am   BACKBONE|DICT|INTERRES
   111   54  179 1    
   112   55   56 2    
   113   55   57 1    
   114   57   58 1    
   115   57   59 1    
   116   57  180 1    
   117   58  181 1    
   118   58  182 1    
   119   58  183 1    
   120   59   60 am   BACKBONE|DICT|INTERRES
   121   59  184 1    
   122   60   61 2    
   123   60   62 1    
   124   62   63 1    
   125   62   64 1    
   126   62  185 1    
   127   63  186 1    
   128   63  187 1    
   129   63  188 1    
   130   64   65 am   BACKBONE|DICT|INTERRES
   131   64  189 1    
   132   65   66 2    
   133   67   68 2    
   134   67   69 am   BACKBONE|DICT|INTERRES
   135   69   70 1    
   136   69  190 1    
   137   70   71 1    
   138   70   72 1    
   139   70  191 1    
   140   71  192 1    
   141   71  193 1    
   142   71  194 1    
   143   72   73 2    
   144   72   74 am   BACKBONE|DICT|INTERRES
   145   74   75 1    
   146   74  195 1    
   147   75   76 1    
   148   75   77 1    
   149   75  196 1    
   150   76  197 1    
   151   76  198 1    
   152   76  199 1    
   153   77   78 2    
   154   77   79 am   BACKBONE|DICT|INTERRES
   155   79   80 1    
   156   79  200 1    
   157   80   81 1    
   158   80   82 1    
   159   80  201 1    
   160   81  202 1    
   161   81  203 1    
   162   81  204 1    
   163   82   83 2    
   164   82   84 am   BACKBONE|DICT|INTERRES
   165   84   85 1    
   166   84  205 1    
   167   85   86 1    
   168   85   87 1    
   169   85  206 1    
   170   86  207 1    
   171   86  208 1    
   172   86  209 1    
   173   87   88 2    
   174   87   89 am   BACKBONE|DICT|INTERRES
   175   89   90 1    
   176   89  210 1    
   177   90   91 1    
   178   90   92 1    
   179   90  211 1    
   180   91  212 1    
   181   91  213 1    
   182   91  214 1    
   183   92   93 2    
   184   92   94 am   BACKBONE|DICT|INTERRES
   185   94   95 1    
   186   94  215 1    
   187   95   96 1    
   188   95   97 1    
   189   95  216 1    
   190   96  217 1    
   191   96  218 1    
   192   96  219 1    
   193   97   98 2    
   194   97   99 am   BACKBONE|DICT|INTERRES
   195   99  100 1    
   196   99  220 1    
   197  100  101 1    
   198  100  102 1    
   199  100  221 1    
   200  101  222 1    
   201  101  223 1    
   202  101  224 1    
   203  102  103 2    
   204  102  104 am   BACKBONE|DICT|INTERRES
   205  104  105 1    
   206  104  225 1    
   207  105  106 1    
   208  105  107 1    
   209  105  226 1    
   210  106  227 1    
   211  106  228 1    
   212  106  229 1    
   213  107  108 2    
   214  107  109 am   BACKBONE|DICT|INTERRES
   215  109  110 1    
   216  109  230 1    
   217  110  111 1    
   218  110  112 1    
   219  110  231 1    
   220  111  232 1    
   221  111  233 1    
   222  111  234 1    
   223  112  113 2    
   224  112  114 am   BACKBONE|DICT|INTERRES
   225  114  115 1    
   226  114  235 1    
   227  115  116 1    
   228  115  117 1    
   229  115  236 1    
   230  116  237 1    
   231  116  238 1    
   232  116  239 1    
   233  117  118 2    
   234  117  119 am   BACKBONE|DICT|INTERRES
   235  119  120 1    
   236  119  240 1    
   237  120  121 1    
   238  120  124 1    
   239  120  241 1    
   240  121  122 am   BACKBONE|DICT|INTERRES
   241  121  123 2    
   242  122  242 1    
   243  122  243 1    
   244  124  125 1    
   245  124  244 1    
   246  124  245 1    
   247  125  126 1    
   248  126  246 1    
   249  126  247 1    
@<TRIPOS>SUBSTRUCTURE
     1 UNK         1 GROUP             0       ****    0 ROOT    
