@<TRIPOS>MOLECULE
3R540
247   249    1
SMALL
USER_CHARGES


@<TRIPOS>ATOM
      1 CA         -0.7488  -11.9417  -47.2065 C.3       0 UNK        -0.1800 
      2 C           0.6215  -12.5958  -47.3083 C.2       0 UNK         0.5000 
      3 O           1.2166  -12.9404  -46.2841 O.2       0 UNK        -0.5000 
      4 N           1.1161  -12.7613  -48.5415 N.am      1 UNK        -0.5000 
      5 CA          2.4198  -13.3102  -48.9316 C.3       1 UNK         0.1400 
      6 C6          2.6080  -14.8037  -48.5330 C.3       23 UNK        -0.0398 
      7 S7          4.2484  -15.5190  -48.9000 S.3       23 UNK        -0.2404 
      8 C8          4.2410  -15.6043  -50.7249 C.3       23 UNK        -0.0205 
      9 C9          3.3899  -16.7307  -51.3044 C.ar      23 UNK        -0.0193 
     10 C10         2.6279  -16.5083  -52.4564 C.ar      23 UNK        -0.1150 
     11 C11         1.9149  -17.5528  -53.0549 C.ar      23 UNK        -0.0193 
     12 C12         1.9464  -18.8268  -52.4756 C.ar      23 UNK        -0.1150 
     13 C13         2.7063  -19.0651  -51.3256 C.ar      23 UNK        -0.0193 
     14 C14         3.4298  -18.0148  -50.7538 C.ar      23 UNK        -0.1150 
     15 C15         2.8198  -20.4667  -50.7397 C.3       23 UNK        -0.0205 
     16 S16         2.3114  -20.5353  -48.9907 S.3       23 UNK        -0.2404 
     17 C17         0.5103  -20.7810  -49.1189 C.3       23 UNK        -0.0398 
     18 CA          0.0446  -21.9627  -48.2348 C.3       11 UNK         0.1400 
     19 N           0.0866  -21.6400  -46.8042 N.am      11 UNK        -0.5000 
     20 C          -0.1353  -22.5118  -45.8103 C.2       10 UNK         0.5000 
     21 O          -0.3462  -23.7118  -45.9867 O.2       10 UNK        -0.5000 
     22 CA         -0.1819  -21.9412  -44.3803 C.3       10 UNK         0.1400 
     23 CB          1.2322  -21.7117  -43.8267 C.3       10 UNK        -0.1800 
     24 N          -0.9595  -20.7036  -44.2939 N.am      10 UNK        -0.5000 
     25 C          -2.2762  -20.6228  -44.5368 C.2       9 UNK         0.5000 
     26 O          -2.9806  -21.5941  -44.8077 O.2       9 UNK        -0.5000 
     27 CA         -2.9091  -19.2200  -44.5217 C.3       9 UNK         0.1400 
     28 CB         -3.2186  -18.7735  -43.0854 C.3       9 UNK        -0.1800 
     29 N          -2.0737  -18.2190  -45.1840 N.am      9 UNK        -0.5000 
     30 C          -1.7401  -18.2508  -46.4821 C.2       8 UNK         0.5000 
     31 O          -2.1543  -19.0964  -47.2733 O.2       8 UNK        -0.5000 
     32 CA         -0.7260  -17.2010  -46.9664 C.3       8 UNK         0.1400 
     33 CB         -1.4150  -15.8680  -47.2830 C.3       8 UNK        -0.1800 
     34 N           0.3717  -16.9925  -46.0206 N.am      8 UNK        -0.5000 
     35 C           1.2682  -17.9383  -45.7029 C.2       7 UNK         0.5000 
     36 O           1.2658  -19.0679  -46.1863 O.2       7 UNK        -0.5000 
     37 CA          2.3032  -17.5838  -44.6218 C.3       7 UNK         0.1400 
     38 CB          3.4706  -16.7814  -45.2159 C.3       7 UNK        -0.1800 
     39 N           1.7062  -16.8473  -43.5077 N.am      7 UNK        -0.5000 
     40 C           0.7946  -17.3588  -42.6670 C.2       6 UNK         0.5000 
     41 O           0.4192  -18.5311  -42.6920 O.2       6 UNK        -0.5000 
     42 CA          0.1475  -16.3688  -41.6828 C.3       6 UNK         0.1400 
     43 CB          1.0274  -16.1751  -40.4391 C.3       6 UNK        -0.1800 
     44 N          -0.1162  -15.0764  -42.3234 N.am      6 UNK        -0.5000 
     45 C          -1.0624  -14.8967  -43.2576 C.2       5 UNK         0.5000 
     46 O          -1.8175  -15.7990  -43.6185 O.2       5 UNK        -0.5000 
     47 CA         -1.1544  -13.5387  -43.9797 C.3       5 UNK         0.1400 
     48 CB         -2.5914  -12.9790  -43.9958 C.3       5 UNK        -0.1800 
     49 N          -0.1760  -12.5331  -43.5537 N.am      5 UNK        -0.5000 
     50 C          -0.1464  -11.8544  -42.3984 C.2       4 UNK         0.5000 
     51 O          -0.9919  -11.9759  -41.5106 O.2       4 UNK        -0.5000 
     52 CA          1.0556  -10.9025  -42.1990 C.3       4 UNK         0.1400 
     53 CB          1.2394  -10.4893  -40.7242 C.3       4 UNK        -0.1800 
     54 N           2.3310  -11.4084  -42.7279 N.am      4 UNK        -0.5000 
     55 C           2.9062  -12.5922  -42.4741 C.2       3 UNK         0.5000 
     56 O           2.3447  -13.5073  -41.8709 O.2       3 UNK        -0.5000 
     57 CA          4.3461  -12.7828  -42.9928 C.3       3 UNK         0.1400 
     58 CB          4.9172  -14.1690  -42.6443 C.3       3 UNK        -0.1800 
     59 N           4.4636  -12.5740  -44.4373 N.am      3 UNK        -0.5000 
     60 C           4.5505  -11.3822  -45.0440 C.2       2 UNK         0.5000 
     61 O           4.4275  -10.3056  -44.4586 O.2       2 UNK        -0.5000 
     62 CA          4.7954  -11.4077  -46.5566 C.3       2 UNK         0.1400 
     63 CB          6.2316  -11.8759  -46.8682 C.3       2 UNK        -0.1800 
     64 N           3.8026  -12.2684  -47.1914 N.am      2 UNK        -0.5000 
     65 C           3.5755  -12.3779  -48.5038 C.2       1 UNK         0.5000 
     66 O           4.2073  -11.7629  -49.3645 O.2       1 UNK        -0.5000 
     67 C          -1.3449  -22.4720  -48.6640 C.2       11 UNK         0.5000 
     68 O          -1.4265  -23.5138  -49.3160 O.2       11 UNK        -0.5000 
     69 N          -2.4084  -21.7713  -48.2452 N.am      12 UNK        -0.5000 
     70 CA         -3.7967  -22.1633  -48.4803 C.3       12 UNK         0.1400 
     71 CB         -4.7456  -21.0684  -47.9730 C.3       12 UNK        -0.1800 
     72 C          -4.1424  -23.5187  -47.8419 C.2       12 UNK         0.5000 
     73 O          -4.7433  -24.3575  -48.5094 O.2       12 UNK        -0.5000 
     74 N          -3.7282  -23.7294  -46.5841 N.am      13 UNK        -0.5000 
     75 CA         -3.9149  -24.9800  -45.8460 C.3       13 UNK         0.1400 
     76 CB         -3.4650  -24.7998  -44.3887 C.3       13 UNK        -0.1800 
     77 C          -3.1965  -26.1754  -46.4964 C.2       13 UNK         0.5000 
     78 O          -3.7935  -27.2461  -46.6121 O.2       13 UNK        -0.5000 
     79 N          -1.9552  -25.9640  -46.9578 N.am      14 UNK        -0.5000 
     80 CA         -1.1611  -26.9527  -47.6939 C.3       14 UNK         0.1400 
     81 CB          0.2641  -26.4161  -47.8948 C.3       14 UNK        -0.1800 
     82 C          -1.7898  -27.3507  -49.0446 C.2       14 UNK         0.5000 
     83 O          -1.6813  -28.5082  -49.4502 O.2       14 UNK        -0.5000 
     84 N          -2.4683  -26.3956  -49.6916 N.am      15 UNK        -0.5000 
     85 CA         -3.2346  -26.5801  -50.9240 C.3       15 UNK         0.1400 
     86 CB         -3.1857  -25.2665  -51.7172 C.3       15 UNK        -0.1800 
     87 C          -4.6933  -27.0251  -50.6772 C.2       15 UNK         0.5000 
     88 O          -5.4714  -27.0728  -51.6309 O.2       15 UNK        -0.5000 
     89 N          -5.0587  -27.3152  -49.4176 N.am      16 UNK        -0.5000 
     90 CA         -6.3835  -27.7449  -48.9488 C.3       16 UNK         0.1400 
     91 CB         -6.6926  -29.1700  -49.4520 C.3       16 UNK        -0.1800 
     92 C          -7.5130  -26.7395  -49.2706 C.2       16 UNK         0.5000 
     93 O          -8.6534  -27.1436  -49.5029 O.2       16 UNK        -0.5000 
     94 N          -7.1598  -25.4463  -49.2993 N.am      17 UNK        -0.5000 
     95 CA         -7.9766  -24.2786  -49.6436 C.3       17 UNK         0.1400 
     96 CB         -9.1282  -24.0963  -48.6340 C.3       17 UNK        -0.1800 
     97 C          -8.4649  -24.2433  -51.1091 C.2       17 UNK         0.5000 
     98 O          -9.3051  -23.4053  -51.4413 O.2       17 UNK        -0.5000 
     99 N          -7.9323  -25.1219  -51.9708 N.am      18 UNK        -0.5000 
    100 CA        -8.2864  -25.2015  -53.3895 C.3       18 UNK         0.1400 
    101 CB        -8.0206  -26.6300  -53.8894 C.3       18 UNK        -0.1800 
    102 C         -7.5229  -24.1800  -54.2532 C.2       18 UNK         0.5000 
    103 O         -7.9610  -23.8838  -55.3658 O.2       18 UNK        -0.5000 
    104 N         -6.3986  -23.6694  -53.7396 N.am      19 UNK        -0.5000 
    105 CA        -5.4905  -22.7349  -54.3945 C.3       19 UNK         0.1400 
    106 CB        -4.6853  -23.4691  -55.4895 C.3       19 UNK        -0.1800 
    107 C         -4.5698  -22.1139  -53.3292 C.2       19 UNK         0.5000 
    108 O         -4.7675  -22.3511  -52.1353 O.2       19 UNK        -0.5000 
    109 N         -3.5722  -21.3445  -53.7884 N.am      20 UNK        -0.5000 
    110 CA        -2.4332  -20.8120  -53.0270 C.3       20 UNK         0.1400 
    111 CB        -1.5433  -21.9619  -52.5199 C.3       20 UNK        -0.1800 
    112 C         -2.7968  -19.8090  -51.9107 C.2       20 UNK         0.5000 
    113 O         -1.9822  -19.5617  -51.0199 O.2       20 UNK        -0.5000 
    114 N         -3.9820  -19.1893  -52.0165 N.am      21 UNK        -0.5000 
    115 CA        -4.4911  -18.1493  -51.1125 C.3       21 UNK         0.1400 
    116 CB        -5.9609  -17.8688  -51.4602 C.3       21 UNK        -0.1800 
    117 C         -3.6648  -16.8450  -51.1209 C.2       21 UNK         0.5000 
    118 O         -3.8111  -16.0230  -50.2163 O.2       21 UNK        -0.5000 
    119 N         -2.8034  -16.6951  -52.1322 N.am      22 UNK        -0.5000 
    120 CA        -1.7115  -15.7184  -52.2103 C.3       22 UNK         0.1400 
    121 C         -0.6243  -15.8645  -51.1091 C.2       22 UNK         0.5000 
    122 N         -0.4415  -17.0340  -50.5063 N.am      22 UNK        -0.7600 
    123 O          0.0630  -14.8941  -50.8077 O.2       22 UNK        -0.5000 
    124 C124       -1.0618  -15.7260  -53.6198 C.3       23 UNK        -0.0398 
    125 S125       -0.6267  -17.4018  -54.2249 S.3       23 UNK        -0.2404 
    126 C126        1.1861  -17.3277  -54.3745 C.3       23 UNK        -0.0205 
    127 H127       -0.9845  -11.3666  -48.1021 H         1 UNK         0.0600 
    128 H128       -1.5214  -12.6987  -47.0756 H         1 UNK         0.0600 
    129 H129       -0.7821  -11.2639  -46.3535 H         1 UNK         0.0600 
    130 H130        0.5479  -12.4693  -49.3246 H         1 UNK         0.3000 
    131 H131        2.4052  -13.2829  -50.0218 H         1 UNK         0.0600 
    132 H132        2.4370  -14.9322  -47.4658 H         1 UNK         0.0800 
    133 H133        1.8524  -15.4182  -49.0205 H         1 UNK         0.0800 
    134 H134        3.9364  -14.6397  -51.1317 H         1 UNK         0.0800 
    135 H135        5.2676  -15.7588  -51.0588 H         1 UNK         0.0800 
    136 H136        2.6158  -15.5265  -52.9080 H         1 UNK         0.1150 
    137 H137        1.4051  -19.6375  -52.9424 H         1 UNK         0.1150 
    138 H138        4.0418  -18.2069  -49.8839 H         1 UNK         0.1150 
    139 H139        2.2523  -21.1911  -51.3258 H         1 UNK         0.0800 
    140 H140        3.8629  -20.7788  -50.8051 H         1 UNK         0.0800 
    141 H141        0.2558  -20.9542  -50.1635 H         1 UNK         0.0800 
    142 H142        0.0021  -19.8579  -48.8382 H         1 UNK         0.0800 
    143 H143        0.7346  -22.7946  -48.3934 H         1 UNK         0.0600 
    144 H144        0.3169  -20.6778  -46.5687 H         1 UNK         0.3000 
    145 H145       -0.6720  -22.6826  -43.7459 H         1 UNK         0.0600 
    146 H146        1.1992  -21.3650  -42.7936 H         1 UNK         0.0600 
    147 H147        1.8105  -22.6362  -43.8423 H         1 UNK         0.0600 
    148 H148        1.7817  -20.9725  -44.4089 H         1 UNK         0.0600 
    149 H149       -0.4548  -19.8621  -44.0377 H         1 UNK         0.3000 
    150 H150       -3.8525  -19.2771  -45.0684 H         1 UNK         0.0600 
    151 H151       -3.8552  -19.5002  -42.5792 H         1 UNK         0.0600 
    152 H152       -3.7434  -17.8181  -43.0748 H         1 UNK         0.0600 
    153 H153       -2.3107  -18.6621  -42.4924 H         1 UNK         0.0600 
    154 H154       -1.7438  -17.4513  -44.6064 H         1 UNK         0.3000 
    155 H155       -0.2872  -17.5816  -47.8887 H         1 UNK         0.0600 
    156 H156       -0.7116  -15.1566  -47.7130 H         1 UNK         0.0600 
    157 H157       -1.8657  -15.4205  -46.3980 H         1 UNK         0.0600 
    158 H158       -2.2102  -16.0113  -48.0151 H         1 UNK         0.0600 
    159 H159        0.4236  -16.0967  -45.5625 H         1 UNK         0.3000 
    160 H160        2.7027  -18.5237  -44.2347 H         1 UNK         0.0600 
    161 H161        3.1919  -15.7479  -45.4199 H         1 UNK         0.0600 
    162 H162        3.8169  -17.2222  -46.1521 H         1 UNK         0.0600 
    163 H163        4.3220  -16.7734  -44.5362 H         1 UNK         0.0600 
    164 H164        1.9572  -15.8750  -43.4053 H         1 UNK         0.3000 
    165 H165       -0.8060  -16.7906  -41.3575 H         1 UNK         0.0600 
    166 H166        2.0285  -15.8295  -40.6976 H         1 UNK         0.0600 
    167 H167        0.5885  -15.4504  -39.7532 H         1 UNK         0.0600 
    168 H168        1.1388  -17.1138  -39.8952 H         1 UNK         0.0600 
    169 H169        0.5170  -14.3159  -42.0960 H         1 UNK         0.3000 
    170 H170       -0.8969  -13.7667  -45.0108 H         1 UNK         0.0600 
    171 H171       -2.9783  -12.8157  -42.9900 H         1 UNK         0.0600 
    172 H172       -3.2722  -13.6704  -44.4937 H         1 UNK         0.0600 
    173 H173       -2.6416  -12.0331  -44.5349 H         1 UNK         0.0600 
    174 H174        0.5858  -12.3873  -44.2060 H         1 UNK         0.3000 
    175 H175        0.8230  -10.0018  -42.7686 H         1 UNK         0.0600 
    176 H176        2.0668   -9.7887  -40.6112 H         1 UNK         0.0600 
    177 H177        0.3463   -9.9970  -40.3375 H         1 UNK         0.0600 
    178 H178        1.4417  -11.3519  -40.0881 H         1 UNK         0.0600 
    179 H179        2.8756  -10.7499  -43.2765 H         1 UNK         0.3000 
    180 H180        4.9650  -12.0409  -42.4837 H         1 UNK         0.0600 
    181 H181        4.3173  -14.9698  -43.0736 H         1 UNK         0.0600 
    182 H182        4.9378  -14.3215  -41.5645 H         1 UNK         0.0600 
    183 H183        5.9396  -14.2805  -43.0058 H         1 UNK         0.0600 
    184 H184        4.5665  -13.4061  -44.9988 H         1 UNK         0.3000 
    185 H185        4.6643  -10.3914  -46.9335 H         1 UNK         0.0600 
    186 H186        6.4705  -11.7608  -47.9251 H         1 UNK         0.0600 
    187 H187        6.9633  -11.2895  -46.3109 H         1 UNK         0.0600 
    188 H188        6.3809  -12.9240  -46.6067 H         1 UNK         0.0600 
    189 H189        3.1244  -12.7013  -46.5704 H         1 UNK         0.3000 
    190 H190       -2.2610  -20.8930  -47.7526 H         1 UNK         0.3000 
    191 H191       -3.9313  -22.2568  -49.5595 H         1 UNK         0.0600 
    192 H192       -4.5271  -20.1112  -48.4428 H         1 UNK         0.0600 
    193 H193       -5.7832  -21.3157  -48.2005 H         1 UNK         0.0600 
    194 H194       -4.6667  -20.9328  -46.8943 H         1 UNK         0.0600 
    195 H195       -3.2752  -22.9703  -46.0813 H         1 UNK         0.3000 
    196 H196       -4.9841  -25.2019  -45.8433 H         1 UNK         0.0600 
    197 H197       -3.6035  -25.7198  -43.8195 H         1 UNK         0.0600 
    198 H198       -4.0433  -24.0207  -43.8920 H         1 UNK         0.0600 
    199 H199       -2.4115  -24.5273  -44.3229 H         1 UNK         0.0600 
    200 H200       -1.5161  -25.0628  -46.7885 H         1 UNK         0.3000 
    201 H201       -1.1017  -27.8539  -47.0804 H         1 UNK         0.0600 
    202 H202        0.7450  -26.2085  -46.9388 H         1 UNK         0.0600 
    203 H203        0.2687  -25.4946  -48.4775 H         1 UNK         0.0600 
    204 H204        0.8852  -27.1418  -48.4212 H         1 UNK         0.0600 
    205 H205       -2.4721  -25.4598  -49.3007 H         1 UNK         0.3000 
    206 H206       -2.7635  -27.3561  -51.5303 H         1 UNK         0.0600 
    207 H207       -2.1594  -24.9957  -51.9647 H         1 UNK         0.0600 
    208 H208       -3.7371  -25.3395  -52.6552 H         1 UNK         0.0600 
    209 H209       -3.6157  -24.4479  -51.1405 H         1 UNK         0.0600 
    210 H210       -4.3640  -27.2061  -48.6886 H         1 UNK         0.3000 
    211 H211       -6.3202  -27.7857  -47.8607 H         1 UNK         0.0600 
    212 H212       -6.8288  -29.1960  -50.5336 H         1 UNK         0.0600 
    213 H213       -7.6051  -29.5576  -48.9977 H         1 UNK         0.0600 
    214 H214       -5.8879  -29.8601  -49.1983 H         1 UNK         0.0600 
    215 H215       -6.1899  -25.2204  -49.0772 H         1 UNK         0.3000 
    216 H216       -7.3126  -23.4195  -49.5374 H         1 UNK         0.0600 
    217 H217       -8.7577  -24.1029  -47.6089 H         1 UNK         0.0600 
    218 H218       -9.8773  -24.8829  -48.7264 H         1 UNK         0.0600 
    219 H219       -9.6365  -23.1436  -48.7866 H         1 UNK         0.0600 
    220 H220       -7.2359  -25.7801  -51.6398 H         1 UNK         0.3000 
    221 H221       -9.3538  -25.0000  -53.5025 H         1 UNK         0.0600 
    222 H222       -6.9590  -26.8771  -53.8574 H         1 UNK         0.0600 
    223 H223       -8.5550  -27.3657  -53.2879 H         1 UNK         0.0600 
    224 H224       -8.3525  -26.7496  -54.9214 H         1 UNK         0.0600 
    225 H225       -6.1353  -23.9038  -52.7907 H         1 UNK         0.3000 
    226 H226       -6.0741  -21.9292  -54.8438 H         1 UNK         0.0600 
    227 H227       -5.3405  -23.9389  -56.2229 H         1 UNK         0.0600 
    228 H228       -4.0399  -22.7857  -56.0414 H         1 UNK         0.0600 
    229 H229       -4.0528  -24.2489  -55.0633 H         1 UNK         0.0600 
    230 H230       -3.5249  -21.1853  -54.7852 H         1 UNK         0.3000 
    231 H231       -1.8412  -20.2446  -53.7460 H         1 UNK         0.0600 
    232 H232       -0.5823  -21.5878  -52.1702 H         1 UNK         0.0600 
    233 H233       -1.3367  -22.6839  -53.3097 H         1 UNK         0.0600 
    234 H234       -2.0153  -22.4934  -51.6945 H         1 UNK         0.0600 
    235 H235       -4.5830  -19.4523  -52.7831 H         1 UNK         0.3000 
    236 H236       -4.4470  -18.5411  -50.0960 H         1 UNK         0.0600 
    237 H237       -6.3878  -17.1252  -50.7859 H         1 UNK         0.0600 
    238 H238       -6.0676  -17.4898  -52.4773 H         1 UNK         0.0600 
    239 H239       -6.5662  -18.7712  -51.3708 H         1 UNK         0.0600 
    240 H240       -2.7642  -17.4283  -52.8239 H         1 UNK         0.3000 
    241 H241       -2.1585  -14.7341  -52.0594 H         1 UNK         0.0600 
    242 H242       -0.9948  -17.8469  -50.7570 H         1 UNK         0.3800 
    243 H243        0.3152  -17.1251  -49.8528 H         1 UNK         0.3800 
    244 H244       -1.7661  -15.3000  -54.3353 H         1 UNK         0.0800 
    245 H245       -0.1882  -15.0723  -53.6535 H         1 UNK         0.0800 
    246 H246        1.4781  -16.3792  -54.8276 H         1 UNK         0.0800 
    247 H247        1.5014  -18.1004  -55.0769 H         1 UNK         0.0800 
@<TRIPOS>BOND
     1    1    2 1    
     2    1  127 1    
     3    1  128 1    
     4    1  129 1    
     5    2    3 2    
     6    2    4 am   BACKBONE|DICT|INTERRES
     7    4    5 1    
     8    4  130 1    
     9    5    6 1    
    10    5   65 1    
    11    5  131 1    
    12    6    7 1    
    13    6  132 1    
    14    6  133 1    
    15    7    8 1    
    16    8    9 1    
    17    8  134 1    
    18    8  135 1    
    19    9   10 ar   
    20    9   14 ar   
    21   10   11 ar   
    22   10  136 1    
    23   11   12 ar   
    24   11  126 1    
    25   12   13 ar   
    26   12  137 1    
    27   13   14 ar   
    28   13   15 1    
    29   14  138 1    
    30   15   16 1    
    31   15  139 1    
    32   15  140 1    
    33   16   17 1    
    34   17   18 1    
    35   17  141 1    
    36   17  142 1    
    37   18   19 1    
    38   18   67 1    
    39   18  143 1    
    40   19   20 am   BACKBONE|DICT|INTERRES
    41   19  144 1    
    42   20   21 2    
    43   20   22 1    
    44   22   23 1    
    45   22   24 1    
    46   22  145 1    
    47   23  146 1    
    48   23  147 1    
    49   23  148 1    
    50   24   25 am   BACKBONE|DICT|INTERRES
    51   24  149 1    
    52   25   26 2    
    53   25   27 1    
    54   27   28 1    
    55   27   29 1    
    56   27  150 1    
    57   28  151 1    
    58   28  152 1    
    59   28  153 1    
    60   29   30 am   BACKBONE|DICT|INTERRES
    61   29  154 1    
    62   30   31 2    
    63   30   32 1    
    64   32   33 1    
    65   32   34 1    
    66   32  155 1    
    67   33  156 1    
    68   33  157 1    
    69   33  158 1    
    70   34   35 am   BACKBONE|DICT|INTERRES
    71   34  159 1    
    72   35   36 2    
    73   35   37 1    
    74   37   38 1    
    75   37   39 1    
    76   37  160 1    
    77   38  161 1    
    78   38  162 1    
    79   38  163 1    
    80   39   40 am   BACKBONE|DICT|INTERRES
    81   39  164 1    
    82   40   41 2    
    83   40   42 1    
    84   42   43 1    
    85   42   44 1    
    86   42  165 1    
    87   43  166 1    
    88   43  167 1    
    89   43  168 1    
    90   44   45 am   BACKBONE|DICT|INTERRES
    91   44  169 1    
    92   45   46 2    
    93   45   47 1    
    94   47   48 1    
    95   47   49 1    
    96   47  170 1    
    97   48  171 1    
    98   48  172 1    
    99   48  173 1    
   100   49   50 am   BACKBONE|DICT|INTERRES
   101   49  174 1    
   102   50   51 2    
   103   50   52 1    
   104   52   53 1    
   105   52   54 1    
   106   52  175 1    
   107   53  176 1    
   108   53  177 1    
   109   53  178 1    
   110   54   55 am   BACKBONE|DICT|INTERRES
   111   54  179 1    
   112   55   56 2    
   113   55   57 1    
   114   57   58 1    
   115   57   59 1    
   116   57  180 1    
   117   58  181 1    
   118   58  182 1    
   119   58  183 1    
   120   59   60 am   BACKBONE|DICT|INTERRES
   121   59  184 1    
   122   60   61 2    
   123   60   62 1    
   124   62   63 1    
   125   62   64 1    
   126   62  185 1    
   127   63  186 1    
   128   63  187 1    
   129   63  188 1    
   130   64   65 am   BACKBONE|DICT|INTERRES
   131   64  189 1    
   132   65   66 2    
   133   67   68 2    
   134   67   69 am   BACKBONE|DICT|INTERRES
   135   69   70 1    
   136   69  190 1    
   137   70   71 1    
   138   70   72 1    
   139   70  191 1    
   140   71  192 1    
   141   71  193 1    
   142   71  194 1    
   143   72   73 2    
   144   72   74 am   BACKBONE|DICT|INTERRES
   145   74   75 1    
   146   74  195 1    
   147   75   76 1    
   148   75   77 1    
   149   75  196 1    
   150   76  197 1    
   151   76  198 1    
   152   76  199 1    
   153   77   78 2    
   154   77   79 am   BACKBONE|DICT|INTERRES
   155   79   80 1    
   156   79  200 1    
   157   80   81 1    
   158   80   82 1    
   159   80  201 1    
   160   81  202 1    
   161   81  203 1    
   162   81  204 1    
   163   82   83 2    
   164   82   84 am   BACKBONE|DICT|INTERRES
   165   84   85 1    
   166   84  205 1    
   167   85   86 1    
   168   85   87 1    
   169   85  206 1    
   170   86  207 1    
   171   86  208 1    
   172   86  209 1    
   173   87   88 2    
   174   87   89 am   BACKBONE|DICT|INTERRES
   175   89   90 1    
   176   89  210 1    
   177   90   91 1    
   178   90   92 1    
   179   90  211 1    
   180   91  212 1    
   181   91  213 1    
   182   91  214 1    
   183   92   93 2    
   184   92   94 am   BACKBONE|DICT|INTERRES
   185   94   95 1    
   186   94  215 1    
   187   95   96 1    
   188   95   97 1    
   189   95  216 1    
   190   96  217 1    
   191   96  218 1    
   192   96  219 1    
   193   97   98 2    
   194   97   99 am   BACKBONE|DICT|INTERRES
   195   99  100 1    
   196   99  220 1    
   197  100  101 1    
   198  100  102 1    
   199  100  221 1    
   200  101  222 1    
   201  101  223 1    
   202  101  224 1    
   203  102  103 2    
   204  102  104 am   BACKBONE|DICT|INTERRES
   205  104  105 1    
   206  104  225 1    
   207  105  106 1    
   208  105  107 1    
   209  105  226 1    
   210  106  227 1    
   211  106  228 1    
   212  106  229 1    
   213  107  108 2    
   214  107  109 am   BACKBONE|DICT|INTERRES
   215  109  110 1    
   216  109  230 1    
   217  110  111 1    
   218  110  112 1    
   219  110  231 1    
   220  111  232 1    
   221  111  233 1    
   222  111  234 1    
   223  112  113 2    
   224  112  114 am   BACKBONE|DICT|INTERRES
   225  114  115 1    
   226  114  235 1    
   227  115  116 1    
   228  115  117 1    
   229  115  236 1    
   230  116  237 1    
   231  116  238 1    
   232  116  239 1    
   233  117  118 2    
   234  117  119 am   BACKBONE|DICT|INTERRES
   235  119  120 1    
   236  119  240 1    
   237  120  121 1    
   238  120  124 1    
   239  120  241 1    
   240  121  122 am   BACKBONE|DICT|INTERRES
   241  121  123 2    
   242  122  242 1    
   243  122  243 1    
   244  124  125 1    
   245  124  244 1    
   246  124  245 1    
   247  125  126 1    
   248  126  246 1    
   249  126  247 1    
@<TRIPOS>SUBSTRUCTURE
     1 UNK         1 GROUP             0       ****    0 ROOT    
