@<TRIPOS>MOLECULE
3R540
247   249    1
SMALL
USER_CHARGES


@<TRIPOS>ATOM
      1 CA         -1.5967   -8.6419  -47.6532 C.3       0 UNK        -0.1800 
      2 C          -1.0885   -9.9236  -48.2990 C.2       0 UNK         0.5000 
      3 O          -0.0786   -9.8959  -49.0026 O.2       0 UNK        -0.5000 
      4 N          -1.7897  -11.0407  -48.0725 N.am      1 UNK        -0.5000 
      5 CA         -1.4020  -12.3761  -48.5313 C.3       1 UNK         0.1400 
      6 C6         -2.6261  -13.3234  -48.5764 C.3       23 UNK        -0.0398 
      7 S7         -2.3631  -14.7750  -49.6502 S.3       23 UNK        -0.2404 
      8 C8         -2.2689  -16.0920  -48.4028 C.3       23 UNK        -0.0205 
      9 C9         -2.0061  -17.4445  -49.0404 C.ar      23 UNK        -0.0193 
     10 C10        -3.0696  -18.2691  -49.4186 C.ar      23 UNK        -0.1150 
     11 C11        -2.8267  -19.5115  -50.0127 C.ar      23 UNK        -0.0193 
     12 C12        -1.5081  -19.9298  -50.2143 C.ar      23 UNK        -0.1150 
     13 C13        -0.4371  -19.1054  -49.8567 C.ar      23 UNK        -0.0193 
     14 C14        -0.6942  -17.8672  -49.2633 C.ar      23 UNK        -0.1150 
     15 C15         0.9997  -19.5209  -50.1428 C.3       23 UNK        -0.0205 
     16 S16         1.4770  -21.0833  -49.3411 S.3       23 UNK        -0.2404 
     17 C17         1.1451  -20.7340  -47.5784 C.3       23 UNK        -0.0398 
     18 CA          0.7296  -22.0042  -46.8028 C.3       11 UNK         0.1400 
     19 N           0.7818  -21.8047  -45.3553 N.am      11 UNK        -0.5000 
     20 C           0.7136  -22.7937  -44.4541 C.2       10 UNK         0.5000 
     21 O           0.6296  -23.9855  -44.7526 O.2       10 UNK        -0.5000 
     22 CA          0.6949  -22.3794  -42.9722 C.3       10 UNK         0.1400 
     23 CB          2.1098  -22.0352  -42.4836 C.3       10 UNK        -0.1800 
     24 N          -0.2056  -21.2551  -42.7121 N.am      10 UNK        -0.5000 
     25 C          -1.5336  -21.2936  -42.8954 C.2       9 UNK         0.5000 
     26 O          -2.1422  -22.2931  -43.2755 O.2       9 UNK        -0.5000 
     27 CA         -2.3111  -19.9886  -42.6526 C.3       9 UNK         0.1400 
     28 CB         -2.5271  -19.7520  -41.1505 C.3       9 UNK        -0.1800 
     29 N          -1.6629  -18.8205  -43.2479 N.am      9 UNK        -0.5000 
     30 C          -1.4372  -18.6596  -44.5599 C.2       8 UNK         0.5000 
     31 O          -1.7638  -19.4745  -45.4207 O.2       8 UNK        -0.5000 
     32 CA         -0.6657  -17.3977  -44.9750 C.3       8 UNK         0.1400 
     33 CB         -1.5637  -16.1548  -44.8738 C.3       8 UNK        -0.1800 
     34 N           0.5435  -17.2041  -44.1759 N.am      8 UNK        -0.5000 
     35 C           1.5637  -18.0718  -44.1047 C.2       7 UNK         0.5000 
     36 O           1.6315  -19.1104  -44.7610 O.2       7 UNK        -0.5000 
     37 CA          2.6683  -17.7509  -43.0846 C.3       7 UNK         0.1400 
     38 CB          3.6805  -16.7480  -43.6610 C.3       7 UNK        -0.1800 
     39 N           2.1154  -17.2383  -41.8303 N.am      7 UNK        -0.5000 
     40 C           1.3970  -17.9708  -40.9662 C.2       6 UNK         0.5000 
     41 O           1.1557  -19.1681  -41.1187 O.2       6 UNK        -0.5000 
     42 CA          0.8164  -17.2284  -39.7488 C.3       6 UNK         0.1400 
     43 CB          1.8745  -17.0852  -38.6446 C.3       6 UNK        -0.1800 
     44 N           0.2965  -15.9057  -40.0983 N.am      6 UNK        -0.5000 
     45 C          -0.7751  -15.6965  -40.8764 C.2       5 UNK         0.5000 
     46 O          -1.4704  -16.6017  -41.3362 O.2       5 UNK        -0.5000 
     47 CA         -1.0926  -14.2324  -41.2412 C.3       5 UNK         0.1400 
     48 CB         -2.0098  -13.6006  -40.1837 C.3       5 UNK        -0.1800 
     49 N           0.1038  -13.3997  -41.4081 N.am      5 UNK        -0.5000 
     50 C           1.0608  -13.6206  -42.3185 C.2       4 UNK         0.5000 
     51 O           1.0385  -14.5596  -43.1197 O.2       4 UNK        -0.5000 
     52 CA          2.2715  -12.6784  -42.2866 C.3       4 UNK         0.1400 
     53 CB          3.1549  -12.9823  -41.0596 C.3       4 UNK        -0.1800 
     54 N           3.0312  -12.8784  -43.5146 N.am      4 UNK        -0.5000 
     55 C           4.0195  -12.1092  -43.9830 C.2       3 UNK         0.5000 
     56 O           4.4075  -11.0793  -43.4299 O.2       3 UNK        -0.5000 
     57 CA          4.7011  -12.5733  -45.2858 C.3       3 UNK         0.1400 
     58 CB          5.9804  -13.3615  -44.9632 C.3       3 UNK        -0.1800 
     59 N           3.8345  -13.4059  -46.1244 N.am      3 UNK        -0.5000 
     60 C           2.8249  -12.9385  -46.8706 C.2       2 UNK         0.5000 
     61 O           2.5657  -11.7374  -46.9761 O.2       2 UNK        -0.5000 
     62 CA          2.0090  -13.9949  -47.6522 C.3       2 UNK         0.1400 
     63 CB          1.6917  -15.2400  -46.7961 C.3       2 UNK        -0.1800 
     64 N           0.7840  -13.4581  -48.2603 N.am      2 UNK        -0.5000 
     65 C          -0.2749  -12.9264  -47.6310 C.2       1 UNK         0.5000 
     66 O          -0.4005  -12.8650  -46.4054 O.2       1 UNK        -0.5000 
     67 C          -0.6380  -22.5601  -47.2523 C.2       11 UNK         0.5000 
     68 O          -0.6658  -23.5372  -47.9975 O.2       11 UNK        -0.5000 
     69 N          -1.7400  -21.9878  -46.7469 N.am      12 UNK        -0.5000 
     70 CA         -3.1025  -22.4421  -47.0315 C.3       12 UNK         0.1400 
     71 CB         -4.1119  -21.4229  -46.4851 C.3       12 UNK        -0.1800 
     72 C          -3.4061  -23.8559  -46.4996 C.2       12 UNK         0.5000 
     73 O          -4.1884  -24.5748  -47.1189 O.2       12 UNK        -0.5000 
     74 N          -2.7777  -24.2468  -45.3826 N.am      13 UNK        -0.5000 
     75 CA         -2.8364  -25.6077  -44.8492 C.3       13 UNK         0.1400 
     76 CB         -2.3133  -25.6211  -43.4047 C.3       13 UNK        -0.1800 
     77 C          -2.0617  -26.6133  -45.7229 C.2       13 UNK         0.5000 
     78 O          -2.5212  -27.7432  -45.8957 O.2       13 UNK        -0.5000 
     79 N          -0.9079  -26.1890  -46.2574 N.am      14 UNK        -0.5000 
     80 CA         -0.0571  -26.9902  -47.1369 C.3       14 UNK         0.1400 
     81 CB          1.3497  -26.3728  -47.1868 C.3       14 UNK        -0.1800 
     82 C          -0.6386  -27.1438  -48.5553 C.2       14 UNK         0.5000 
     83 O          -0.6199  -28.2485  -49.1003 O.2       14 UNK        -0.5000 
     84 N          -1.1383  -26.0425  -49.1257 N.am      15 UNK        -0.5000 
     85 CA         -1.6885  -25.9595  -50.4726 C.3       15 UNK         0.1400 
     86 CB         -0.5821  -25.5324  -51.4528 C.3       15 UNK        -0.1800 
     87 C          -2.8650  -24.9748  -50.4578 C.2       15 UNK         0.5000 
     88 O          -2.6622  -23.7638  -50.5425 O.2       15 UNK        -0.5000 
     89 N          -4.0808  -25.5179  -50.3300 N.am      16 UNK        -0.5000 
     90 CA         -5.3306  -24.7597  -50.2156 C.3       16 UNK         0.1400 
     91 CB         -6.3957  -25.6753  -49.5889 C.3       16 UNK        -0.1800 
     92 C          -5.8442  -24.1682  -51.5446 C.2       16 UNK         0.5000 
     93 O          -6.8302  -23.4298  -51.5261 O.2       16 UNK        -0.5000 
     94 N          -5.2025  -24.5119  -52.6665 N.am      17 UNK        -0.5000 
     95 CA         -5.5413  -24.0553  -54.0085 C.3       17 UNK         0.1400 
     96 CB         -6.2655  -25.1875  -54.7549 C.3       17 UNK        -0.1800 
     97 C          -4.2581  -23.6577  -54.7481 C.2       17 UNK         0.5000 
     98 O          -3.2014  -24.2422  -54.4938 O.2       17 UNK        -0.5000 
     99 N          -4.3906  -22.7017  -55.6769 N.am      18 UNK        -0.5000 
    100 CA        -3.4245  -22.2506  -56.6878 C.3       18 UNK         0.1400 
    101 CB        -3.0339  -23.4060  -57.6294 C.3       18 UNK        -0.1800 
    102 C         -2.1664  -21.5262  -56.1676 C.2       18 UNK         0.5000 
    103 O         -1.7064  -20.6015  -56.8386 O.2       18 UNK        -0.5000 
    104 N         -1.6407  -21.9291  -55.0037 N.am      19 UNK        -0.5000 
    105 CA        -0.3720  -21.4841  -54.4103 C.3       19 UNK         0.1400 
    106 CB        -0.1630  -22.2191  -53.0795 C.3       19 UNK        -0.1800 
    107 C         -0.2086  -19.9581  -54.2458 C.2       19 UNK         0.5000 
    108 O          0.9029  -19.4491  -54.3990 O.2       19 UNK        -0.5000 
    109 N         -1.3188  -19.2568  -54.0011 N.am      20 UNK        -0.5000 
    110 CA        -1.4397  -17.8035  -54.1089 C.3       20 UNK         0.1400 
    111 CB        -1.1880  -17.1453  -52.7414 C.3       20 UNK        -0.1800 
    112 C         -2.8234  -17.4774  -54.6955 C.2       20 UNK         0.5000 
    113 O         -3.5310  -16.6112  -54.1773 O.2       20 UNK        -0.5000 
    114 N         -3.2158  -18.2449  -55.7263 N.am      21 UNK        -0.5000 
    115 CA        -4.5528  -18.3737  -56.3245 C.3       21 UNK         0.1400 
    116 CB        -5.0812  -17.0368  -56.8799 C.3       21 UNK        -0.1800 
    117 C         -5.5588  -19.0420  -55.3664 C.2       21 UNK         0.5000 
    118 O         -6.1218  -20.0842  -55.7073 O.2       21 UNK        -0.5000 
    119 N         -5.7072  -18.4609  -54.1696 N.am      22 UNK        -0.5000 
    120 CA        -6.4560  -18.9751  -53.0092 C.3       22 UNK         0.1400 
    121 C         -8.0091  -18.9356  -53.1582 C.2       22 UNK         0.5000 
    122 N         -8.5639  -18.2584  -54.1570 N.am      22 UNK        -0.7600 
    123 O         -8.7295  -19.4969  -52.3372 O.2       22 UNK        -0.5000 
    124 C124       -5.9433  -20.3601  -52.5176 C.3       23 UNK        -0.0398 
    125 S125       -4.1305  -20.4213  -52.2703 S.3       23 UNK        -0.2404 
    126 C126       -3.9864  -20.3903  -50.4549 C.3       23 UNK        -0.0205 
    127 H127       -2.5035   -8.8119  -47.0721 H         1 UNK         0.0600 
    128 H128       -1.8181   -7.8979  -48.4185 H         1 UNK         0.0600 
    129 H129       -0.8379   -8.2319  -46.9867 H         1 UNK         0.0600 
    130 H130       -2.5878  -11.0044  -47.4547 H         1 UNK         0.3000 
    131 H131       -1.0202  -12.2736  -49.5499 H         1 UNK         0.0600 
    132 H132       -3.4844  -12.7915  -48.9897 H         1 UNK         0.0800 
    133 H133       -2.9277  -13.6321  -47.5735 H         1 UNK         0.0800 
    134 H134       -3.1980  -16.1224  -47.8319 H         1 UNK         0.0800 
    135 H135       -1.4716  -15.8555  -47.6983 H         1 UNK         0.0800 
    136 H136       -4.0857  -17.9357  -49.2625 H         1 UNK         0.1150 
    137 H137       -1.3178  -20.8918  -50.6648 H         1 UNK         0.1150 
    138 H138        0.1274  -17.2204  -48.9939 H         1 UNK         0.1150 
    139 H139        1.1242  -19.6256  -51.2214 H         1 UNK         0.0800 
    140 H140        1.6982  -18.7435  -49.8295 H         1 UNK         0.0800 
    141 H141        0.3887  -19.9566  -47.4638 H         1 UNK         0.0800 
    142 H142        2.0628  -20.3239  -47.1550 H         1 UNK         0.0800 
    143 H143        1.4717  -22.7736  -47.0285 H         1 UNK         0.0600 
    144 H144        0.8820  -20.8453  -45.0331 H         1 UNK         0.3000 
    145 H145        0.3356  -23.2337  -42.3947 H         1 UNK         0.0600 
    146 H146        2.1169  -21.8285  -41.4133 H         1 UNK         0.0600 
    147 H147        2.5110  -21.1600  -42.9954 H         1 UNK         0.0600 
    148 H148        2.7967  -22.8639  -42.6596 H         1 UNK         0.0600 
    149 H149        0.2190  -20.4041  -42.3558 H         1 UNK         0.3000 
    150 H150       -3.2908  -20.0964  -43.1227 H         1 UNK         0.0600 
    151 H151       -3.0175  -20.6085  -40.6861 H         1 UNK         0.0600 
    152 H152       -3.1594  -18.8812  -40.9765 H         1 UNK         0.0600 
    153 H153       -1.5839  -19.5889  -40.6282 H         1 UNK         0.0600 
    154 H154       -1.3905  -18.0794  -42.6085 H         1 UNK         0.3000 
    155 H155       -0.3628  -17.5214  -46.0165 H         1 UNK         0.0600 
    156 H156       -2.4731  -16.2806  -45.4611 H         1 UNK         0.0600 
    157 H157       -1.0556  -15.2639  -45.2404 H         1 UNK         0.0600 
    158 H158       -1.8719  -15.9603  -43.8484 H         1 UNK         0.0600 
    159 H159        0.6006  -16.3452  -43.6358 H         1 UNK         0.3000 
    160 H160        3.2005  -18.6790  -42.8655 H         1 UNK         0.0600 
    161 H161        3.2117  -15.8011  -43.9239 H         1 UNK         0.0600 
    162 H162        4.1449  -17.1436  -44.5651 H         1 UNK         0.0600 
    163 H163        4.4799  -16.5401  -42.9496 H         1 UNK         0.0600 
    164 H164        2.2163  -16.2493  -41.6605 H         1 UNK         0.3000 
    165 H165       -0.0088  -17.8264  -39.3560 H         1 UNK         0.0600 
    166 H166        1.4505  -16.6293  -37.7496 H         1 UNK         0.0600 
    167 H167        2.2700  -18.0598  -38.3553 H         1 UNK         0.0600 
    168 H168        2.7165  -16.4716  -38.9675 H         1 UNK         0.0600 
    169 H169        0.8076  -15.1058  -39.7562 H         1 UNK         0.3000 
    170 H170       -1.6262  -14.2379  -42.1935 H         1 UNK         0.0600 
    171 H171       -1.5197  -13.5354  -39.2115 H         1 UNK         0.0600 
    172 H172       -2.3144  -12.5953  -40.4752 H         1 UNK         0.0600 
    173 H173       -2.9192  -14.1893  -40.0544 H         1 UNK         0.0600 
    174 H174        0.1958  -12.6145  -40.7795 H         1 UNK         0.3000 
    175 H175        1.9135  -11.6478  -42.2491 H         1 UNK         0.0600 
    176 H176        3.5406  -14.0023  -41.0864 H         1 UNK         0.0600 
    177 H177        4.0081  -12.3065  -41.0036 H         1 UNK         0.0600 
    178 H178        2.5973  -12.8650  -40.1298 H         1 UNK         0.0600 
    179 H179        2.7206  -13.6760  -44.0542 H         1 UNK         0.3000 
    180 H180        4.9833  -11.6813  -45.8491 H         1 UNK         0.0600 
    181 H181        6.5112  -13.6428  -45.8729 H         1 UNK         0.0600 
    182 H182        5.7626  -14.2729  -44.4047 H         1 UNK         0.0600 
    183 H183        6.6659  -12.7638  -44.3606 H         1 UNK         0.0600 
    184 H184        4.0169  -14.3984  -46.1136 H         1 UNK         0.3000 
    185 H185        2.6373  -14.3145  -48.4848 H         1 UNK         0.0600 
    186 H186        1.2271  -14.9653  -45.8494 H         1 UNK         0.0600 
    187 H187        1.0149  -15.9158  -47.3152 H         1 UNK         0.0600 
    188 H188        2.5917  -15.8105  -46.5665 H         1 UNK         0.0600 
    189 H189        0.7910  -13.4308  -49.2700 H         1 UNK         0.3000 
    190 H190       -1.6524  -21.1635  -46.1557 H         1 UNK         0.3000 
    191 H191       -3.2131  -22.4787  -48.1161 H         1 UNK         0.0600 
    192 H192       -3.9626  -20.4420  -46.9376 H         1 UNK         0.0600 
    193 H193       -4.0220  -21.3115  -45.4039 H         1 UNK         0.0600 
    194 H194       -5.1356  -21.7297  -46.7031 H         1 UNK         0.0600 
    195 H195       -2.2176  -23.5741  -44.8698 H         1 UNK         0.3000 
    196 H196       -3.8821  -25.9218  -44.8291 H         1 UNK         0.0600 
    197 H197       -2.9096  -24.9707  -42.7646 H         1 UNK         0.0600 
    198 H198       -1.2770  -25.2878  -43.3463 H         1 UNK         0.0600 
    199 H199       -2.3599  -26.6253  -42.9818 H         1 UNK         0.0600 
    200 H200       -0.5845  -25.2533  -46.0403 H         1 UNK         0.3000 
    201 H201        0.0336  -27.9892  -46.7051 H         1 UNK         0.0600 
    202 H202        1.7938  -26.3245  -46.1923 H         1 UNK         0.0600 
    203 H203        1.3340  -25.3614  -47.5938 H         1 UNK         0.0600 
    204 H204        2.0152  -26.9682  -47.8130 H         1 UNK         0.0600 
    205 H205       -1.0895  -25.1554  -48.6226 H         1 UNK         0.3000 
    206 H206       -2.0654  -26.9353  -50.7873 H         1 UNK         0.0600 
    207 H207       -0.1205  -24.5917  -51.1480 H         1 UNK         0.0600 
    208 H208        0.2040  -26.2853  -51.5132 H         1 UNK         0.0600 
    209 H209       -0.9840  -25.3968  -52.4580 H         1 UNK         0.0600 
    210 H210       -4.1618  -26.5213  -50.2516 H         1 UNK         0.3000 
    211 H211       -5.1639  -23.9181  -49.5401 H         1 UNK         0.0600 
    212 H212       -6.6143  -26.5333  -50.2262 H         1 UNK         0.0600 
    213 H213       -7.3315  -25.1378  -49.4287 H         1 UNK         0.0600 
    214 H214       -6.0713  -26.0505  -48.6179 H         1 UNK         0.0600 
    215 H215       -4.3546  -25.0584  -52.5995 H         1 UNK         0.3000 
    216 H216       -6.2042  -23.1914  -53.9685 H         1 UNK         0.0600 
    217 H217       -6.5339  -24.8813  -55.7669 H         1 UNK         0.0600 
    218 H218       -7.1876  -25.4675  -54.2450 H         1 UNK         0.0600 
    219 H219       -5.6426  -26.0798  -54.8351 H         1 UNK         0.0600 
    220 H220       -5.2870  -22.2334  -55.7403 H         1 UNK         0.3000 
    221 H221       -3.9670  -21.5194  -57.2890 H         1 UNK         0.0600 
    222 H222       -2.4066  -23.0474  -58.4466 H         1 UNK         0.0600 
    223 H223       -2.4748  -24.1846  -57.1092 H         1 UNK         0.0600 
    224 H224       -3.9156  -23.8667  -58.0757 H         1 UNK         0.0600 
    225 H225       -2.0948  -22.7200  -54.5547 H         1 UNK         0.3000 
    226 H226        0.4207  -21.8024  -55.0904 H         1 UNK         0.0600 
    227 H227        0.0497  -23.2730  -53.2553 H         1 UNK         0.0600 
    228 H228        0.6774  -21.8095  -52.5174 H         1 UNK         0.0600 
    229 H229       -1.0495  -22.1637  -52.4484 H         1 UNK         0.0600 
    230 H230       -2.1841  -19.7602  -53.8513 H         1 UNK         0.3000 
    231 H231       -0.7023  -17.4226  -54.8186 H         1 UNK         0.0600 
    232 H232       -0.2073  -17.4116  -52.3474 H         1 UNK         0.0600 
    233 H233       -1.9389  -17.4506  -52.0129 H         1 UNK         0.0600 
    234 H234       -1.2256  -16.0577  -52.8138 H         1 UNK         0.0600 
    235 H235       -2.5417  -18.9221  -56.0717 H         1 UNK         0.3000 
    236 H236       -4.4303  -19.0474  -57.1739 H         1 UNK         0.0600 
    237 H237       -5.2793  -16.3078  -56.0940 H         1 UNK         0.0600 
    238 H238       -4.3696  -16.5927  -57.5760 H         1 UNK         0.0600 
    239 H239       -6.0154  -17.1878  -57.4223 H         1 UNK         0.0600 
    240 H240       -5.1543  -17.6254  -53.9978 H         1 UNK         0.3000 
    241 H241       -6.2453  -18.2636  -52.2090 H         1 UNK         0.0600 
    242 H242       -9.5688  -18.2257  -54.2412 H         1 UNK         0.3800 
    243 H243       -7.9861  -17.7844  -54.8326 H         1 UNK         0.3800 
    244 H244       -6.2096  -21.1244  -53.2447 H         1 UNK         0.0800 
    245 H245       -6.4443  -20.6518  -51.5936 H         1 UNK         0.0800 
    246 H246       -4.9137  -20.0353  -50.0036 H         1 UNK         0.0800 
    247 H247       -3.8389  -21.4082  -50.0959 H         1 UNK         0.0800 
@<TRIPOS>BOND
     1    1    2 1    
     2    1  127 1    
     3    1  128 1    
     4    1  129 1    
     5    2    3 2    
     6    2    4 am   BACKBONE|DICT|INTERRES
     7    4    5 1    
     8    4  130 1    
     9    5    6 1    
    10    5   65 1    
    11    5  131 1    
    12    6    7 1    
    13    6  132 1    
    14    6  133 1    
    15    7    8 1    
    16    8    9 1    
    17    8  134 1    
    18    8  135 1    
    19    9   10 ar   
    20    9   14 ar   
    21   10   11 ar   
    22   10  136 1    
    23   11   12 ar   
    24   11  126 1    
    25   12   13 ar   
    26   12  137 1    
    27   13   14 ar   
    28   13   15 1    
    29   14  138 1    
    30   15   16 1    
    31   15  139 1    
    32   15  140 1    
    33   16   17 1    
    34   17   18 1    
    35   17  141 1    
    36   17  142 1    
    37   18   19 1    
    38   18   67 1    
    39   18  143 1    
    40   19   20 am   BACKBONE|DICT|INTERRES
    41   19  144 1    
    42   20   21 2    
    43   20   22 1    
    44   22   23 1    
    45   22   24 1    
    46   22  145 1    
    47   23  146 1    
    48   23  147 1    
    49   23  148 1    
    50   24   25 am   BACKBONE|DICT|INTERRES
    51   24  149 1    
    52   25   26 2    
    53   25   27 1    
    54   27   28 1    
    55   27   29 1    
    56   27  150 1    
    57   28  151 1    
    58   28  152 1    
    59   28  153 1    
    60   29   30 am   BACKBONE|DICT|INTERRES
    61   29  154 1    
    62   30   31 2    
    63   30   32 1    
    64   32   33 1    
    65   32   34 1    
    66   32  155 1    
    67   33  156 1    
    68   33  157 1    
    69   33  158 1    
    70   34   35 am   BACKBONE|DICT|INTERRES
    71   34  159 1    
    72   35   36 2    
    73   35   37 1    
    74   37   38 1    
    75   37   39 1    
    76   37  160 1    
    77   38  161 1    
    78   38  162 1    
    79   38  163 1    
    80   39   40 am   BACKBONE|DICT|INTERRES
    81   39  164 1    
    82   40   41 2    
    83   40   42 1    
    84   42   43 1    
    85   42   44 1    
    86   42  165 1    
    87   43  166 1    
    88   43  167 1    
    89   43  168 1    
    90   44   45 am   BACKBONE|DICT|INTERRES
    91   44  169 1    
    92   45   46 2    
    93   45   47 1    
    94   47   48 1    
    95   47   49 1    
    96   47  170 1    
    97   48  171 1    
    98   48  172 1    
    99   48  173 1    
   100   49   50 am   BACKBONE|DICT|INTERRES
   101   49  174 1    
   102   50   51 2    
   103   50   52 1    
   104   52   53 1    
   105   52   54 1    
   106   52  175 1    
   107   53  176 1    
   108   53  177 1    
   109   53  178 1    
   110   54   55 am   BACKBONE|DICT|INTERRES
   111   54  179 1    
   112   55   56 2    
   113   55   57 1    
   114   57   58 1    
   115   57   59 1    
   116   57  180 1    
   117   58  181 1    
   118   58  182 1    
   119   58  183 1    
   120   59   60 am   BACKBONE|DICT|INTERRES
   121   59  184 1    
   122   60   61 2    
   123   60   62 1    
   124   62   63 1    
   125   62   64 1    
   126   62  185 1    
   127   63  186 1    
   128   63  187 1    
   129   63  188 1    
   130   64   65 am   BACKBONE|DICT|INTERRES
   131   64  189 1    
   132   65   66 2    
   133   67   68 2    
   134   67   69 am   BACKBONE|DICT|INTERRES
   135   69   70 1    
   136   69  190 1    
   137   70   71 1    
   138   70   72 1    
   139   70  191 1    
   140   71  192 1    
   141   71  193 1    
   142   71  194 1    
   143   72   73 2    
   144   72   74 am   BACKBONE|DICT|INTERRES
   145   74   75 1    
   146   74  195 1    
   147   75   76 1    
   148   75   77 1    
   149   75  196 1    
   150   76  197 1    
   151   76  198 1    
   152   76  199 1    
   153   77   78 2    
   154   77   79 am   BACKBONE|DICT|INTERRES
   155   79   80 1    
   156   79  200 1    
   157   80   81 1    
   158   80   82 1    
   159   80  201 1    
   160   81  202 1    
   161   81  203 1    
   162   81  204 1    
   163   82   83 2    
   164   82   84 am   BACKBONE|DICT|INTERRES
   165   84   85 1    
   166   84  205 1    
   167   85   86 1    
   168   85   87 1    
   169   85  206 1    
   170   86  207 1    
   171   86  208 1    
   172   86  209 1    
   173   87   88 2    
   174   87   89 am   BACKBONE|DICT|INTERRES
   175   89   90 1    
   176   89  210 1    
   177   90   91 1    
   178   90   92 1    
   179   90  211 1    
   180   91  212 1    
   181   91  213 1    
   182   91  214 1    
   183   92   93 2    
   184   92   94 am   BACKBONE|DICT|INTERRES
   185   94   95 1    
   186   94  215 1    
   187   95   96 1    
   188   95   97 1    
   189   95  216 1    
   190   96  217 1    
   191   96  218 1    
   192   96  219 1    
   193   97   98 2    
   194   97   99 am   BACKBONE|DICT|INTERRES
   195   99  100 1    
   196   99  220 1    
   197  100  101 1    
   198  100  102 1    
   199  100  221 1    
   200  101  222 1    
   201  101  223 1    
   202  101  224 1    
   203  102  103 2    
   204  102  104 am   BACKBONE|DICT|INTERRES
   205  104  105 1    
   206  104  225 1    
   207  105  106 1    
   208  105  107 1    
   209  105  226 1    
   210  106  227 1    
   211  106  228 1    
   212  106  229 1    
   213  107  108 2    
   214  107  109 am   BACKBONE|DICT|INTERRES
   215  109  110 1    
   216  109  230 1    
   217  110  111 1    
   218  110  112 1    
   219  110  231 1    
   220  111  232 1    
   221  111  233 1    
   222  111  234 1    
   223  112  113 2    
   224  112  114 am   BACKBONE|DICT|INTERRES
   225  114  115 1    
   226  114  235 1    
   227  115  116 1    
   228  115  117 1    
   229  115  236 1    
   230  116  237 1    
   231  116  238 1    
   232  116  239 1    
   233  117  118 2    
   234  117  119 am   BACKBONE|DICT|INTERRES
   235  119  120 1    
   236  119  240 1    
   237  120  121 1    
   238  120  124 1    
   239  120  241 1    
   240  121  122 am   BACKBONE|DICT|INTERRES
   241  121  123 2    
   242  122  242 1    
   243  122  243 1    
   244  124  125 1    
   245  124  244 1    
   246  124  245 1    
   247  125  126 1    
   248  126  246 1    
   249  126  247 1    
@<TRIPOS>SUBSTRUCTURE
     1 UNK         1 GROUP             0       ****    0 ROOT    
