@<TRIPOS>MOLECULE
3R540
247   249    1
SMALL
USER_CHARGES


@<TRIPOS>ATOM
      1 CA         -4.2373  -12.2877  -50.3253 C.3       0 UNK        -0.1800 
      2 C          -2.8353  -12.3014  -49.7321 C.2       0 UNK         0.5000 
      3 O          -2.1607  -11.2711  -49.7306 O.2       0 UNK        -0.5000 
      4 N          -2.3934  -13.4641  -49.2370 N.am      1 UNK        -0.5000 
      5 CA         -1.1049  -13.6508  -48.5635 C.3       1 UNK         0.1400 
      6 C6         -0.7105  -15.1489  -48.5222 C.3       23 UNK        -0.0398 
      7 S7          1.0977  -15.3906  -48.4548 S.3       23 UNK        -0.2404 
      8 C8          1.5236  -15.6754  -50.2019 C.3       23 UNK        -0.0205 
      9 C9          0.9904  -17.0035  -50.7186 C.ar      23 UNK        -0.0193 
     10 C10        -0.0471  -17.0297  -51.6540 C.ar      23 UNK        -0.1150 
     11 C11        -0.5337  -18.2445  -52.1437 C.ar      23 UNK        -0.0193 
     12 C12         0.0170  -19.4426  -51.6780 C.ar      23 UNK        -0.1150 
     13 C13         1.0530  -19.4318  -50.7365 C.ar      23 UNK        -0.0193 
     14 C14         1.5429  -18.2070  -50.2717 C.ar      23 UNK        -0.1150 
     15 C15         1.6515  -20.7447  -50.2415 C.3       23 UNK        -0.0205 
     16 S16         1.6765  -20.9018  -48.4215 S.3       23 UNK        -0.2404 
     17 C17        -0.0725  -20.6488  -47.9747 C.3       23 UNK        -0.0398 
     18 CA         -0.6367  -21.7407  -47.0315 C.3       11 UNK         0.1400 
     19 N           0.0414  -21.8244  -45.7332 N.am      11 UNK        -0.5000 
     20 C          -0.1759  -22.8014  -44.8375 C.2       10 UNK         0.5000 
     21 O          -0.8699  -23.7928  -45.0644 O.2       10 UNK        -0.5000 
     22 CA          0.4312  -22.6242  -43.4329 C.3       10 UNK         0.1400 
     23 CB          1.8765  -23.1411  -43.3818 C.3       10 UNK        -0.1800 
     24 N           0.3755  -21.2404  -42.9594 N.am      10 UNK        -0.5000 
     25 C          -0.7598  -20.5658  -42.7223 C.2       9 UNK         0.5000 
     26 O          -1.8826  -21.0567  -42.8322 O.2       9 UNK        -0.5000 
     27 CA         -0.6222  -19.0796  -42.3478 C.3       9 UNK         0.1400 
     28 CB         -0.2956  -18.9286  -40.8550 C.3       9 UNK        -0.1800 
     29 N           0.3904  -18.3956  -43.1514 N.am      9 UNK        -0.5000 
     30 C           0.3423  -18.2525  -44.4836 C.2       8 UNK         0.5000 
     31 O          -0.6079  -18.6146  -45.1762 O.2       8 UNK        -0.5000 
     32 CA          1.5840  -17.6498  -45.1614 C.3       8 UNK         0.1400 
     33 CB          1.5568  -16.1223  -45.0869 C.3       8 UNK        -0.1800 
     34 N           2.8273  -18.1297  -44.5639 N.am      8 UNK        -0.5000 
     35 C           3.2725  -19.3889  -44.6522 C.2       7 UNK         0.5000 
     36 O           2.6888  -20.2789  -45.2679 O.2       7 UNK        -0.5000 
     37 CA          4.5614  -19.7105  -43.8757 C.3       7 UNK         0.1400 
     38 CB          5.8002  -19.2547  -44.6612 C.3       7 UNK        -0.1800 
     39 N           4.5720  -19.0968  -42.5458 N.am      7 UNK        -0.5000 
     40 C           3.7485  -19.4540  -41.5506 C.2       6 UNK         0.5000 
     41 O           2.9180  -20.3577  -41.6445 O.2       6 UNK        -0.5000 
     42 CA          3.8440  -18.6438  -40.2441 C.3       6 UNK         0.1400 
     43 CB          4.9532  -19.2050  -39.3419 C.3       6 UNK        -0.1800 
     44 N           4.0612  -17.2069  -40.4457 N.am      6 UNK        -0.5000 
     45 C           3.2087  -16.3902  -41.0784 C.2       5 UNK         0.5000 
     46 O           2.1910  -16.7800  -41.6531 O.2       5 UNK        -0.5000 
     47 CA          3.5695  -14.8954  -41.1063 C.3       5 UNK         0.1400 
     48 CB          4.2925  -14.5417  -42.4149 C.3       5 UNK        -0.1800 
     49 N           2.3648  -14.0755  -40.9882 N.am      5 UNK        -0.5000 
     50 C           1.7062  -13.8541  -39.8400 C.2       4 UNK         0.5000 
     51 O           2.1151  -14.2257  -38.7389 O.2       4 UNK        -0.5000 
     52 CA          0.3626  -13.0983  -39.9288 C.3       4 UNK         0.1400 
     53 CB          0.5787  -11.5891  -39.7398 C.3       4 UNK        -0.1800 
     54 N          -0.3167  -13.3252  -41.2033 N.am      4 UNK        -0.5000 
     55 C          -0.8766  -14.4845  -41.5689 C.2       3 UNK         0.5000 
     56 O          -1.0916  -15.4013  -40.7766 O.2       3 UNK        -0.5000 
     57 CA         -1.2443  -14.6760  -43.0587 C.3       3 UNK         0.1400 
     58 CB         -2.7246  -15.0580  -43.2219 C.3       3 UNK        -0.1800 
     59 N          -0.9493  -13.5618  -43.9728 N.am      3 UNK        -0.5000 
     60 C           0.2336  -12.9851  -44.2259 C.2       2 UNK         0.5000 
     61 O           1.2671  -13.2476  -43.6096 O.2       2 UNK        -0.5000 
     62 CA          0.2544  -11.9506  -45.3697 C.3       2 UNK         0.1400 
     63 CB          1.5708  -11.1541  -45.4145 C.3       2 UNK        -0.1800 
     64 N           0.0463  -12.5810  -46.6749 N.am      2 UNK        -0.5000 
     65 C          -1.1253  -13.0184  -47.1529 C.2       1 UNK         0.5000 
     66 O          -2.1838  -12.9511  -46.5204 O.2       1 UNK        -0.5000 
     67 C          -2.1507  -21.5339  -46.8376 C.2       11 UNK         0.5000 
     68 O          -2.9366  -22.3076  -47.3828 O.2       11 UNK        -0.5000 
     69 N          -2.5365  -20.5112  -46.0600 N.am      12 UNK        -0.5000 
     70 CA         -3.9258  -20.1243  -45.7941 C.3       12 UNK         0.1400 
     71 CB         -3.9532  -18.8789  -44.8956 C.3       12 UNK        -0.1800 
     72 C          -4.7776  -21.2564  -45.1907 C.2       12 UNK         0.5000 
     73 O          -5.9007  -21.4769  -45.6456 O.2       12 UNK        -0.5000 
     74 N          -4.2011  -21.9980  -44.2350 N.am      13 UNK        -0.5000 
     75 CA         -4.7923  -23.1851  -43.6101 C.3       13 UNK         0.1400 
     76 CB         -3.8909  -23.6384  -42.4518 C.3       13 UNK        -0.1800 
     77 C          -5.0335  -24.3547  -44.5873 C.2       13 UNK         0.5000 
     78 O          -5.8997  -25.1902  -44.3272 O.2       13 UNK        -0.5000 
     79 N          -4.2860  -24.3810  -45.6970 N.am      14 UNK        -0.5000 
     80 CA         -4.3933  -25.3510  -46.7840 C.3       14 UNK         0.1400 
     81 CB         -2.9733  -25.8034  -47.1694 C.3       14 UNK        -0.1800 
     82 C          -5.1658  -24.7751  -47.9903 C.2       14 UNK         0.5000 
     83 O          -4.9688  -25.2451  -49.1112 O.2       14 UNK        -0.5000 
     84 N          -6.0145  -23.7602  -47.7575 N.am      15 UNK        -0.5000 
     85 CA         -6.8377  -23.0495  -48.7450 C.3       15 UNK         0.1400 
     86 CB         -7.9013  -23.9865  -49.3556 C.3       15 UNK        -0.1800 
     87 C          -5.9778  -22.3368  -49.8076 C.2       15 UNK         0.5000 
     88 O          -6.1759  -22.5278  -51.0094 O.2       15 UNK        -0.5000 
     89 N          -4.9965  -21.5643  -49.3210 N.am      16 UNK        -0.5000 
     90 CA         -3.9447  -20.8814  -50.0830 C.3       16 UNK         0.1400 
     91 CB         -4.5406  -19.7718  -50.9719 C.3       16 UNK        -0.1800 
     92 C          -3.0536  -21.8821  -50.8492 C.2       16 UNK         0.5000 
     93 O          -2.7009  -21.6366  -52.0000 O.2       16 UNK        -0.5000 
     94 N          -2.7411  -23.0062  -50.1845 N.am      17 UNK        -0.5000 
     95 CA         -2.0482  -24.1932  -50.6973 C.3       17 UNK         0.1400 
     96 CB         -0.5510  -23.8991  -50.9048 C.3       17 UNK        -0.1800 
     97 C          -2.7438  -24.7811  -51.9431 C.2       17 UNK         0.5000 
     98 O          -2.1078  -24.9773  -52.9804 O.2       17 UNK        -0.5000 
     99 N          -4.0566  -25.0220  -51.8040 N.am      18 UNK        -0.5000 
    100 CA        -5.0052  -25.4402  -52.8402 C.3       18 UNK         0.1400 
    101 CB        -4.7291  -26.8935  -53.2772 C.3       18 UNK        -0.1800 
    102 C         -5.0365  -24.4440  -54.0174 C.2       18 UNK         0.5000 
    103 O         -4.8131  -24.8268  -55.1675 O.2       18 UNK        -0.5000 
    104 N         -5.2520  -23.1639  -53.6852 N.am      19 UNK        -0.5000 
    105 CA        -5.2397  -21.9659  -54.5360 C.3       19 UNK         0.1400 
    106 CB        -6.3027  -22.0518  -55.6476 C.3       19 UNK        -0.1800 
    107 C         -3.8628  -21.5795  -55.1174 C.2       19 UNK         0.5000 
    108 O         -3.6154  -20.3879  -55.3010 O.2       19 UNK        -0.5000 
    109 N         -3.0093  -22.5687  -55.4227 N.am      20 UNK        -0.5000 
    110 CA        -1.6168  -22.4651  -55.8862 C.3       20 UNK         0.1400 
    111 CB        -0.7167  -21.9650  -54.7404 C.3       20 UNK        -0.1800 
    112 C         -1.4171  -21.6388  -57.1772 C.2       20 UNK         0.5000 
    113 O         -0.3085  -21.1674  -57.4360 O.2       20 UNK        -0.5000 
    114 N         -2.4964  -21.4703  -57.9558 N.am      21 UNK        -0.5000 
    115 CA        -2.6230  -20.6027  -59.1318 C.3       21 UNK         0.1400 
    116 CB        -1.7247  -21.0981  -60.2851 C.3       21 UNK        -0.1800 
    117 C         -2.4307  -19.0986  -58.8218 C.2       21 UNK         0.5000 
    118 O         -2.1043  -18.3299  -59.7287 O.2       21 UNK        -0.5000 
    119 N         -2.6474  -18.6946  -57.5615 N.am      22 UNK        -0.5000 
    120 CA        -2.6306  -17.2936  -57.1166 C.3       22 UNK         0.1400 
    121 C         -3.8202  -16.4772  -57.6967 C.2       22 UNK         0.5000 
    122 N         -3.6144  -15.2031  -58.0022 N.am      22 UNK        -0.7600 
    123 O         -4.9368  -16.9733  -57.8341 O.2       22 UNK        -0.5000 
    124 C124       -2.6098  -17.1825  -55.5715 C.3       23 UNK        -0.0398 
    125 S125       -1.0693  -17.8194  -54.8289 S.3       23 UNK        -0.2404 
    126 C126       -1.6636  -18.2470  -53.1625 C.3       23 UNK        -0.0205 
    127 H127       -4.1991  -11.9855  -51.3719 H         1 UNK         0.0600 
    128 H128       -4.8651  -11.5777  -49.7869 H         1 UNK         0.0600 
    129 H129       -4.7104  -13.2685  -50.2718 H         1 UNK         0.0600 
    130 H130       -3.0121  -14.2619  -49.2321 H         1 UNK         0.3000 
    131 H131       -0.3608  -13.1170  -49.1595 H         1 UNK         0.0600 
    132 H132       -1.1684  -15.6602  -47.6730 H         1 UNK         0.0800 
    133 H133       -1.0897  -15.6638  -49.4048 H         1 UNK         0.0800 
    134 H134        1.1535  -14.8439  -50.8038 H         1 UNK         0.0800 
    135 H135        2.6096  -15.6660  -50.3042 H         1 UNK         0.0800 
    136 H136       -0.4746  -16.1029  -52.0105 H         1 UNK         0.1150 
    137 H137       -0.3608  -20.3835  -52.0527 H         1 UNK         0.1150 
    138 H138        2.3472  -18.1898  -49.5495 H         1 UNK         0.1150 
    139 H139        1.1128  -21.5934  -50.6595 H         1 UNK         0.0800 
    140 H140        2.6743  -20.8223  -50.6119 H         1 UNK         0.0800 
    141 H141       -0.6611  -20.6181  -48.8931 H         1 UNK         0.0800 
    142 H142       -0.1612  -19.6576  -47.5291 H         1 UNK         0.0800 
    143 H143       -0.5061  -22.7042  -47.5292 H         1 UNK         0.0600 
    144 H144        0.6796  -21.0730  -45.4976 H         1 UNK         0.3000 
    145 H145       -0.1625  -23.2280  -42.7433 H         1 UNK         0.0600 
    146 H146        1.9254  -24.1883  -43.6825 H         1 UNK         0.0600 
    147 H147        2.5331  -22.5801  -44.0458 H         1 UNK         0.0600 
    148 H148        2.2839  -23.0728  -42.3730 H         1 UNK         0.0600 
    149 H149        1.2634  -20.7783  -42.7947 H         1 UNK         0.3000 
    150 H150       -1.5791  -18.5900  -42.5373 H         1 UNK         0.0600 
    151 H151       -0.1976  -17.8809  -40.5735 H         1 UNK         0.0600 
    152 H152        0.6344  -19.4306  -40.5907 H         1 UNK         0.0600 
    153 H153       -1.0862  -19.3587  -40.2392 H         1 UNK         0.0600 
    154 H154        1.1777  -17.9969  -42.6452 H         1 UNK         0.3000 
    155 H155        1.5694  -17.9437  -46.2135 H         1 UNK         0.0600 
    156 H156        2.3866  -15.6810  -45.6388 H         1 UNK         0.0600 
    157 H157        1.6220  -15.7782  -44.0563 H         1 UNK         0.0600 
    158 H158        0.6336  -15.7274  -45.5113 H         1 UNK         0.0600 
    159 H159        3.3386  -17.4745  -43.9926 H         1 UNK         0.3000 
    160 H160        4.6150  -20.7946  -43.7530 H         1 UNK         0.0600 
    161 H161        5.8201  -19.7077  -45.6534 H         1 UNK         0.0600 
    162 H162        6.7188  -19.5480  -44.1527 H         1 UNK         0.0600 
    163 H163        5.8204  -18.1723  -44.7940 H         1 UNK         0.0600 
    164 H164        5.2266  -18.3451  -42.3878 H         1 UNK         0.3000 
    165 H165        2.8930  -18.7600  -39.7202 H         1 UNK         0.0600 
    166 H166        4.9614  -18.7086  -38.3713 H         1 UNK         0.0600 
    167 H167        4.8059  -20.2703  -39.1586 H         1 UNK         0.0600 
    168 H168        5.9396  -19.0824  -39.7910 H         1 UNK         0.0600 
    169 H169        4.8851  -16.8141  -40.0135 H         1 UNK         0.3000 
    170 H170        4.2351  -14.6711  -40.2701 H         1 UNK         0.0600 
    171 H171        4.5704  -13.4878  -42.4371 H         1 UNK         0.0600 
    172 H172        5.2089  -15.1224  -42.5268 H         1 UNK         0.0600 
    173 H173        3.6696  -14.7381  -43.2878 H         1 UNK         0.0600 
    174 H174        1.9437  -13.7750  -41.8628 H         1 UNK         0.3000 
    175 H175       -0.2795  -13.4579  -39.1219 H         1 UNK         0.0600 
    176 H176        1.2068  -11.1708  -40.5275 H         1 UNK         0.0600 
    177 H177       -0.3695  -11.0512  -39.7442 H         1 UNK         0.0600 
    178 H178        1.0655  -11.3814  -38.7860 H         1 UNK         0.0600 
    179 H179       -0.1511  -12.6431  -41.9288 H         1 UNK         0.3000 
    180 H180       -0.6540  -15.5274  -43.3957 H         1 UNK         0.0600 
    181 H181       -2.9546  -15.3100  -44.2575 H         1 UNK         0.0600 
    182 H182       -3.3829  -14.2431  -42.9190 H         1 UNK         0.0600 
    183 H183       -2.9785  -15.9302  -42.6178 H         1 UNK         0.0600 
    184 H184       -1.7141  -13.2870  -44.5808 H         1 UNK         0.3000 
    185 H185       -0.5560  -11.2418  -45.1869 H         1 UNK         0.0600 
    186 H186        1.7574  -10.6531  -44.4636 H         1 UNK         0.0600 
    187 H187        2.4265  -11.7990  -45.6193 H         1 UNK         0.0600 
    188 H188        1.5396  -10.3836  -46.1851 H         1 UNK         0.0600 
    189 H189        0.8766  -12.7195  -47.2333 H         1 UNK         0.3000 
    190 H190       -1.8212  -19.9117  -45.6520 H         1 UNK         0.3000 
    191 H191       -4.3729  -19.8539  -46.7525 H         1 UNK         0.0600 
    192 H192       -3.5062  -19.0759  -43.9215 H         1 UNK         0.0600 
    193 H193       -4.9765  -18.5425  -44.7247 H         1 UNK         0.0600 
    194 H194       -3.4103  -18.0502  -45.3509 H         1 UNK         0.0600 
    195 H195       -3.2842  -21.7192  -43.8916 H         1 UNK         0.3000 
    196 H196       -5.7620  -22.8972  -43.1992 H         1 UNK         0.0600 
    197 H197       -4.3049  -24.5137  -41.9496 H         1 UNK         0.0600 
    198 H198       -3.7870  -22.8532  -41.7027 H         1 UNK         0.0600 
    199 H199       -2.8916  -23.9003  -42.8025 H         1 UNK         0.0600 
    200 H200       -3.6204  -23.6323  -45.8498 H         1 UNK         0.3000 
    201 H201       -4.9448  -26.2316  -46.4497 H         1 UNK         0.0600 
    202 H202       -2.4598  -26.2453  -46.3153 H         1 UNK         0.0600 
    203 H203       -2.3664  -24.9687  -47.5203 H         1 UNK         0.0600 
    204 H204       -2.9939  -26.5568  -47.9576 H         1 UNK         0.0600 
    205 H205       -6.0667  -23.3988  -46.8131 H         1 UNK         0.3000 
    206 H206       -7.3650  -22.2654  -48.1997 H         1 UNK         0.0600 
    207 H207       -8.5820  -23.4316  -50.0021 H         1 UNK         0.0600 
    208 H208       -7.4537  -24.7771  -49.9586 H         1 UNK         0.0600 
    209 H209       -8.5033  -24.4577  -48.5788 H         1 UNK         0.0600 
    210 H210       -4.8663  -21.5650  -48.3182 H         1 UNK         0.3000 
    211 H211       -3.2979  -20.3924  -49.3544 H         1 UNK         0.0600 
    212 H212       -5.1428  -20.1775  -51.7835 H         1 UNK         0.0600 
    213 H213       -3.7523  -19.1679  -51.4181 H         1 UNK         0.0600 
    214 H214       -5.1714  -19.0990  -50.3913 H         1 UNK         0.0600 
    215 H215       -3.0674  -23.0705  -49.2262 H         1 UNK         0.3000 
    216 H216       -2.1242  -24.9576  -49.9239 H         1 UNK         0.0600 
    217 H217       -0.0187  -24.7903  -51.2386 H         1 UNK         0.0600 
    218 H218       -0.0856  -23.5737  -49.9747 H         1 UNK         0.0600 
    219 H219       -0.3929  -23.1231  -51.6521 H         1 UNK         0.0600 
    220 H220       -4.4631  -24.8759  -50.8823 H         1 UNK         0.3000 
    221 H221       -5.9951  -25.4130  -52.3822 H         1 UNK         0.0600 
    222 H222       -3.7593  -26.9953  -53.7651 H         1 UNK         0.0600 
    223 H223       -4.7470  -27.5704  -52.4230 H         1 UNK         0.0600 
    224 H224       -5.4870  -27.2385  -53.9813 H         1 UNK         0.0600 
    225 H225       -5.4160  -22.9678  -52.6997 H         1 UNK         0.3000 
    226 H226       -5.5295  -21.1468  -53.8777 H         1 UNK         0.0600 
    227 H227       -7.2900  -22.2566  -55.2336 H         1 UNK         0.0600 
    228 H228       -6.3686  -21.1098  -56.1935 H         1 UNK         0.0600 
    229 H229       -6.0741  -22.8314  -56.3745 H         1 UNK         0.0600 
    230 H230       -3.3514  -23.5140  -55.2815 H         1 UNK         0.3000 
    231 H231       -1.3060  -23.4818  -56.1291 H         1 UNK         0.0600 
    232 H232       -0.9461  -20.9341  -54.4723 H         1 UNK         0.0600 
    233 H233       -0.8461  -22.5782  -53.8505 H         1 UNK         0.0600 
    234 H234        0.3384  -22.0085  -55.0119 H         1 UNK         0.0600 
    235 H235       -3.3536  -21.9016  -57.6406 H         1 UNK         0.3000 
    236 H236       -3.6577  -20.7026  -59.4621 H         1 UNK         0.0600 
    237 H237       -0.6665  -20.9498  -60.0688 H         1 UNK         0.0600 
    238 H238       -1.8825  -22.1587  -60.4809 H         1 UNK         0.0600 
    239 H239       -1.9450  -20.5636  -61.2098 H         1 UNK         0.0600 
    240 H240       -2.9212  -19.3760  -56.8598 H         1 UNK         0.3000 
    241 H241       -1.7098  -16.8462  -57.4965 H         1 UNK         0.0600 
    242 H242       -4.3800  -14.6570  -58.3663 H         1 UNK         0.3800 
    243 H243       -2.7092  -14.7715  -57.8936 H         1 UNK         0.3800 
    244 H244       -2.7060  -16.1408  -55.2597 H         1 UNK         0.0800 
    245 H245       -3.4665  -17.7074  -55.1451 H         1 UNK         0.0800 
    246 H246       -2.1512  -19.2221  -53.2006 H         1 UNK         0.0800 
    247 H247       -2.4246  -17.5316  -52.8475 H         1 UNK         0.0800 
@<TRIPOS>BOND
     1    1    2 1    
     2    1  127 1    
     3    1  128 1    
     4    1  129 1    
     5    2    3 2    
     6    2    4 am   BACKBONE|DICT|INTERRES
     7    4    5 1    
     8    4  130 1    
     9    5    6 1    
    10    5   65 1    
    11    5  131 1    
    12    6    7 1    
    13    6  132 1    
    14    6  133 1    
    15    7    8 1    
    16    8    9 1    
    17    8  134 1    
    18    8  135 1    
    19    9   10 ar   
    20    9   14 ar   
    21   10   11 ar   
    22   10  136 1    
    23   11   12 ar   
    24   11  126 1    
    25   12   13 ar   
    26   12  137 1    
    27   13   14 ar   
    28   13   15 1    
    29   14  138 1    
    30   15   16 1    
    31   15  139 1    
    32   15  140 1    
    33   16   17 1    
    34   17   18 1    
    35   17  141 1    
    36   17  142 1    
    37   18   19 1    
    38   18   67 1    
    39   18  143 1    
    40   19   20 am   BACKBONE|DICT|INTERRES
    41   19  144 1    
    42   20   21 2    
    43   20   22 1    
    44   22   23 1    
    45   22   24 1    
    46   22  145 1    
    47   23  146 1    
    48   23  147 1    
    49   23  148 1    
    50   24   25 am   BACKBONE|DICT|INTERRES
    51   24  149 1    
    52   25   26 2    
    53   25   27 1    
    54   27   28 1    
    55   27   29 1    
    56   27  150 1    
    57   28  151 1    
    58   28  152 1    
    59   28  153 1    
    60   29   30 am   BACKBONE|DICT|INTERRES
    61   29  154 1    
    62   30   31 2    
    63   30   32 1    
    64   32   33 1    
    65   32   34 1    
    66   32  155 1    
    67   33  156 1    
    68   33  157 1    
    69   33  158 1    
    70   34   35 am   BACKBONE|DICT|INTERRES
    71   34  159 1    
    72   35   36 2    
    73   35   37 1    
    74   37   38 1    
    75   37   39 1    
    76   37  160 1    
    77   38  161 1    
    78   38  162 1    
    79   38  163 1    
    80   39   40 am   BACKBONE|DICT|INTERRES
    81   39  164 1    
    82   40   41 2    
    83   40   42 1    
    84   42   43 1    
    85   42   44 1    
    86   42  165 1    
    87   43  166 1    
    88   43  167 1    
    89   43  168 1    
    90   44   45 am   BACKBONE|DICT|INTERRES
    91   44  169 1    
    92   45   46 2    
    93   45   47 1    
    94   47   48 1    
    95   47   49 1    
    96   47  170 1    
    97   48  171 1    
    98   48  172 1    
    99   48  173 1    
   100   49   50 am   BACKBONE|DICT|INTERRES
   101   49  174 1    
   102   50   51 2    
   103   50   52 1    
   104   52   53 1    
   105   52   54 1    
   106   52  175 1    
   107   53  176 1    
   108   53  177 1    
   109   53  178 1    
   110   54   55 am   BACKBONE|DICT|INTERRES
   111   54  179 1    
   112   55   56 2    
   113   55   57 1    
   114   57   58 1    
   115   57   59 1    
   116   57  180 1    
   117   58  181 1    
   118   58  182 1    
   119   58  183 1    
   120   59   60 am   BACKBONE|DICT|INTERRES
   121   59  184 1    
   122   60   61 2    
   123   60   62 1    
   124   62   63 1    
   125   62   64 1    
   126   62  185 1    
   127   63  186 1    
   128   63  187 1    
   129   63  188 1    
   130   64   65 am   BACKBONE|DICT|INTERRES
   131   64  189 1    
   132   65   66 2    
   133   67   68 2    
   134   67   69 am   BACKBONE|DICT|INTERRES
   135   69   70 1    
   136   69  190 1    
   137   70   71 1    
   138   70   72 1    
   139   70  191 1    
   140   71  192 1    
   141   71  193 1    
   142   71  194 1    
   143   72   73 2    
   144   72   74 am   BACKBONE|DICT|INTERRES
   145   74   75 1    
   146   74  195 1    
   147   75   76 1    
   148   75   77 1    
   149   75  196 1    
   150   76  197 1    
   151   76  198 1    
   152   76  199 1    
   153   77   78 2    
   154   77   79 am   BACKBONE|DICT|INTERRES
   155   79   80 1    
   156   79  200 1    
   157   80   81 1    
   158   80   82 1    
   159   80  201 1    
   160   81  202 1    
   161   81  203 1    
   162   81  204 1    
   163   82   83 2    
   164   82   84 am   BACKBONE|DICT|INTERRES
   165   84   85 1    
   166   84  205 1    
   167   85   86 1    
   168   85   87 1    
   169   85  206 1    
   170   86  207 1    
   171   86  208 1    
   172   86  209 1    
   173   87   88 2    
   174   87   89 am   BACKBONE|DICT|INTERRES
   175   89   90 1    
   176   89  210 1    
   177   90   91 1    
   178   90   92 1    
   179   90  211 1    
   180   91  212 1    
   181   91  213 1    
   182   91  214 1    
   183   92   93 2    
   184   92   94 am   BACKBONE|DICT|INTERRES
   185   94   95 1    
   186   94  215 1    
   187   95   96 1    
   188   95   97 1    
   189   95  216 1    
   190   96  217 1    
   191   96  218 1    
   192   96  219 1    
   193   97   98 2    
   194   97   99 am   BACKBONE|DICT|INTERRES
   195   99  100 1    
   196   99  220 1    
   197  100  101 1    
   198  100  102 1    
   199  100  221 1    
   200  101  222 1    
   201  101  223 1    
   202  101  224 1    
   203  102  103 2    
   204  102  104 am   BACKBONE|DICT|INTERRES
   205  104  105 1    
   206  104  225 1    
   207  105  106 1    
   208  105  107 1    
   209  105  226 1    
   210  106  227 1    
   211  106  228 1    
   212  106  229 1    
   213  107  108 2    
   214  107  109 am   BACKBONE|DICT|INTERRES
   215  109  110 1    
   216  109  230 1    
   217  110  111 1    
   218  110  112 1    
   219  110  231 1    
   220  111  232 1    
   221  111  233 1    
   222  111  234 1    
   223  112  113 2    
   224  112  114 am   BACKBONE|DICT|INTERRES
   225  114  115 1    
   226  114  235 1    
   227  115  116 1    
   228  115  117 1    
   229  115  236 1    
   230  116  237 1    
   231  116  238 1    
   232  116  239 1    
   233  117  118 2    
   234  117  119 am   BACKBONE|DICT|INTERRES
   235  119  120 1    
   236  119  240 1    
   237  120  121 1    
   238  120  124 1    
   239  120  241 1    
   240  121  122 am   BACKBONE|DICT|INTERRES
   241  121  123 2    
   242  122  242 1    
   243  122  243 1    
   244  124  125 1    
   245  124  244 1    
   246  124  245 1    
   247  125  126 1    
   248  126  246 1    
   249  126  247 1    
@<TRIPOS>SUBSTRUCTURE
     1 UNK         1 GROUP             0       ****    0 ROOT    
