@<TRIPOS>MOLECULE
3R540
247   249    1
SMALL
USER_CHARGES


@<TRIPOS>ATOM
      1 CA         -0.3305  -14.0519  -42.3384 C.3       0 UNK        -0.1800 
      2 C          -1.4658  -13.1178  -42.7333 C.2       0 UNK         0.5000 
      3 O          -1.5265  -11.9865  -42.2519 O.2       0 UNK        -0.5000 
      4 N          -2.3663  -13.5880  -43.6067 N.am      1 UNK        -0.5000 
      5 CA         -3.5105  -12.8266  -44.1307 C.3       1 UNK         0.1400 
      6 C6         -4.5283  -13.7305  -44.8668 C.3       23 UNK        -0.0398 
      7 S7         -5.1588  -15.1260  -43.8691 S.3       23 UNK        -0.2404 
      8 C8         -4.4411  -16.5608  -44.7441 C.3       23 UNK        -0.0205 
      9 C9         -5.2557  -17.0728  -45.9307 C.ar      23 UNK        -0.0193 
     10 C10        -5.8623  -16.2014  -46.8423 C.ar      23 UNK        -0.1150 
     11 C11        -6.5224  -16.6869  -47.9727 C.ar      23 UNK        -0.0193 
     12 C12        -6.6040  -18.0653  -48.1790 C.ar      23 UNK        -0.1150 
     13 C13        -6.0141  -18.9515  -47.2736 C.ar      23 UNK        -0.0193 
     14 C14        -5.3420  -18.4502  -46.1546 C.ar      23 UNK        -0.1150 
     15 C15        -6.1014  -20.4503  -47.5092 C.3       23 UNK        -0.0205 
     16 S16        -4.9642  -21.0038  -48.8186 S.3       23 UNK        -0.2404 
     17 C17        -3.3253  -20.8053  -48.0355 C.3       23 UNK        -0.0398 
     18 CA         -2.7579  -22.1356  -47.4891 C.3       11 UNK         0.1400 
     19 N          -1.3089  -22.0859  -47.2970 N.am      11 UNK        -0.5000 
     20 C          -0.5397  -23.1583  -47.0687 C.2       10 UNK         0.5000 
     21 O          -0.9728  -24.3103  -47.0486 O.2       10 UNK        -0.5000 
     22 CA          0.9478  -22.9059  -46.7607 C.3       10 UNK         0.1400 
     23 CB          1.7661  -22.7364  -48.0485 C.3       10 UNK        -0.1800 
     24 N           1.1638  -21.7556  -45.8804 N.am      10 UNK        -0.5000 
     25 C           0.7266  -21.6851  -44.6149 C.2       9 UNK         0.5000 
     26 O           0.1184  -22.5952  -44.0541 O.2       9 UNK        -0.5000 
     27 CA          0.9743  -20.3699  -43.8562 C.3       9 UNK         0.1400 
     28 CB          2.4286  -20.2830  -43.3701 C.3       9 UNK        -0.1800 
     29 N           0.6531  -19.1874  -44.6517 N.am      9 UNK        -0.5000 
     30 C          -0.5678  -18.8777  -45.1120 C.2       8 UNK         0.5000 
     31 O          -1.5803  -19.5443  -44.8945 O.2       8 UNK        -0.5000 
     32 CA         -0.6521  -17.6370  -46.0193 C.3       8 UNK         0.1400 
     33 CB         -0.5228  -16.3544  -45.1827 C.3       8 UNK        -0.1800 
     34 N           0.3680  -17.6523  -47.0706 N.am      8 UNK        -0.5000 
     35 C           0.5013  -18.6290  -47.9803 C.2       7 UNK         0.5000 
     36 O          -0.2506  -19.5972  -48.0540 O.2       7 UNK        -0.5000 
     37 CA          1.7188  -18.5592  -48.9158 C.3       7 UNK         0.1400 
     38 CB          1.4376  -17.6805  -50.1407 C.3       7 UNK        -0.1800 
     39 N           2.9149  -18.0891  -48.2214 N.am      7 UNK        -0.5000 
     40 C           3.5771  -18.8053  -47.3013 C.2       6 UNK         0.5000 
     41 O           3.2806  -19.9575  -46.9847 O.2       6 UNK        -0.5000 
     42 CA          4.7310  -18.0883  -46.5780 C.3       6 UNK         0.1400 
     43 CB          6.0078  -18.1084  -47.4313 C.3       6 UNK        -0.1800 
     44 N           4.3897  -16.7055  -46.2400 N.am      6 UNK        -0.5000 
     45 C           3.4422  -16.3610  -45.3567 C.2       5 UNK         0.5000 
     46 O           2.8125  -17.1771  -44.6844 O.2       5 UNK        -0.5000 
     47 CA          3.1159  -14.8616  -45.2310 C.3       5 UNK         0.1400 
     48 CB          3.9437  -14.2181  -44.1099 C.3       5 UNK        -0.1800 
     49 N           3.3190  -14.1114  -46.4710 N.am      5 UNK        -0.5000 
     50 C           2.6150  -14.2682  -47.5992 C.2       4 UNK         0.5000 
     51 O           1.7292  -15.1154  -47.7408 O.2       4 UNK        -0.5000 
     52 CA          2.9443  -13.2786  -48.7365 C.3       4 UNK         0.1400 
     53 CB          2.2841  -13.6634  -50.0717 C.3       4 UNK        -0.1800 
     54 N           2.5144  -11.9308  -48.3711 N.am      4 UNK        -0.5000 
     55 C           3.1482  -11.1140  -47.5180 C.2       3 UNK         0.5000 
     56 O           4.2641  -11.3500  -47.0518 O.2       3 UNK        -0.5000 
     57 CA          2.3848   -9.8507  -47.0700 C.3       3 UNK         0.1400 
     58 CB          2.7911   -8.6433  -47.9283 C.3       3 UNK        -0.1800 
     59 N           0.9249  -10.0014  -47.1109 N.am      3 UNK        -0.5000 
     60 C           0.2222  -10.8829  -46.3851 C.2       2 UNK         0.5000 
     61 O           0.7285  -11.6560  -45.5663 O.2       2 UNK        -0.5000 
     62 CA         -1.2908  -10.9236  -46.6495 C.3       2 UNK         0.1400 
     63 CB         -1.5953  -11.4055  -48.0803 C.3       2 UNK        -0.1800 
     64 N          -1.9061  -11.8470  -45.7069 N.am      2 UNK        -0.5000 
     65 C          -3.0767  -11.6883  -45.0823 C.2       1 UNK         0.5000 
     66 O          -3.8127  -10.7133  -45.2418 O.2       1 UNK        -0.5000 
     67 C          -3.4814  -22.5965  -46.2078 C.2       11 UNK         0.5000 
     68 O          -4.3465  -23.4682  -46.2901 O.2       11 UNK        -0.5000 
     69 N          -3.0844  -22.0579  -45.0444 N.am      12 UNK        -0.5000 
     70 CA         -3.6006  -22.4550  -43.7301 C.3       12 UNK         0.1400 
     71 CB         -3.0533  -21.5055  -42.6543 C.3       12 UNK        -0.1800 
     72 C          -3.2952  -23.9250  -43.3747 C.2       12 UNK         0.5000 
     73 O          -4.1344  -24.5914  -42.7684 O.2       12 UNK        -0.5000 
     74 N          -2.1227  -24.4153  -43.7987 N.am      13 UNK        -0.5000 
     75 CA         -1.7004  -25.8146  -43.6991 C.3       13 UNK         0.1400 
     76 CB         -0.1702  -25.8774  -43.8338 C.3       13 UNK        -0.1800 
     77 C          -2.3703  -26.7425  -44.7368 C.2       13 UNK         0.5000 
     78 O          -2.1876  -27.9577  -44.6529 O.2       13 UNK        -0.5000 
     79 N          -3.1152  -26.1662  -45.6926 N.am      14 UNK        -0.5000 
     80 CA         -3.8069  -26.8160  -46.8095 C.3       14 UNK         0.1400 
     81 CB         -4.9186  -27.7583  -46.3030 C.3       14 UNK        -0.1800 
     82 C          -2.8490  -27.4903  -47.8141 C.2       14 UNK         0.5000 
     83 O          -3.2072  -28.4960  -48.4308 O.2       14 UNK        -0.5000 
     84 N          -1.6545  -26.9108  -47.9946 N.am      15 UNK        -0.5000 
     85 CA         -0.6405  -27.3513  -48.9504 C.3       15 UNK         0.1400 
     86 CB          0.7424  -26.8797  -48.4677 C.3       15 UNK        -0.1800 
     87 C          -0.9872  -26.8314  -50.3576 C.2       15 UNK         0.5000 
     88 O          -0.4133  -25.8401  -50.8136 O.2       15 UNK        -0.5000 
     89 N          -1.9835  -27.4738  -50.9870 N.am      16 UNK        -0.5000 
     90 CA         -2.5367  -27.1821  -52.3187 C.3       16 UNK         0.1400 
     91 CB         -1.5090  -27.5381  -53.4129 C.3       16 UNK        -0.1800 
     92 C          -3.0680  -25.7380  -52.4586 C.2       16 UNK         0.5000 
     93 O          -2.9748  -25.1441  -53.5348 O.2       16 UNK        -0.5000 
     94 N          -3.5556  -25.1765  -51.3404 N.am      17 UNK        -0.5000 
     95 CA         -3.9808  -23.7827  -51.1563 C.3       17 UNK         0.1400 
     96 CB         -5.2902  -23.5153  -51.9274 C.3       17 UNK        -0.1800 
     97 C          -2.8788  -22.7513  -51.4967 C.2       17 UNK         0.5000 
     98 O          -3.1977  -21.6348  -51.9059 O.2       17 UNK        -0.5000 
     99 N          -1.6040  -23.1638  -51.3915 N.am      18 UNK        -0.5000 
    100 CA        -0.4052  -22.4361  -51.8235 C.3       18 UNK         0.1400 
    101 CB        -0.1855  -21.1960  -50.9395 C.3       18 UNK        -0.1800 
    102 C         -0.4099  -22.0956  -53.3316 C.2       18 UNK         0.5000 
    103 O          0.1436  -21.0698  -53.7284 O.2       18 UNK        -0.5000 
    104 N         -1.0567  -22.9540  -54.1377 N.am      19 UNK        -0.5000 
    105 CA        -1.3812  -22.7631  -55.5556 C.3       19 UNK         0.1400 
    106 CB        -0.1088  -22.6691  -56.4242 C.3       19 UNK        -0.1800 
    107 C         -2.3691  -21.5952  -55.7731 C.2       19 UNK         0.5000 
    108 O         -2.2458  -20.8516  -56.7477 O.2       19 UNK        -0.5000 
    109 N         -3.3357  -21.4777  -54.8498 N.am      20 UNK        -0.5000 
    110 CA        -4.3765  -20.4529  -54.7453 C.3       20 UNK         0.1400 
    111 CB        -5.3276  -20.4960  -55.9602 C.3       20 UNK        -0.1800 
    112 C         -3.7796  -19.0581  -54.4765 C.2       20 UNK         0.5000 
    113 O         -3.9624  -18.1393  -55.2785 O.2       20 UNK        -0.5000 
    114 N         -3.0685  -18.9316  -53.3500 N.am      21 UNK        -0.5000 
    115 CA        -2.4610  -17.6871  -52.8833 C.3       21 UNK         0.1400 
    116 CB        -0.9494  -17.7248  -53.1556 C.3       21 UNK        -0.1800 
    117 C         -2.7578  -17.4934  -51.3889 C.2       21 UNK         0.5000 
    118 O         -2.7660  -18.4666  -50.6365 O.2       21 UNK        -0.5000 
    119 N         -2.9906  -16.2372  -50.9938 N.am      22 UNK        -0.5000 
    120 CA        -3.3933  -15.8374  -49.6319 C.3       22 UNK         0.1400 
    121 C         -2.2164  -15.3603  -48.7321 C.2       22 UNK         0.5000 
    122 N         -0.9757  -15.3548  -49.2025 N.am      22 UNK        -0.7600 
    123 O         -2.4327  -14.9989  -47.5803 O.2       22 UNK        -0.5000 
    124 C124       -4.5318  -14.7831  -49.6800 C.3       23 UNK        -0.0398 
    125 S125       -6.0583  -15.4588  -50.4277 S.3       23 UNK        -0.2404 
    126 C126       -7.1304  -15.7156  -48.9745 C.3       23 UNK        -0.0205 
    127 H127        0.5395  -13.8723  -42.9704 H         1 UNK         0.0600 
    128 H128       -0.6201  -15.0980  -42.4348 H         1 UNK         0.0600 
    129 H129       -0.0410  -13.8807  -41.3015 H         1 UNK         0.0600 
    130 H130       -2.2798  -14.5312  -43.9524 H         1 UNK         0.3000 
    131 H131       -4.0197  -12.3647  -43.2821 H         1 UNK         0.0600 
    132 H132       -4.0773  -14.1135  -45.7823 H         1 UNK         0.0800 
    133 H133       -5.3931  -13.1430  -45.1810 H         1 UNK         0.0800 
    134 H134       -4.3039  -17.3600  -44.0139 H         1 UNK         0.0800 
    135 H135       -3.4488  -16.3060  -45.1094 H         1 UNK         0.0800 
    136 H136       -5.8108  -15.1357  -46.6959 H         1 UNK         0.1150 
    137 H137       -7.1101  -18.4487  -49.0540 H         1 UNK         0.1150 
    138 H138       -4.8687  -19.1358  -45.4651 H         1 UNK         0.1150 
    139 H139       -5.9065  -21.0009  -46.5883 H         1 UNK         0.0800 
    140 H140       -7.1204  -20.7066  -47.8024 H         1 UNK         0.0800 
    141 H141       -3.3397  -20.0294  -47.2700 H         1 UNK         0.0800 
    142 H142       -2.6654  -20.4291  -48.8183 H         1 UNK         0.0800 
    143 H143       -2.9313  -22.9025  -48.2458 H         1 UNK         0.0600 
    144 H144       -0.8746  -21.1662  -47.3569 H         1 UNK         0.3000 
    145 H145        1.3222  -23.7928  -46.2457 H         1 UNK         0.0600 
    146 H146        2.8350  -22.7792  -47.8391 H         1 UNK         0.0600 
    147 H147        1.5426  -23.5214  -48.7717 H         1 UNK         0.0600 
    148 H148        1.5649  -21.7799  -48.5266 H         1 UNK         0.0600 
    149 H149        1.6934  -20.9794  -46.2645 H         1 UNK         0.3000 
    150 H150        0.3232  -20.3655  -42.9798 H         1 UNK         0.0600 
    151 H151        2.6902  -21.1494  -42.7615 H         1 UNK         0.0600 
    152 H152        2.5859  -19.3949  -42.7577 H         1 UNK         0.0600 
    153 H153        3.1308  -20.2408  -44.2033 H         1 UNK         0.0600 
    154 H154        1.4237  -18.5579  -44.8570 H         1 UNK         0.3000 
    155 H155       -1.6292  -17.6370  -46.5070 H         1 UNK         0.0600 
    156 H156        0.4068  -16.3291  -44.6198 H         1 UNK         0.0600 
    157 H157       -1.3254  -16.2903  -44.4510 H         1 UNK         0.0600 
    158 H158       -0.5613  -15.4598  -45.8036 H         1 UNK         0.0600 
    159 H159        1.0006  -16.8609  -47.1123 H         1 UNK         0.3000 
    160 H160        1.9135  -19.5706  -49.2758 H         1 UNK         0.0600 
    161 H161        2.2262  -17.7793  -50.8864 H         1 UNK         0.0600 
    162 H162        1.3587  -16.6289  -49.8747 H         1 UNK         0.0600 
    163 H163        0.5001  -17.9717  -50.6137 H         1 UNK         0.0600 
    164 H164        3.1865  -17.1310  -48.3825 H         1 UNK         0.3000 
    165 H165        4.9306  -18.6282  -45.6498 H         1 UNK         0.0600 
    166 H166        6.8469  -17.6647  -46.8951 H         1 UNK         0.0600 
    167 H167        6.2900  -19.1310  -47.6854 H         1 UNK         0.0600 
    168 H168        5.8793  -17.5614  -48.3661 H         1 UNK         0.0600 
    169 H169        4.8684  -15.9738  -46.7440 H         1 UNK         0.3000 
    170 H170        2.0622  -14.7696  -44.9644 H         1 UNK         0.0600 
    171 H171        3.7901  -14.7380  -43.1632 H         1 UNK         0.0600 
    172 H172        5.0113  -14.2440  -44.3314 H         1 UNK         0.0600 
    173 H173        3.6565  -13.1772  -43.9581 H         1 UNK         0.0600 
    174 H174        3.9783  -13.3422  -46.4348 H         1 UNK         0.3000 
    175 H175        4.0263  -13.2848  -48.8836 H         1 UNK         0.0600 
    176 H176        1.1961  -13.6652  -50.0020 H         1 UNK         0.0600 
    177 H177        2.5648  -12.9675  -50.8623 H         1 UNK         0.0600 
    178 H178        2.6001  -14.6566  -50.3913 H         1 UNK         0.0600 
    179 H179        1.5925  -11.6605  -48.6788 H         1 UNK         0.3000 
    180 H180        2.6697   -9.6479  -46.0355 H         1 UNK         0.0600 
    181 H181        2.5077   -8.7781  -48.9729 H         1 UNK         0.0600 
    182 H182        3.8706   -8.4885  -47.8985 H         1 UNK         0.0600 
    183 H183        2.3234   -7.7269  -47.5678 H         1 UNK         0.0600 
    184 H184        0.4335   -9.3993  -47.7558 H         1 UNK         0.3000 
    185 H185       -1.6866   -9.9162  -46.5053 H         1 UNK         0.0600 
    186 H186       -1.2056  -10.7131  -48.8269 H         1 UNK         0.0600 
    187 H187       -1.1549  -12.3845  -48.2751 H         1 UNK         0.0600 
    188 H188       -2.6695  -11.4879  -48.2476 H         1 UNK         0.0600 
    189 H189       -1.3263  -12.6370  -45.4573 H         1 UNK         0.3000 
    190 H190       -2.3838  -21.3211  -45.0507 H         1 UNK         0.3000 
    191 H191       -4.6866  -22.3439  -43.7565 H         1 UNK         0.0600 
    192 H192       -3.4421  -21.7650  -41.6689 H         1 UNK         0.0600 
    193 H193       -3.3415  -20.4736  -42.8564 H         1 UNK         0.0600 
    194 H194       -1.9653  -21.5438  -42.5993 H         1 UNK         0.0600 
    195 H195       -1.4529  -23.7735  -44.2129 H         1 UNK         0.3000 
    196 H196       -1.9699  -26.1871  -42.7089 H         1 UNK         0.0600 
    197 H197        0.1947  -26.8978  -43.7105 H         1 UNK         0.0600 
    198 H198        0.3184  -25.2652  -43.0756 H         1 UNK         0.0600 
    199 H199        0.1606  -25.5270  -44.8118 H         1 UNK         0.0600 
    200 H200       -3.1988  -25.1569  -45.6750 H         1 UNK         0.3000 
    201 H201       -4.2938  -26.0126  -47.3635 H         1 UNK         0.0600 
    202 H202       -5.5793  -27.2467  -45.6030 H         1 UNK         0.0600 
    203 H203       -4.5111  -28.6359  -45.8009 H         1 UNK         0.0600 
    204 H204       -5.5361  -28.1135  -47.1288 H         1 UNK         0.0600 
    205 H205       -1.4506  -26.0444  -47.4995 H         1 UNK         0.3000 
    206 H206       -0.6238  -28.4427  -48.9852 H         1 UNK         0.0600 
    207 H207        0.9706  -27.2778  -47.4789 H         1 UNK         0.0600 
    208 H208        1.5269  -27.2177  -49.1455 H         1 UNK         0.0600 
    209 H209        0.8049  -25.7937  -48.4112 H         1 UNK         0.0600 
    210 H210       -2.4392  -28.2233  -50.4784 H         1 UNK         0.3000 
    211 H211       -3.3998  -27.8367  -52.4465 H         1 UNK         0.0600 
    212 H212       -0.6400  -26.8799  -53.3810 H         1 UNK         0.0600 
    213 H213       -1.9480  -27.4523  -54.4076 H         1 UNK         0.0600 
    214 H214       -1.1566  -28.5638  -53.3039 H         1 UNK         0.0600 
    215 H215       -3.5722  -25.7513  -50.5108 H         1 UNK         0.3000 
    216 H216       -4.1946  -23.6666  -50.0941 H         1 UNK         0.0600 
    217 H217       -5.6909  -22.5292  -51.6887 H         1 UNK         0.0600 
    218 H218       -6.0567  -24.2450  -51.6670 H         1 UNK         0.0600 
    219 H219       -5.1415  -23.5554  -53.0069 H         1 UNK         0.0600 
    220 H220       -1.4272  -24.1157  -51.0853 H         1 UNK         0.3000 
    221 H221        0.4352  -23.1128  -51.6629 H         1 UNK         0.0600 
    222 H222       -0.9320  -20.4246  -51.1267 H         1 UNK         0.0600 
    223 H223       -0.2475  -21.4599  -49.8868 H         1 UNK         0.0600 
    224 H224        0.7955  -20.7549  -51.1160 H         1 UNK         0.0600 
    225 H225       -1.5018  -23.7615  -53.7129 H         1 UNK         0.3000 
    226 H226       -1.9141  -23.6646  -55.8614 H         1 UNK         0.0600 
    227 H227       -0.3609  -22.6960  -57.4848 H         1 UNK         0.0600 
    228 H228        0.4414  -21.7451  -56.2462 H         1 UNK         0.0600 
    229 H229        0.5639  -23.5044  -56.2301 H         1 UNK         0.0600 
    230 H230       -3.2790  -22.0905  -54.0471 H         1 UNK         0.3000 
    231 H231       -4.9688  -20.7083  -53.8652 H         1 UNK         0.0600 
    232 H232       -5.7519  -21.4913  -56.0924 H         1 UNK         0.0600 
    233 H233       -4.8242  -20.2202  -56.8870 H         1 UNK         0.0600 
    234 H234       -6.1594  -19.8040  -55.8246 H         1 UNK         0.0600 
    235 H235       -3.0034  -19.7187  -52.7085 H         1 UNK         0.3000 
    236 H236       -2.8872  -16.8367  -53.4196 H         1 UNK         0.0600 
    237 H237       -0.7463  -17.7947  -54.2243 H         1 UNK         0.0600 
    238 H238       -0.4582  -16.8234  -52.7876 H         1 UNK         0.0600 
    239 H239       -0.4775  -18.5815  -52.6751 H         1 UNK         0.0600 
    240 H240       -2.9496  -15.4919  -51.6732 H         1 UNK         0.3000 
    241 H241       -3.7902  -16.7132  -49.1145 H         1 UNK         0.0600 
    242 H242       -0.7914  -15.6511  -50.1450 H         1 UNK         0.3800 
    243 H243       -0.2134  -15.0901  -48.5930 H         1 UNK         0.3800 
    244 H244       -4.7625  -14.3976  -48.6867 H         1 UNK         0.0800 
    245 H245       -4.2175  -13.9160  -50.2626 H         1 UNK         0.0800 
    246 H246       -7.3344  -14.7533  -48.5024 H         1 UNK         0.0800 
    247 H247       -8.0950  -16.0981  -49.3113 H         1 UNK         0.0800 
@<TRIPOS>BOND
     1    1    2 1    
     2    1  127 1    
     3    1  128 1    
     4    1  129 1    
     5    2    3 2    
     6    2    4 am   BACKBONE|DICT|INTERRES
     7    4    5 1    
     8    4  130 1    
     9    5    6 1    
    10    5   65 1    
    11    5  131 1    
    12    6    7 1    
    13    6  132 1    
    14    6  133 1    
    15    7    8 1    
    16    8    9 1    
    17    8  134 1    
    18    8  135 1    
    19    9   10 ar   
    20    9   14 ar   
    21   10   11 ar   
    22   10  136 1    
    23   11   12 ar   
    24   11  126 1    
    25   12   13 ar   
    26   12  137 1    
    27   13   14 ar   
    28   13   15 1    
    29   14  138 1    
    30   15   16 1    
    31   15  139 1    
    32   15  140 1    
    33   16   17 1    
    34   17   18 1    
    35   17  141 1    
    36   17  142 1    
    37   18   19 1    
    38   18   67 1    
    39   18  143 1    
    40   19   20 am   BACKBONE|DICT|INTERRES
    41   19  144 1    
    42   20   21 2    
    43   20   22 1    
    44   22   23 1    
    45   22   24 1    
    46   22  145 1    
    47   23  146 1    
    48   23  147 1    
    49   23  148 1    
    50   24   25 am   BACKBONE|DICT|INTERRES
    51   24  149 1    
    52   25   26 2    
    53   25   27 1    
    54   27   28 1    
    55   27   29 1    
    56   27  150 1    
    57   28  151 1    
    58   28  152 1    
    59   28  153 1    
    60   29   30 am   BACKBONE|DICT|INTERRES
    61   29  154 1    
    62   30   31 2    
    63   30   32 1    
    64   32   33 1    
    65   32   34 1    
    66   32  155 1    
    67   33  156 1    
    68   33  157 1    
    69   33  158 1    
    70   34   35 am   BACKBONE|DICT|INTERRES
    71   34  159 1    
    72   35   36 2    
    73   35   37 1    
    74   37   38 1    
    75   37   39 1    
    76   37  160 1    
    77   38  161 1    
    78   38  162 1    
    79   38  163 1    
    80   39   40 am   BACKBONE|DICT|INTERRES
    81   39  164 1    
    82   40   41 2    
    83   40   42 1    
    84   42   43 1    
    85   42   44 1    
    86   42  165 1    
    87   43  166 1    
    88   43  167 1    
    89   43  168 1    
    90   44   45 am   BACKBONE|DICT|INTERRES
    91   44  169 1    
    92   45   46 2    
    93   45   47 1    
    94   47   48 1    
    95   47   49 1    
    96   47  170 1    
    97   48  171 1    
    98   48  172 1    
    99   48  173 1    
   100   49   50 am   BACKBONE|DICT|INTERRES
   101   49  174 1    
   102   50   51 2    
   103   50   52 1    
   104   52   53 1    
   105   52   54 1    
   106   52  175 1    
   107   53  176 1    
   108   53  177 1    
   109   53  178 1    
   110   54   55 am   BACKBONE|DICT|INTERRES
   111   54  179 1    
   112   55   56 2    
   113   55   57 1    
   114   57   58 1    
   115   57   59 1    
   116   57  180 1    
   117   58  181 1    
   118   58  182 1    
   119   58  183 1    
   120   59   60 am   BACKBONE|DICT|INTERRES
   121   59  184 1    
   122   60   61 2    
   123   60   62 1    
   124   62   63 1    
   125   62   64 1    
   126   62  185 1    
   127   63  186 1    
   128   63  187 1    
   129   63  188 1    
   130   64   65 am   BACKBONE|DICT|INTERRES
   131   64  189 1    
   132   65   66 2    
   133   67   68 2    
   134   67   69 am   BACKBONE|DICT|INTERRES
   135   69   70 1    
   136   69  190 1    
   137   70   71 1    
   138   70   72 1    
   139   70  191 1    
   140   71  192 1    
   141   71  193 1    
   142   71  194 1    
   143   72   73 2    
   144   72   74 am   BACKBONE|DICT|INTERRES
   145   74   75 1    
   146   74  195 1    
   147   75   76 1    
   148   75   77 1    
   149   75  196 1    
   150   76  197 1    
   151   76  198 1    
   152   76  199 1    
   153   77   78 2    
   154   77   79 am   BACKBONE|DICT|INTERRES
   155   79   80 1    
   156   79  200 1    
   157   80   81 1    
   158   80   82 1    
   159   80  201 1    
   160   81  202 1    
   161   81  203 1    
   162   81  204 1    
   163   82   83 2    
   164   82   84 am   BACKBONE|DICT|INTERRES
   165   84   85 1    
   166   84  205 1    
   167   85   86 1    
   168   85   87 1    
   169   85  206 1    
   170   86  207 1    
   171   86  208 1    
   172   86  209 1    
   173   87   88 2    
   174   87   89 am   BACKBONE|DICT|INTERRES
   175   89   90 1    
   176   89  210 1    
   177   90   91 1    
   178   90   92 1    
   179   90  211 1    
   180   91  212 1    
   181   91  213 1    
   182   91  214 1    
   183   92   93 2    
   184   92   94 am   BACKBONE|DICT|INTERRES
   185   94   95 1    
   186   94  215 1    
   187   95   96 1    
   188   95   97 1    
   189   95  216 1    
   190   96  217 1    
   191   96  218 1    
   192   96  219 1    
   193   97   98 2    
   194   97   99 am   BACKBONE|DICT|INTERRES
   195   99  100 1    
   196   99  220 1    
   197  100  101 1    
   198  100  102 1    
   199  100  221 1    
   200  101  222 1    
   201  101  223 1    
   202  101  224 1    
   203  102  103 2    
   204  102  104 am   BACKBONE|DICT|INTERRES
   205  104  105 1    
   206  104  225 1    
   207  105  106 1    
   208  105  107 1    
   209  105  226 1    
   210  106  227 1    
   211  106  228 1    
   212  106  229 1    
   213  107  108 2    
   214  107  109 am   BACKBONE|DICT|INTERRES
   215  109  110 1    
   216  109  230 1    
   217  110  111 1    
   218  110  112 1    
   219  110  231 1    
   220  111  232 1    
   221  111  233 1    
   222  111  234 1    
   223  112  113 2    
   224  112  114 am   BACKBONE|DICT|INTERRES
   225  114  115 1    
   226  114  235 1    
   227  115  116 1    
   228  115  117 1    
   229  115  236 1    
   230  116  237 1    
   231  116  238 1    
   232  116  239 1    
   233  117  118 2    
   234  117  119 am   BACKBONE|DICT|INTERRES
   235  119  120 1    
   236  119  240 1    
   237  120  121 1    
   238  120  124 1    
   239  120  241 1    
   240  121  122 am   BACKBONE|DICT|INTERRES
   241  121  123 2    
   242  122  242 1    
   243  122  243 1    
   244  124  125 1    
   245  124  244 1    
   246  124  245 1    
   247  125  126 1    
   248  126  246 1    
   249  126  247 1    
@<TRIPOS>SUBSTRUCTURE
     1 UNK         1 GROUP             0       ****    0 ROOT    
