@<TRIPOS>MOLECULE
3R540
247   249    1
SMALL
USER_CHARGES


@<TRIPOS>ATOM
      1 CA         -5.0453  -17.5675  -47.0421 C.3       0 UNK        -0.1800 
      2 C          -4.3787  -16.4160  -47.7822 C.2       0 UNK         0.5000 
      3 O          -5.0654  -15.5108  -48.2551 O.2       0 UNK        -0.5000 
      4 N          -3.0449  -16.4584  -47.8915 N.am      1 UNK        -0.5000 
      5 CA         -2.2041  -15.4499  -48.5431 C.3       1 UNK         0.1400 
      6 C6         -0.7426  -15.9432  -48.6333 C.3       23 UNK        -0.0398 
      7 S7          0.3159  -14.9495  -49.7289 S.3       23 UNK        -0.2404 
      8 C8          1.9478  -15.6638  -49.3349 C.3       23 UNK        -0.0205 
      9 C9          2.1076  -17.1182  -49.7702 C.ar      23 UNK        -0.0193 
     10 C10         1.8095  -17.5059  -51.0810 C.ar      23 UNK        -0.1150 
     11 C11         2.0329  -18.8191  -51.5022 C.ar      23 UNK        -0.0193 
     12 C12         2.5686  -19.7449  -50.6050 C.ar      23 UNK        -0.1150 
     13 C13         2.8474  -19.3861  -49.2820 C.ar      23 UNK        -0.0193 
     14 C14         2.6142  -18.0675  -48.8743 C.ar      23 UNK        -0.1150 
     15 C15         3.4467  -20.3893  -48.2955 C.3       23 UNK        -0.0205 
     16 S16         2.8970  -22.1178  -48.5315 S.3       23 UNK        -0.2404 
     17 C17         1.0888  -21.9741  -48.3303 C.3       23 UNK        -0.0398 
     18 CA          0.4851  -23.1379  -47.5096 C.3       11 UNK         0.1400 
     19 N           1.1334  -23.2904  -46.1989 N.am      11 UNK        -0.5000 
     20 C           0.9019  -24.2807  -45.3278 C.2       10 UNK         0.5000 
     21 O          -0.0238  -25.0824  -45.4359 O.2       10 UNK        -0.5000 
     22 CA          1.8895  -24.4228  -44.1637 C.3       10 UNK         0.1400 
     23 CB          3.2621  -24.8865  -44.6974 C.3       10 UNK        -0.1800 
     24 N           2.0084  -23.1877  -43.3834 N.am      10 UNK        -0.5000 
     25 C           2.6237  -23.1170  -42.1909 C.2       9 UNK         0.5000 
     26 O           3.1242  -24.0911  -41.6266 O.2       9 UNK        -0.5000 
     27 CA          2.7156  -21.7439  -41.4941 C.3       9 UNK         0.1400 
     28 CB          4.0436  -21.0566  -41.8463 C.3       9 UNK        -0.1800 
     29 N           1.6174  -20.8403  -41.8208 N.am      9 UNK        -0.5000 
     30 C           0.3420  -21.0065  -41.4422 C.2       8 UNK         0.5000 
     31 O          -0.0367  -21.9137  -40.7008 O.2       8 UNK        -0.5000 
     32 CA         -0.6909  -20.0045  -42.0022 C.3       8 UNK         0.1400 
     33 CB         -1.0972  -18.9908  -40.9225 C.3       8 UNK        -0.1800 
     34 N          -0.2370  -19.2829  -43.1978 N.am      8 UNK        -0.5000 
     35 C           0.0928  -19.8726  -44.3567 C.2       7 UNK         0.5000 
     36 O           0.0190  -21.0881  -44.5341 O.2       7 UNK        -0.5000 
     37 CA          0.6300  -18.9989  -45.5035 C.3       7 UNK         0.1400 
     38 CB         -0.4406  -18.8141  -46.5831 C.3       7 UNK        -0.1800 
     39 N           1.1280  -17.6898  -45.0904 N.am      7 UNK        -0.5000 
     40 C           2.1867  -17.4810  -44.2968 C.2       6 UNK         0.5000 
     41 O           2.9110  -18.3834  -43.8756 O.2       6 UNK        -0.5000 
     42 CA          2.4478  -16.0236  -43.8662 C.3       6 UNK         0.1400 
     43 CB          3.5424  -15.4010  -44.7453 C.3       6 UNK        -0.1800 
     44 N           1.2589  -15.1585  -43.8884 N.am      6 UNK        -0.5000 
     45 C           0.1329  -15.3684  -43.1841 C.2       5 UNK         0.5000 
     46 O          -0.0423  -16.3657  -42.4832 O.2       5 UNK        -0.5000 
     47 CA         -0.9955  -14.3207  -43.3110 C.3       5 UNK         0.1400 
     48 CB         -1.9322  -14.2983  -42.0849 C.3       5 UNK        -0.1800 
     49 N          -0.5120  -12.9736  -43.6306 N.am      5 UNK        -0.5000 
     50 C           0.3093  -12.2105  -42.8925 C.2       4 UNK         0.5000 
     51 O           0.7104  -12.5258  -41.7709 O.2       4 UNK        -0.5000 
     52 CA          0.7703  -10.8759  -43.5216 C.3       4 UNK         0.1400 
     53 CB          2.1695  -10.4519  -43.0283 C.3       4 UNK        -0.1800 
     54 N           0.7269  -10.8440  -44.9905 N.am      4 UNK        -0.5000 
     55 C           1.3651  -11.6524  -45.8484 C.2       3 UNK         0.5000 
     56 O           2.0055  -12.6470  -45.5046 O.2       3 UNK        -0.5000 
     57 CA          1.2114  -11.3057  -47.3427 C.3       3 UNK         0.1400 
     58 CB          2.2847  -11.9829  -48.2119 C.3       3 UNK        -0.1800 
     59 N          -0.1100  -11.6812  -47.8442 N.am      3 UNK        -0.5000 
     60 C          -1.2571  -11.0409  -47.5777 C.2       2 UNK         0.5000 
     61 O          -1.3184  -10.0185  -46.8928 O.2       2 UNK        -0.5000 
     62 CA         -2.5546  -11.6284  -48.1686 C.3       2 UNK         0.1400 
     63 CB         -3.0511  -10.7642  -49.3381 C.3       2 UNK        -0.1800 
     64 N          -2.4272  -13.0122  -48.6312 N.am      2 UNK        -0.5000 
     65 C          -2.3027  -14.0817  -47.8348 C.2       1 UNK         0.5000 
     66 O          -2.2353  -14.0192  -46.6053 O.2       1 UNK        -0.5000 
     67 C          -1.0534  -23.0152  -47.4626 C.2       11 UNK         0.5000 
     68 O          -1.7206  -23.4748  -48.3911 O.2       11 UNK        -0.5000 
     69 N          -1.5951  -22.4067  -46.4003 N.am      12 UNK        -0.5000 
     70 CA         -3.0356  -22.2747  -46.1776 C.3       12 UNK         0.1400 
     71 CB         -3.3079  -21.1240  -45.1972 C.3       12 UNK        -0.1800 
     72 C          -3.6588  -23.5820  -45.6598 C.2       12 UNK         0.5000 
     73 O          -4.7672  -23.9258  -46.0681 O.2       12 UNK        -0.5000 
     74 N          -2.9258  -24.3034  -44.7997 N.am      13 UNK        -0.5000 
     75 CA         -3.3245  -25.6014  -44.2474 C.3       13 UNK         0.1400 
     76 CB         -2.4392  -25.9368  -43.0372 C.3       13 UNK        -0.1800 
     77 C          -3.2646  -26.7206  -45.3031 C.2       13 UNK         0.5000 
     78 O          -4.1319  -27.5940  -45.3223 O.2       13 UNK        -0.5000 
     79 N          -2.2671  -26.6377  -46.1933 N.am      14 UNK        -0.5000 
     80 CA         -2.1076  -27.4792  -47.3805 C.3       14 UNK         0.1400 
     81 CB         -0.6745  -27.3051  -47.9086 C.3       14 UNK        -0.1800 
     82 C          -3.1271  -27.1633  -48.4956 C.2       14 UNK         0.5000 
     83 O          -3.2430  -27.9441  -49.4406 O.2       14 UNK        -0.5000 
     84 N          -3.8247  -26.0231  -48.3747 N.am      15 UNK        -0.5000 
     85 CA         -4.8129  -25.4644  -49.3020 C.3       15 UNK         0.1400 
     86 CB         -6.0404  -26.3891  -49.4345 C.3       15 UNK        -0.1800 
     87 C          -4.2162  -25.0532  -50.6641 C.2       15 UNK         0.5000 
     88 O          -4.9423  -24.9790  -51.6561 O.2       15 UNK        -0.5000 
     89 N          -2.9112  -24.7529  -50.6846 N.am      16 UNK        -0.5000 
     90 CA         -2.2054  -24.1988  -51.8373 C.3       16 UNK         0.1400 
     91 CB         -0.6927  -24.4129  -51.6666 C.3       16 UNK        -0.1800 
     92 C          -2.5343  -22.7072  -52.0003 C.2       16 UNK         0.5000 
     93 O          -2.8630  -22.2693  -53.1007 O.2       16 UNK        -0.5000 
     94 N          -2.5006  -21.9740  -50.8798 N.am      17 UNK        -0.5000 
     95 CA         -2.7950  -20.5426  -50.7976 C.3       17 UNK         0.1400 
     96 CB         -1.8865  -19.9133  -49.7291 C.3       17 UNK        -0.1800 
     97 C          -4.2848  -20.2626  -50.5101 C.2       17 UNK         0.5000 
     98 O          -4.6169  -19.1791  -50.0305 O.2       17 UNK        -0.5000 
     99 N          -5.1710  -21.2275  -50.7987 N.am      18 UNK        -0.5000 
    100 CA        -6.6189  -21.1335  -50.5769 C.3       18 UNK         0.1400 
    101 CB        -7.2602  -22.5026  -50.8462 C.3       18 UNK        -0.1800 
    102 C         -7.3104  -20.0362  -51.4127 C.2       18 UNK         0.5000 
    103 O         -8.3282  -19.4960  -50.9796 O.2       18 UNK        -0.5000 
    104 N         -6.7275  -19.7064  -52.5724 N.am      19 UNK        -0.5000 
    105 CA        -7.1399  -18.6104  -53.4525 C.3       19 UNK         0.1400 
    106 CB        -7.1048  -19.1149  -54.9060 C.3       19 UNK        -0.1800 
    107 C         -6.2525  -17.3605  -53.2602 C.2       19 UNK         0.5000 
    108 O         -6.1877  -16.5171  -54.1564 O.2       19 UNK        -0.5000 
    109 N         -5.5554  -17.2774  -52.1164 N.am      20 UNK        -0.5000 
    110 CA        -4.5223  -16.3138  -51.7226 C.3       20 UNK         0.1400 
    111 CB        -5.0254  -14.8574  -51.7408 C.3       20 UNK        -0.1800 
    112 C         -3.2191  -16.4954  -52.5172 C.2       20 UNK         0.5000 
    113 O         -2.1756  -16.7581  -51.9208 O.2       20 UNK        -0.5000 
    114 N         -3.3130  -16.3969  -53.8464 N.am      21 UNK        -0.5000 
    115 CA        -2.2709  -16.8043  -54.7815 C.3       21 UNK         0.1400 
    116 CB        -2.5155  -16.1074  -56.1284 C.3       21 UNK        -0.1800 
    117 C         -2.2860  -18.3340  -54.9517 C.2       21 UNK         0.5000 
    118 O         -3.3480  -18.9525  -54.8418 O.2       21 UNK        -0.5000 
    119 N         -1.1144  -18.9054  -55.2447 N.am      22 UNK        -0.5000 
    120 CA        -0.9237  -20.3531  -55.4483 C.3       22 UNK         0.1400 
    121 C         -1.0262  -20.7994  -56.9368 C.2       22 UNK         0.5000 
    122 N         -1.2685  -19.9056  -57.8884 N.am      22 UNK        -0.7600 
    123 O         -0.8940  -21.9825  -57.2379 O.2       22 UNK        -0.5000 
    124 C124        0.3891  -20.8577  -54.7961 C.3       23 UNK        -0.0398 
    125 S125        0.4541  -20.5305  -53.0011 S.3       23 UNK        -0.2404 
    126 C126        1.7335  -19.2379  -52.9330 C.3       23 UNK        -0.0205 
    127 H127       -5.5328  -17.2024  -46.1383 H         1 UNK         0.0600 
    128 H128       -4.3276  -18.3373  -46.7580 H         1 UNK         0.0600 
    129 H129       -5.8010  -18.0309  -47.6767 H         1 UNK         0.0600 
    130 H130       -2.5531  -17.2280  -47.4666 H         1 UNK         0.3000 
    131 H131       -2.5826  -15.3345  -49.5596 H         1 UNK         0.0600 
    132 H132       -0.7304  -16.9535  -49.0418 H         1 UNK         0.0800 
    133 H133       -0.2878  -15.9945  -47.6427 H         1 UNK         0.0800 
    134 H134        2.1297  -15.5586  -48.2642 H         1 UNK         0.0800 
    135 H135        2.7146  -15.0705  -49.8345 H         1 UNK         0.0800 
    136 H136        1.4171  -16.7778  -51.7770 H         1 UNK         0.1150 
    137 H137        2.7619  -20.7515  -50.9470 H         1 UNK         0.1150 
    138 H138        2.8530  -17.7731  -47.8618 H         1 UNK         0.1150 
    139 H139        3.2348  -20.0911  -47.2692 H         1 UNK         0.0800 
    140 H140        4.5318  -20.3594  -48.4005 H         1 UNK         0.0800 
    141 H141        0.6510  -21.9414  -49.3299 H         1 UNK         0.0800 
    142 H142        0.8556  -21.0179  -47.8636 H         1 UNK         0.0800 
    143 H143        0.6936  -24.0595  -48.0569 H         1 UNK         0.0600 
    144 H144        1.9223  -22.6838  -46.0339 H         1 UNK         0.3000 
    145 H145        1.4940  -25.2013  -43.5076 H         1 UNK         0.0600 
    146 H146        3.1547  -25.7462  -45.3605 H         1 UNK         0.0600 
    147 H147        3.9275  -25.1928  -43.8909 H         1 UNK         0.0600 
    148 H148        3.7633  -24.0986  -45.2607 H         1 UNK         0.0600 
    149 H149        1.5316  -22.3713  -43.7504 H         1 UNK         0.3000 
    150 H150        2.6984  -21.9191  -40.4164 H         1 UNK         0.0600 
    151 H151        4.1135  -20.8410  -42.9134 H         1 UNK         0.0600 
    152 H152        4.8934  -21.6872  -41.5819 H         1 UNK         0.0600 
    153 H153        4.1570  -20.1158  -41.3072 H         1 UNK         0.0600 
    154 H154        1.8407  -20.0602  -42.4243 H         1 UNK         0.3000 
    155 H155       -1.5771  -20.5785  -42.2784 H         1 UNK         0.0600 
    156 H156       -1.8705  -18.3141  -41.2865 H         1 UNK         0.0600 
    157 H157       -0.2477  -18.3872  -40.6005 H         1 UNK         0.0600 
    158 H158       -1.4951  -19.4948  -40.0408 H         1 UNK         0.0600 
    159 H159       -0.1351  -18.2771  -43.1009 H         1 UNK         0.3000 
    160 H160        1.4627  -19.5491  -45.9412 H         1 UNK         0.0600 
    161 H161       -1.2190  -18.1208  -46.2652 H         1 UNK         0.0600 
    162 H162       -0.9231  -19.7585  -46.8263 H         1 UNK         0.0600 
    163 H163        0.0081  -18.4459  -47.5032 H         1 UNK         0.0600 
    164 H164        0.5858  -16.8852  -45.3645 H         1 UNK         0.3000 
    165 H165        2.8108  -16.0533  -42.8371 H         1 UNK         0.0600 
    166 H166        4.4425  -16.0172  -44.7497 H         1 UNK         0.0600 
    167 H167        3.2129  -15.2905  -45.7792 H         1 UNK         0.0600 
    168 H168        3.8280  -14.4151  -44.3779 H         1 UNK         0.0600 
    169 H169        1.3434  -14.3037  -44.4295 H         1 UNK         0.3000 
    170 H170       -1.5939  -14.6391  -44.1639 H         1 UNK         0.0600 
    171 H171       -2.7221  -13.5571  -42.2058 H         1 UNK         0.0600 
    172 H172       -1.3933  -14.0691  -41.1652 H         1 UNK         0.0600 
    173 H173       -2.4164  -15.2655  -41.9449 H         1 UNK         0.0600 
    174 H174       -0.7744  -12.6273  -44.5430 H         1 UNK         0.3000 
    175 H175        0.0577  -10.1236  -43.1808 H         1 UNK         0.0600 
    176 H176        2.9276  -11.1936  -43.2826 H         1 UNK         0.0600 
    177 H177        2.1851  -10.3256  -41.9452 H         1 UNK         0.0600 
    178 H178        2.4709   -9.5006  -43.4666 H         1 UNK         0.0600 
    179 H179        0.1344  -10.1265  -45.3956 H         1 UNK         0.3000 
    180 H180        1.3330  -10.2257  -47.4498 H         1 UNK         0.0600 
    181 H181        2.2315  -13.0687  -48.1439 H         1 UNK         0.0600 
    182 H182        3.2853  -11.6852  -47.8960 H         1 UNK         0.0600 
    183 H183        2.1784  -11.7065  -49.2611 H         1 UNK         0.0600 
    184 H184       -0.1540  -12.5208  -48.4030 H         1 UNK         0.3000 
    185 H185       -3.3096  -11.6020  -47.3801 H         1 UNK         0.0600 
    186 H186       -3.1963   -9.7289  -49.0265 H         1 UNK         0.0600 
    187 H187       -2.3410  -10.7610  -50.1660 H         1 UNK         0.0600 
    188 H188       -4.0081  -11.1241  -49.7166 H         1 UNK         0.0600 
    189 H189       -2.4490  -13.1473  -49.6315 H         1 UNK         0.3000 
    190 H190       -0.9778  -22.0425  -45.6764 H         1 UNK         0.3000 
    191 H191       -3.5173  -22.0272  -47.1264 H         1 UNK         0.0600 
    192 H192       -2.9355  -20.1762  -45.5827 H         1 UNK         0.0600 
    193 H193       -4.3783  -21.0030  -45.0258 H         1 UNK         0.0600 
    194 H194       -2.8391  -21.3016  -44.2293 H         1 UNK         0.0600 
    195 H195       -1.9956  -23.9831  -44.5713 H         1 UNK         0.3000 
    196 H196       -4.3574  -25.5237  -43.9014 H         1 UNK         0.0600 
    197 H197       -2.7431  -26.8809  -42.5833 H         1 UNK         0.0600 
    198 H198       -2.5146  -25.1677  -42.2683 H         1 UNK         0.0600 
    199 H199       -1.3891  -26.0310  -43.3149 H         1 UNK         0.0600 
    200 H200       -1.5471  -25.9351  -46.0379 H         1 UNK         0.3000 
    201 H201       -2.2470  -28.5217  -47.0879 H         1 UNK         0.0600 
    202 H202       -0.4898  -27.9538  -48.7658 H         1 UNK         0.0600 
    203 H203        0.0615  -27.5579  -47.1450 H         1 UNK         0.0600 
    204 H204       -0.4873  -26.2789  -48.2267 H         1 UNK         0.0600 
    205 H205       -3.6459  -25.4615  -47.5539 H         1 UNK         0.3000 
    206 H206       -5.1543  -24.5372  -48.8401 H         1 UNK         0.0600 
    207 H207       -6.4414  -26.6530  -48.4558 H         1 UNK         0.0600 
    208 H208       -6.8412  -25.9000  -49.9902 H         1 UNK         0.0600 
    209 H209       -5.7983  -27.3134  -49.9595 H         1 UNK         0.0600 
    210 H210       -2.4085  -24.7541  -49.8043 H         1 UNK         0.3000 
    211 H211       -2.5266  -24.7235  -52.7397 H         1 UNK         0.0600 
    212 H212       -0.4518  -25.4735  -51.5944 H         1 UNK         0.0600 
    213 H213       -0.1447  -24.0106  -52.5198 H         1 UNK         0.0600 
    214 H214       -0.3094  -23.9218  -50.7717 H         1 UNK         0.0600 
    215 H215       -2.2682  -22.4408  -50.0094 H         1 UNK         0.3000 
    216 H216       -2.5611  -20.0664  -51.7527 H         1 UNK         0.0600 
    217 H217       -2.0369  -18.8350  -49.6751 H         1 UNK         0.0600 
    218 H218       -0.8334  -20.0756  -49.9591 H         1 UNK         0.0600 
    219 H219       -2.0920  -20.3280  -48.7430 H         1 UNK         0.0600 
    220 H220       -4.8282  -22.0814  -51.2142 H         1 UNK         0.3000 
    221 H221       -6.7773  -20.8852  -49.5253 H         1 UNK         0.0600 
    222 H222       -7.0720  -22.8425  -51.8654 H         1 UNK         0.0600 
    223 H223       -6.8752  -23.2586  -50.1631 H         1 UNK         0.0600 
    224 H224       -8.3414  -22.4643  -50.7064 H         1 UNK         0.0600 
    225 H225       -5.8859  -20.1972  -52.8405 H         1 UNK         0.3000 
    226 H226       -8.1650  -18.3105  -53.2265 H         1 UNK         0.0600 
    227 H227       -7.7351  -19.9952  -55.0325 H         1 UNK         0.0600 
    228 H228       -7.4714  -18.3550  -55.5971 H         1 UNK         0.0600 
    229 H229       -6.0928  -19.3798  -55.2145 H         1 UNK         0.0600 
    230 H230       -5.6544  -18.0440  -51.4608 H         1 UNK         0.3000 
    231 H231       -4.2883  -16.5613  -50.6886 H         1 UNK         0.0600 
    232 H232       -5.2621  -14.5111  -52.7467 H         1 UNK         0.0600 
    233 H233       -4.2693  -14.1839  -51.3362 H         1 UNK         0.0600 
    234 H234       -5.9190  -14.7454  -51.1268 H         1 UNK         0.0600 
    235 H235       -4.2431  -16.2670  -54.2326 H         1 UNK         0.3000 
    236 H236       -1.2979  -16.4943  -54.3937 H         1 UNK         0.0600 
    237 H237       -3.4749  -16.3945  -56.5612 H         1 UNK         0.0600 
    238 H238       -2.5099  -15.0229  -56.0171 H         1 UNK         0.0600 
    239 H239       -1.7385  -16.3632  -56.8496 H         1 UNK         0.0600 
    240 H240       -0.2907  -18.3310  -55.3438 H         1 UNK         0.3000 
    241 H241       -1.7378  -20.8800  -54.9508 H         1 UNK         0.0600 
    242 H242       -1.3940  -18.9331  -57.6603 H         1 UNK         0.3800 
    243 H243       -1.3372  -20.2088  -58.8475 H         1 UNK         0.3800 
    244 H244        0.4861  -21.9370  -54.9252 H         1 UNK         0.0800 
    245 H245        1.2563  -20.4161  -55.2893 H         1 UNK         0.0800 
    246 H246        2.6511  -19.6087  -53.3919 H         1 UNK         0.0800 
    247 H247        1.4085  -18.3815  -53.5252 H         1 UNK         0.0800 
@<TRIPOS>BOND
     1    1    2 1    
     2    1  127 1    
     3    1  128 1    
     4    1  129 1    
     5    2    3 2    
     6    2    4 am   BACKBONE|DICT|INTERRES
     7    4    5 1    
     8    4  130 1    
     9    5    6 1    
    10    5   65 1    
    11    5  131 1    
    12    6    7 1    
    13    6  132 1    
    14    6  133 1    
    15    7    8 1    
    16    8    9 1    
    17    8  134 1    
    18    8  135 1    
    19    9   10 ar   
    20    9   14 ar   
    21   10   11 ar   
    22   10  136 1    
    23   11   12 ar   
    24   11  126 1    
    25   12   13 ar   
    26   12  137 1    
    27   13   14 ar   
    28   13   15 1    
    29   14  138 1    
    30   15   16 1    
    31   15  139 1    
    32   15  140 1    
    33   16   17 1    
    34   17   18 1    
    35   17  141 1    
    36   17  142 1    
    37   18   19 1    
    38   18   67 1    
    39   18  143 1    
    40   19   20 am   BACKBONE|DICT|INTERRES
    41   19  144 1    
    42   20   21 2    
    43   20   22 1    
    44   22   23 1    
    45   22   24 1    
    46   22  145 1    
    47   23  146 1    
    48   23  147 1    
    49   23  148 1    
    50   24   25 am   BACKBONE|DICT|INTERRES
    51   24  149 1    
    52   25   26 2    
    53   25   27 1    
    54   27   28 1    
    55   27   29 1    
    56   27  150 1    
    57   28  151 1    
    58   28  152 1    
    59   28  153 1    
    60   29   30 am   BACKBONE|DICT|INTERRES
    61   29  154 1    
    62   30   31 2    
    63   30   32 1    
    64   32   33 1    
    65   32   34 1    
    66   32  155 1    
    67   33  156 1    
    68   33  157 1    
    69   33  158 1    
    70   34   35 am   BACKBONE|DICT|INTERRES
    71   34  159 1    
    72   35   36 2    
    73   35   37 1    
    74   37   38 1    
    75   37   39 1    
    76   37  160 1    
    77   38  161 1    
    78   38  162 1    
    79   38  163 1    
    80   39   40 am   BACKBONE|DICT|INTERRES
    81   39  164 1    
    82   40   41 2    
    83   40   42 1    
    84   42   43 1    
    85   42   44 1    
    86   42  165 1    
    87   43  166 1    
    88   43  167 1    
    89   43  168 1    
    90   44   45 am   BACKBONE|DICT|INTERRES
    91   44  169 1    
    92   45   46 2    
    93   45   47 1    
    94   47   48 1    
    95   47   49 1    
    96   47  170 1    
    97   48  171 1    
    98   48  172 1    
    99   48  173 1    
   100   49   50 am   BACKBONE|DICT|INTERRES
   101   49  174 1    
   102   50   51 2    
   103   50   52 1    
   104   52   53 1    
   105   52   54 1    
   106   52  175 1    
   107   53  176 1    
   108   53  177 1    
   109   53  178 1    
   110   54   55 am   BACKBONE|DICT|INTERRES
   111   54  179 1    
   112   55   56 2    
   113   55   57 1    
   114   57   58 1    
   115   57   59 1    
   116   57  180 1    
   117   58  181 1    
   118   58  182 1    
   119   58  183 1    
   120   59   60 am   BACKBONE|DICT|INTERRES
   121   59  184 1    
   122   60   61 2    
   123   60   62 1    
   124   62   63 1    
   125   62   64 1    
   126   62  185 1    
   127   63  186 1    
   128   63  187 1    
   129   63  188 1    
   130   64   65 am   BACKBONE|DICT|INTERRES
   131   64  189 1    
   132   65   66 2    
   133   67   68 2    
   134   67   69 am   BACKBONE|DICT|INTERRES
   135   69   70 1    
   136   69  190 1    
   137   70   71 1    
   138   70   72 1    
   139   70  191 1    
   140   71  192 1    
   141   71  193 1    
   142   71  194 1    
   143   72   73 2    
   144   72   74 am   BACKBONE|DICT|INTERRES
   145   74   75 1    
   146   74  195 1    
   147   75   76 1    
   148   75   77 1    
   149   75  196 1    
   150   76  197 1    
   151   76  198 1    
   152   76  199 1    
   153   77   78 2    
   154   77   79 am   BACKBONE|DICT|INTERRES
   155   79   80 1    
   156   79  200 1    
   157   80   81 1    
   158   80   82 1    
   159   80  201 1    
   160   81  202 1    
   161   81  203 1    
   162   81  204 1    
   163   82   83 2    
   164   82   84 am   BACKBONE|DICT|INTERRES
   165   84   85 1    
   166   84  205 1    
   167   85   86 1    
   168   85   87 1    
   169   85  206 1    
   170   86  207 1    
   171   86  208 1    
   172   86  209 1    
   173   87   88 2    
   174   87   89 am   BACKBONE|DICT|INTERRES
   175   89   90 1    
   176   89  210 1    
   177   90   91 1    
   178   90   92 1    
   179   90  211 1    
   180   91  212 1    
   181   91  213 1    
   182   91  214 1    
   183   92   93 2    
   184   92   94 am   BACKBONE|DICT|INTERRES
   185   94   95 1    
   186   94  215 1    
   187   95   96 1    
   188   95   97 1    
   189   95  216 1    
   190   96  217 1    
   191   96  218 1    
   192   96  219 1    
   193   97   98 2    
   194   97   99 am   BACKBONE|DICT|INTERRES
   195   99  100 1    
   196   99  220 1    
   197  100  101 1    
   198  100  102 1    
   199  100  221 1    
   200  101  222 1    
   201  101  223 1    
   202  101  224 1    
   203  102  103 2    
   204  102  104 am   BACKBONE|DICT|INTERRES
   205  104  105 1    
   206  104  225 1    
   207  105  106 1    
   208  105  107 1    
   209  105  226 1    
   210  106  227 1    
   211  106  228 1    
   212  106  229 1    
   213  107  108 2    
   214  107  109 am   BACKBONE|DICT|INTERRES
   215  109  110 1    
   216  109  230 1    
   217  110  111 1    
   218  110  112 1    
   219  110  231 1    
   220  111  232 1    
   221  111  233 1    
   222  111  234 1    
   223  112  113 2    
   224  112  114 am   BACKBONE|DICT|INTERRES
   225  114  115 1    
   226  114  235 1    
   227  115  116 1    
   228  115  117 1    
   229  115  236 1    
   230  116  237 1    
   231  116  238 1    
   232  116  239 1    
   233  117  118 2    
   234  117  119 am   BACKBONE|DICT|INTERRES
   235  119  120 1    
   236  119  240 1    
   237  120  121 1    
   238  120  124 1    
   239  120  241 1    
   240  121  122 am   BACKBONE|DICT|INTERRES
   241  121  123 2    
   242  122  242 1    
   243  122  243 1    
   244  124  125 1    
   245  124  244 1    
   246  124  245 1    
   247  125  126 1    
   248  126  246 1    
   249  126  247 1    
@<TRIPOS>SUBSTRUCTURE
     1 UNK         1 GROUP             0       ****    0 ROOT    
