@<TRIPOS>MOLECULE
3R540
247   249    1
SMALL
USER_CHARGES


@<TRIPOS>ATOM
      1 CA          2.9813   -9.8900  -51.0929 C.3       0 UNK        -0.1800 
      2 C           2.8338  -10.8247  -49.9014 C.2       0 UNK         0.5000 
      3 O           3.3797  -10.5467  -48.8335 O.2       0 UNK        -0.5000 
      4 N           2.0844  -11.9229  -50.0728 N.am      1 UNK        -0.5000 
      5 CA          1.8576  -12.9723  -49.0670 C.3       1 UNK         0.1400 
      6 C6          1.0468  -14.1593  -49.6357 C.3       23 UNK        -0.0398 
      7 S7          1.8496  -14.9812  -51.0570 S.3       23 UNK        -0.2404 
      8 C8          2.3200  -16.5992  -50.3444 C.3       23 UNK        -0.0205 
      9 C9          1.2119  -17.6559  -50.3255 C.ar      23 UNK        -0.0193 
     10 C10        -0.1343  -17.3234  -50.1355 C.ar      23 UNK        -0.1150 
     11 C11        -1.1287  -18.3071  -50.0718 C.ar      23 UNK        -0.0193 
     12 C12        -0.7568  -19.6467  -50.2135 C.ar      23 UNK        -0.1150 
     13 C13         0.5794  -20.0030  -50.4188 C.ar      23 UNK        -0.0193 
     14 C14         1.5560  -19.0033  -50.4698 C.ar      23 UNK        -0.1150 
     15 C15         0.9602  -21.4695  -50.5861 C.3       23 UNK        -0.0205 
     16 S16         2.2189  -22.0368  -49.3915 S.3       23 UNK        -0.2404 
     17 C17         1.4912  -21.5517  -47.7893 C.3       23 UNK        -0.0398 
     18 CA          0.7495  -22.6906  -47.0546 C.3       11 UNK         0.1400 
     19 N           0.5047  -22.3374  -45.6564 N.am      11 UNK        -0.5000 
     20 C           0.0187  -23.1561  -44.7156 C.2       10 UNK         0.5000 
     21 O          -0.2280  -24.3465  -44.9057 O.2       10 UNK        -0.5000 
     22 CA         -0.2899  -22.5207  -43.3465 C.3       10 UNK         0.1400 
     23 CB          0.9836  -22.3980  -42.4972 C.3       10 UNK        -0.1800 
     24 N          -0.9305  -21.2086  -43.4701 N.am      10 UNK        -0.5000 
     25 C          -2.1430  -21.0130  -44.0090 C.2       9 UNK         0.5000 
     26 O          -2.8653  -21.9268  -44.4076 O.2       9 UNK        -0.5000 
     27 CA         -2.6119  -19.5552  -44.1704 C.3       9 UNK         0.1400 
     28 CB         -3.1555  -19.0052  -42.8435 C.3       9 UNK        -0.1800 
     29 N          -1.5599  -18.6728  -44.6764 N.am      9 UNK        -0.5000 
     30 C          -0.9874  -18.7851  -45.8839 C.2       8 UNK         0.5000 
     31 O          -1.3192  -19.6246  -46.7190 O.2       8 UNK        -0.5000 
     32 CA          0.1946  -17.8438  -46.1834 C.3       8 UNK         0.1400 
     33 CB         -0.3033  -16.4434  -46.5669 C.3       8 UNK        -0.1800 
     34 N           1.1223  -17.7417  -45.0551 N.am      8 UNK        -0.5000 
     35 C           1.8063  -18.7695  -44.5321 C.2       7 UNK         0.5000 
     36 O           1.7783  -19.9107  -44.9867 O.2       7 UNK        -0.5000 
     37 CA          2.6096  -18.4940  -43.2518 C.3       7 UNK         0.1400 
     38 CB          3.9971  -17.9235  -43.5814 C.3       7 UNK        -0.1800 
     39 N           1.8911  -17.5881  -42.3570 N.am      7 UNK        -0.5000 
     40 C           0.8096  -17.9372  -41.6459 C.2       6 UNK         0.5000 
     41 O           0.3396  -19.0756  -41.6345 O.2       6 UNK        -0.5000 
     42 CA          0.1161  -16.8173  -40.8463 C.3       6 UNK         0.1400 
     43 CB          0.8050  -16.6146  -39.4888 C.3       6 UNK        -0.1800 
     44 N           0.0835  -15.5439  -41.5695 N.am      6 UNK        -0.5000 
     45 C          -0.6305  -15.3304  -42.6835 C.2       5 UNK         0.5000 
     46 O          -1.3756  -16.1729  -43.1822 O.2       5 UNK        -0.5000 
     47 CA         -0.4531  -13.9683  -43.3850 C.3       5 UNK         0.1400 
     48 CB         -1.4751  -12.9522  -42.8553 C.3       5 UNK        -0.1800 
     49 N           0.8929  -13.3940  -43.2870 N.am      5 UNK        -0.5000 
     50 C           2.0256  -13.9963  -43.6771 C.2       4 UNK         0.5000 
     51 O           2.0743  -15.1591  -44.0793 O.2       4 UNK        -0.5000 
     52 CA          3.2962  -13.1345  -43.6342 C.3       4 UNK         0.1400 
     53 CB          4.5464  -13.8674  -44.1541 C.3       4 UNK        -0.1800 
     54 N           3.0643  -11.9403  -44.4380 N.am      4 UNK        -0.5000 
     55 C           3.4240  -10.6933  -44.1087 C.2       3 UNK         0.5000 
     56 O           4.0407  -10.4127  -43.0801 O.2       3 UNK        -0.5000 
     57 CA          3.0288   -9.5604  -45.0805 C.3       3 UNK         0.1400 
     58 CB          4.2532   -9.0880  -45.8792 C.3       3 UNK        -0.1800 
     59 N           1.9673   -9.9382  -46.0168 N.am      3 UNK        -0.5000 
     60 C           0.6875  -10.1500  -45.6734 C.2       2 UNK         0.5000 
     61 O           0.2520   -9.9666  -44.5364 O.2       2 UNK        -0.5000 
     62 CA         -0.2623  -10.6899  -46.7637 C.3       2 UNK         0.1400 
     63 CB         -1.1346   -9.5569  -47.3247 C.3       2 UNK        -0.1800 
     64 N           0.4150  -11.3611  -47.8772 N.am      2 UNK        -0.5000 
     65 C           1.1818  -12.4571  -47.7768 C.2       1 UNK         0.5000 
     66 O           1.3926  -13.0387  -46.7138 O.2       1 UNK        -0.5000 
     67 C          -0.5547  -23.0946  -47.7720 C.2       11 UNK         0.5000 
     68 O          -0.5789  -24.1263  -48.4412 O.2       11 UNK        -0.5000 
     69 N          -1.6279  -22.3117  -47.5868 N.am      12 UNK        -0.5000 
     70 CA         -2.9650  -22.6090  -48.1004 C.3       12 UNK         0.1400 
     71 CB         -3.9122  -21.4356  -47.8185 C.3       12 UNK        -0.1800 
     72 C          -3.5412  -23.9221  -47.5445 C.2       12 UNK         0.5000 
     73 O          -4.0968  -24.7043  -48.3144 O.2       12 UNK        -0.5000 
     74 N          -3.3643  -24.1638  -46.2381 N.am      13 UNK        -0.5000 
     75 CA         -3.7489  -25.4081  -45.5697 C.3       13 UNK         0.1400 
     76 CB         -3.5811  -25.2585  -44.0504 C.3       13 UNK        -0.1800 
     77 C          -2.9719  -26.6287  -46.0985 C.2       13 UNK         0.5000 
     78 O          -3.5844  -27.6607  -46.3748 O.2       13 UNK        -0.5000 
     79 N          -1.6528  -26.4759  -46.2878 N.am      14 UNK        -0.5000 
     80 CA         -0.7734  -27.4805  -46.8954 C.3       14 UNK         0.1400 
     81 CB          0.6890  -27.0289  -46.7663 C.3       14 UNK        -0.1800 
     82 C          -1.1269  -27.7820  -48.3662 C.2       14 UNK         0.5000 
     83 O          -1.0095  -28.9285  -48.7989 O.2       14 UNK        -0.5000 
     84 N          -1.6059  -26.7607  -49.0881 N.am      15 UNK        -0.5000 
     85 CA         -2.1404  -26.8410  -50.4486 C.3       15 UNK         0.1400 
     86 CB         -2.0071  -25.4596  -51.1143 C.3       15 UNK        -0.1800 
     87 C          -3.5975  -27.3544  -50.5130 C.2       15 UNK         0.5000 
     88 O          -4.2064  -27.2834  -51.5805 O.2       15 UNK        -0.5000 
     89 N          -4.1434  -27.8450  -49.3891 N.am      16 UNK        -0.5000 
     90 CA         -5.4835  -28.4198  -49.2268 C.3       16 UNK         0.1400 
     91 CB         -5.6244  -29.7243  -50.0393 C.3       16 UNK        -0.1800 
     92 C          -6.6163  -27.4083  -49.4985 C.2       16 UNK         0.5000 
     93 O          -7.6477  -27.7691  -50.0680 O.2       16 UNK        -0.5000 
     94 N          -6.3928  -26.1557  -49.0770 N.am      17 UNK        -0.5000 
     95 CA         -7.2823  -24.9961  -49.1833 C.3       17 UNK         0.1400 
     96 CB         -8.6196  -25.2384  -48.4516 C.3       17 UNK        -0.1800 
     97 C          -7.4656  -24.4754  -50.6235 C.2       17 UNK         0.5000 
     98 O          -8.4204  -23.7402  -50.8806 O.2       17 UNK        -0.5000 
     99 N          -6.5420  -24.8258  -51.5333 N.am      18 UNK        -0.5000 
    100 CA        -6.4956  -24.3003  -52.9008 C.3       18 UNK         0.1400 
    101 CB        -5.4831  -25.1008  -53.7334 C.3       18 UNK        -0.1800 
    102 C         -6.1588  -22.7978  -52.9260 C.2       18 UNK         0.5000 
    103 O         -6.8214  -22.0398  -53.6347 O.2       18 UNK        -0.5000 
    104 N         -5.1566  -22.4088  -52.1183 N.am      19 UNK        -0.5000 
    105 CA        -4.7415  -21.0339  -51.8047 C.3       19 UNK         0.1400 
    106 CB        -5.8090  -20.3658  -50.9126 C.3       19 UNK        -0.1800 
    107 C         -4.3924  -20.1700  -53.0382 C.2       19 UNK         0.5000 
    108 O         -4.6114  -18.9590  -53.0140 O.2       19 UNK        -0.5000 
    109 N         -3.8630  -20.8021  -54.0962 N.am      20 UNK        -0.5000 
    110 CA        -3.6762  -20.2174  -55.4297 C.3       20 UNK         0.1400 
    111 CB        -3.0765  -21.2783  -56.3651 C.3       20 UNK        -0.1800 
    112 C         -2.8347  -18.9271  -55.4629 C.2       20 UNK         0.5000 
    113 O         -3.1771  -17.9946  -56.1913 O.2       20 UNK        -0.5000 
    114 N         -1.7774  -18.8765  -54.6427 N.am      21 UNK        -0.5000 
    115 CA        -0.8853  -17.7215  -54.5089 C.3       21 UNK         0.1400 
    116 CB         0.3881  -18.1608  -53.7777 C.3       21 UNK        -0.1800 
    117 C         -1.5333  -16.4992  -53.8234 C.2       21 UNK         0.5000 
    118 O         -1.0407  -15.3848  -54.0042 O.2       21 UNK        -0.5000 
    119 N         -2.6360  -16.7113  -53.0924 N.am      22 UNK        -0.5000 
    120 CA        -3.4998  -15.6457  -52.5602 C.3       22 UNK         0.1400 
    121 C         -4.5355  -15.1159  -53.5994 C.2       22 UNK         0.5000 
    122 N         -4.6347  -15.6660  -54.8053 N.am      22 UNK        -0.7600 
    123 O         -5.2582  -14.1653  -53.3126 O.2       22 UNK        -0.5000 
    124 C124       -4.1961  -16.0702  -51.2393 C.3       23 UNK        -0.0398 
    125 S125       -3.0449  -16.2057  -49.8297 S.3       23 UNK        -0.2404 
    126 C126       -2.6035  -17.9815  -49.8185 C.3       23 UNK        -0.0205 
    127 H127        2.5962   -8.9013  -50.8435 H         1 UNK         0.0600 
    128 H128        4.0327   -9.7898  -51.3620 H         1 UNK         0.0600 
    129 H129        2.4400  -10.2566  -51.9655 H         1 UNK         0.0600 
    130 H130        1.6734  -12.1003  -50.9787 H         1 UNK         0.3000 
    131 H131        2.8401  -13.3476  -48.7726 H         1 UNK         0.0600 
    132 H132        0.8843  -14.8995  -48.8522 H         1 UNK         0.0800 
    133 H133        0.0551  -13.8296  -49.9515 H         1 UNK         0.0800 
    134 H134        3.1615  -16.9736  -50.9293 H         1 UNK         0.0800 
    135 H135        2.6955  -16.4589  -49.3299 H         1 UNK         0.0800 
    136 H136       -0.4103  -16.2903  -50.0286 H         1 UNK         0.1150 
    137 H137       -1.5127  -20.4168  -50.1546 H         1 UNK         0.1150 
    138 H138        2.5903  -19.2807  -50.6174 H         1 UNK         0.1150 
    139 H139        0.0815  -22.1106  -50.5030 H         1 UNK         0.0800 
    140 H140        1.3464  -21.6160  -51.5955 H         1 UNK         0.0800 
    141 H141        0.8533  -20.6751  -47.8952 H         1 UNK         0.0800 
    142 H142        2.3312  -21.2212  -47.1778 H         1 UNK         0.0800 
    143 H143        1.4017  -23.5664  -47.0462 H         1 UNK         0.0600 
    144 H144        0.7372  -21.3829  -45.3916 H         1 UNK         0.3000 
    145 H145       -0.9829  -23.1823  -42.8227 H         1 UNK         0.0600 
    146 H146        0.7602  -21.9992  -41.5074 H         1 UNK         0.0600 
    147 H147        1.4541  -23.3720  -42.3579 H         1 UNK         0.0600 
    148 H148        1.7191  -21.7422  -42.9629 H         1 UNK         0.0600 
    149 H149       -0.4103  -20.4092  -43.1267 H         1 UNK         0.3000 
    150 H150       -3.4267  -19.5487  -44.8971 H         1 UNK         0.0600 
    151 H151       -3.9519  -19.6404  -42.4540 H         1 UNK         0.0600 
    152 H152       -3.5706  -18.0055  -42.9731 H         1 UNK         0.0600 
    153 H153       -2.3781  -18.9470  -42.0814 H         1 UNK         0.0600 
    154 H154       -1.2718  -17.9127  -44.0674 H         1 UNK         0.3000 
    155 H155        0.7473  -18.2533  -47.0316 H         1 UNK         0.0600 
    156 H156       -0.8718  -16.4740  -47.4960 H         1 UNK         0.0600 
    157 H157        0.5283  -15.7535  -46.7071 H         1 UNK         0.0600 
    158 H158       -0.9586  -16.0238  -45.8055 H         1 UNK         0.0600 
    159 H159        1.2540  -16.8211  -44.6456 H         1 UNK         0.3000 
    160 H160        2.7534  -19.4442  -42.7331 H         1 UNK         0.0600 
    161 H161        4.5638  -17.7108  -42.6749 H         1 UNK         0.0600 
    162 H162        3.9329  -17.0041  -44.1626 H         1 UNK         0.0600 
    163 H163        4.5772  -18.6368  -44.1681 H         1 UNK         0.0600 
    164 H164        2.1586  -16.6141  -42.3947 H         1 UNK         0.3000 
    165 H165       -0.9138  -17.1306  -40.6620 H         1 UNK         0.0600 
    166 H166        0.2751  -15.8786  -38.8839 H         1 UNK         0.0600 
    167 H167        0.8275  -17.5454  -38.9204 H         1 UNK         0.0600 
    168 H168        1.8352  -16.2757  -39.6048 H         1 UNK         0.0600 
    169 H169        0.6719  -14.8006  -41.2230 H         1 UNK         0.3000 
    170 H170       -0.6533  -14.1214  -44.4467 H         1 UNK         0.0600 
    171 H171       -2.4913  -13.3403  -42.9371 H         1 UNK         0.0600 
    172 H172       -1.2976  -12.7130  -41.8061 H         1 UNK         0.0600 
    173 H173       -1.4379  -12.0224  -43.4232 H         1 UNK         0.0600 
    174 H174        0.9446  -12.4290  -42.9931 H         1 UNK         0.3000 
    175 H175        3.4608  -12.8654  -42.5889 H         1 UNK         0.0600 
    176 H176        5.4255  -13.2242  -44.1126 H         1 UNK         0.0600 
    177 H177        4.7614  -14.7492  -43.5500 H         1 UNK         0.0600 
    178 H178        4.4191  -14.1947  -45.1868 H         1 UNK         0.0600 
    179 H179        2.5251  -12.0935  -45.2849 H         1 UNK         0.3000 
    180 H180        2.6702   -8.7225  -44.4791 H         1 UNK         0.0600 
    181 H181        4.6731   -9.8935  -46.4829 H         1 UNK         0.0600 
    182 H182        5.0410   -8.7327  -45.2137 H         1 UNK         0.0600 
    183 H183        3.9971   -8.2660  -46.5478 H         1 UNK         0.0600 
    184 H184        2.2557  -10.1243  -46.9706 H         1 UNK         0.3000 
    185 H185       -0.9159  -11.4228  -46.2860 H         1 UNK         0.0600 
    186 H186       -1.8739   -9.9388  -48.0290 H         1 UNK         0.0600 
    187 H187       -1.6800   -9.0509  -46.5268 H         1 UNK         0.0600 
    188 H188       -0.5346   -8.8057  -47.8399 H         1 UNK         0.0600 
    189 H189        0.3129  -10.9370  -48.7876 H         1 UNK         0.3000 
    190 H190       -1.5224  -21.4412  -47.0700 H         1 UNK         0.3000 
    191 H191       -2.8839  -22.7208  -49.1831 H         1 UNK         0.0600 
    192 H192       -3.9493  -21.1917  -46.7573 H         1 UNK         0.0600 
    193 H193       -4.9294  -21.6682  -48.1339 H         1 UNK         0.0600 
    194 H194       -3.5989  -20.5422  -48.3558 H         1 UNK         0.0600 
    195 H195       -2.9451  -23.4422  -45.6586 H         1 UNK         0.3000 
    196 H196       -4.8079  -25.5781  -45.7749 H         1 UNK         0.0600 
    197 H197       -2.5447  -25.0669  -43.7735 H         1 UNK         0.0600 
    198 H198       -3.8972  -26.1645  -43.5322 H         1 UNK         0.0600 
    199 H199       -4.1854  -24.4361  -43.6673 H         1 UNK         0.0600 
    200 H200       -1.2142  -25.6078  -45.9917 H         1 UNK         0.3000 
    201 H201       -0.8924  -28.4082  -46.3320 H         1 UNK         0.0600 
    202 H202        0.8714  -26.0950  -47.2979 H         1 UNK         0.0600 
    203 H203        1.3669  -27.7782  -47.1769 H         1 UNK         0.0600 
    204 H204        0.9641  -26.8780  -45.7223 H         1 UNK         0.0600 
    205 H205       -1.5942  -25.8357  -48.6696 H         1 UNK         0.3000 
    206 H206       -1.5311  -27.5458  -51.0174 H         1 UNK         0.0600 
    207 H207       -0.9788  -25.0998  -51.0740 H         1 UNK         0.0600 
    208 H208       -2.2919  -25.4992  -52.1660 H         1 UNK         0.0600 
    209 H209       -2.6398  -24.7172  -50.6290 H         1 UNK         0.0600 
    210 H210       -3.5900  -27.8112  -48.5416 H         1 UNK         0.3000 
    211 H211       -5.5691  -28.6844  -48.1720 H         1 UNK         0.0600 
    212 H212       -5.6137  -29.5374  -51.1135 H         1 UNK         0.0600 
    213 H213       -6.5617  -30.2306  -49.8060 H         1 UNK         0.0600 
    214 H214       -4.8165  -30.4195  -49.8113 H         1 UNK         0.0600 
    215 H215       -5.4788  -25.9384  -48.6859 H         1 UNK         0.3000 
    216 H216       -6.7731  -24.1916  -48.6513 H         1 UNK         0.0600 
    217 H217       -8.4543  -25.6037  -47.4381 H         1 UNK         0.0600 
    218 H218       -9.1937  -24.3147  -48.3712 H         1 UNK         0.0600 
    219 H219       -9.2446  -25.9631  -48.9737 H         1 UNK         0.0600 
    220 H220       -5.8135  -25.4732  -51.2635 H         1 UNK         0.3000 
    221 H221       -7.4826  -24.4318  -53.3494 H         1 UNK         0.0600 
    222 H222       -4.4745  -25.0283  -53.3259 H         1 UNK         0.0600 
    223 H223       -5.7521  -26.1567  -53.7697 H         1 UNK         0.0600 
    224 H224       -5.4494  -24.7384  -54.7616 H         1 UNK         0.0600 
    225 H225       -4.6834  -23.1329  -51.5981 H         1 UNK         0.3000 
    226 H226       -3.8240  -21.1152  -51.2206 H         1 UNK         0.0600 
    227 H227       -6.0804  -21.0030  -50.0720 H         1 UNK         0.0600 
    228 H228       -5.4519  -19.4212  -50.5022 H         1 UNK         0.0600 
    229 H229       -6.7214  -20.1550  -51.4719 H         1 UNK         0.0600 
    230 H230       -3.7112  -21.7969  -54.0208 H         1 UNK         0.3000 
    231 H231       -4.6690  -19.9608  -55.8052 H         1 UNK         0.0600 
    232 H232       -3.7278  -22.1491  -56.4435 H         1 UNK         0.0600 
    233 H233       -2.1009  -21.6182  -56.0152 H         1 UNK         0.0600 
    234 H234       -2.9444  -20.8820  -57.3728 H         1 UNK         0.0600 
    235 H235       -1.5778  -19.6780  -54.0629 H         1 UNK         0.3000 
    236 H236       -0.5971  -17.4010  -55.5124 H         1 UNK         0.0600 
    237 H237        1.0473  -17.3149  -53.5767 H         1 UNK         0.0600 
    238 H238        0.1441  -18.6238  -52.8253 H         1 UNK         0.0600 
    239 H239        0.9529  -18.8840  -54.3658 H         1 UNK         0.0600 
    240 H240       -3.0214  -17.6468  -53.0406 H         1 UNK         0.3000 
    241 H241       -2.8718  -14.7844  -52.3248 H         1 UNK         0.0600 
    242 H242       -5.3082  -15.2977  -55.4580 H         1 UNK         0.3800 
    243 H243       -4.0513  -16.4462  -55.0812 H         1 UNK         0.3800 
    244 H244       -4.9354  -15.3235  -50.9448 H         1 UNK         0.0800 
    245 H245       -4.7569  -16.9958  -51.3642 H         1 UNK         0.0800 
    246 H246       -3.2106  -18.5168  -50.5471 H         1 UNK         0.0800 
    247 H247       -2.8714  -18.3779  -48.8390 H         1 UNK         0.0800 
@<TRIPOS>BOND
     1    1    2 1    
     2    1  127 1    
     3    1  128 1    
     4    1  129 1    
     5    2    3 2    
     6    2    4 am   BACKBONE|DICT|INTERRES
     7    4    5 1    
     8    4  130 1    
     9    5    6 1    
    10    5   65 1    
    11    5  131 1    
    12    6    7 1    
    13    6  132 1    
    14    6  133 1    
    15    7    8 1    
    16    8    9 1    
    17    8  134 1    
    18    8  135 1    
    19    9   10 ar   
    20    9   14 ar   
    21   10   11 ar   
    22   10  136 1    
    23   11   12 ar   
    24   11  126 1    
    25   12   13 ar   
    26   12  137 1    
    27   13   14 ar   
    28   13   15 1    
    29   14  138 1    
    30   15   16 1    
    31   15  139 1    
    32   15  140 1    
    33   16   17 1    
    34   17   18 1    
    35   17  141 1    
    36   17  142 1    
    37   18   19 1    
    38   18   67 1    
    39   18  143 1    
    40   19   20 am   BACKBONE|DICT|INTERRES
    41   19  144 1    
    42   20   21 2    
    43   20   22 1    
    44   22   23 1    
    45   22   24 1    
    46   22  145 1    
    47   23  146 1    
    48   23  147 1    
    49   23  148 1    
    50   24   25 am   BACKBONE|DICT|INTERRES
    51   24  149 1    
    52   25   26 2    
    53   25   27 1    
    54   27   28 1    
    55   27   29 1    
    56   27  150 1    
    57   28  151 1    
    58   28  152 1    
    59   28  153 1    
    60   29   30 am   BACKBONE|DICT|INTERRES
    61   29  154 1    
    62   30   31 2    
    63   30   32 1    
    64   32   33 1    
    65   32   34 1    
    66   32  155 1    
    67   33  156 1    
    68   33  157 1    
    69   33  158 1    
    70   34   35 am   BACKBONE|DICT|INTERRES
    71   34  159 1    
    72   35   36 2    
    73   35   37 1    
    74   37   38 1    
    75   37   39 1    
    76   37  160 1    
    77   38  161 1    
    78   38  162 1    
    79   38  163 1    
    80   39   40 am   BACKBONE|DICT|INTERRES
    81   39  164 1    
    82   40   41 2    
    83   40   42 1    
    84   42   43 1    
    85   42   44 1    
    86   42  165 1    
    87   43  166 1    
    88   43  167 1    
    89   43  168 1    
    90   44   45 am   BACKBONE|DICT|INTERRES
    91   44  169 1    
    92   45   46 2    
    93   45   47 1    
    94   47   48 1    
    95   47   49 1    
    96   47  170 1    
    97   48  171 1    
    98   48  172 1    
    99   48  173 1    
   100   49   50 am   BACKBONE|DICT|INTERRES
   101   49  174 1    
   102   50   51 2    
   103   50   52 1    
   104   52   53 1    
   105   52   54 1    
   106   52  175 1    
   107   53  176 1    
   108   53  177 1    
   109   53  178 1    
   110   54   55 am   BACKBONE|DICT|INTERRES
   111   54  179 1    
   112   55   56 2    
   113   55   57 1    
   114   57   58 1    
   115   57   59 1    
   116   57  180 1    
   117   58  181 1    
   118   58  182 1    
   119   58  183 1    
   120   59   60 am   BACKBONE|DICT|INTERRES
   121   59  184 1    
   122   60   61 2    
   123   60   62 1    
   124   62   63 1    
   125   62   64 1    
   126   62  185 1    
   127   63  186 1    
   128   63  187 1    
   129   63  188 1    
   130   64   65 am   BACKBONE|DICT|INTERRES
   131   64  189 1    
   132   65   66 2    
   133   67   68 2    
   134   67   69 am   BACKBONE|DICT|INTERRES
   135   69   70 1    
   136   69  190 1    
   137   70   71 1    
   138   70   72 1    
   139   70  191 1    
   140   71  192 1    
   141   71  193 1    
   142   71  194 1    
   143   72   73 2    
   144   72   74 am   BACKBONE|DICT|INTERRES
   145   74   75 1    
   146   74  195 1    
   147   75   76 1    
   148   75   77 1    
   149   75  196 1    
   150   76  197 1    
   151   76  198 1    
   152   76  199 1    
   153   77   78 2    
   154   77   79 am   BACKBONE|DICT|INTERRES
   155   79   80 1    
   156   79  200 1    
   157   80   81 1    
   158   80   82 1    
   159   80  201 1    
   160   81  202 1    
   161   81  203 1    
   162   81  204 1    
   163   82   83 2    
   164   82   84 am   BACKBONE|DICT|INTERRES
   165   84   85 1    
   166   84  205 1    
   167   85   86 1    
   168   85   87 1    
   169   85  206 1    
   170   86  207 1    
   171   86  208 1    
   172   86  209 1    
   173   87   88 2    
   174   87   89 am   BACKBONE|DICT|INTERRES
   175   89   90 1    
   176   89  210 1    
   177   90   91 1    
   178   90   92 1    
   179   90  211 1    
   180   91  212 1    
   181   91  213 1    
   182   91  214 1    
   183   92   93 2    
   184   92   94 am   BACKBONE|DICT|INTERRES
   185   94   95 1    
   186   94  215 1    
   187   95   96 1    
   188   95   97 1    
   189   95  216 1    
   190   96  217 1    
   191   96  218 1    
   192   96  219 1    
   193   97   98 2    
   194   97   99 am   BACKBONE|DICT|INTERRES
   195   99  100 1    
   196   99  220 1    
   197  100  101 1    
   198  100  102 1    
   199  100  221 1    
   200  101  222 1    
   201  101  223 1    
   202  101  224 1    
   203  102  103 2    
   204  102  104 am   BACKBONE|DICT|INTERRES
   205  104  105 1    
   206  104  225 1    
   207  105  106 1    
   208  105  107 1    
   209  105  226 1    
   210  106  227 1    
   211  106  228 1    
   212  106  229 1    
   213  107  108 2    
   214  107  109 am   BACKBONE|DICT|INTERRES
   215  109  110 1    
   216  109  230 1    
   217  110  111 1    
   218  110  112 1    
   219  110  231 1    
   220  111  232 1    
   221  111  233 1    
   222  111  234 1    
   223  112  113 2    
   224  112  114 am   BACKBONE|DICT|INTERRES
   225  114  115 1    
   226  114  235 1    
   227  115  116 1    
   228  115  117 1    
   229  115  236 1    
   230  116  237 1    
   231  116  238 1    
   232  116  239 1    
   233  117  118 2    
   234  117  119 am   BACKBONE|DICT|INTERRES
   235  119  120 1    
   236  119  240 1    
   237  120  121 1    
   238  120  124 1    
   239  120  241 1    
   240  121  122 am   BACKBONE|DICT|INTERRES
   241  121  123 2    
   242  122  242 1    
   243  122  243 1    
   244  124  125 1    
   245  124  244 1    
   246  124  245 1    
   247  125  126 1    
   248  126  246 1    
   249  126  247 1    
@<TRIPOS>SUBSTRUCTURE
     1 UNK         1 GROUP             0       ****    0 ROOT    
