@<TRIPOS>MOLECULE
3R540
247   249    1
SMALL
USER_CHARGES


@<TRIPOS>ATOM
      1 CA         -1.6870  -16.0229  -42.2198 C.3       0 UNK        -0.1800 
      2 C          -2.1890  -14.8936  -43.1101 C.2       0 UNK         0.5000 
      3 O          -2.7794  -13.9336  -42.6140 O.2       0 UNK        -0.5000 
      4 N          -1.9626  -15.0089  -44.4239 N.am      1 UNK        -0.5000 
      5 CA         -2.4102  -14.0773  -45.4646 C.3       1 UNK         0.1400 
      6 C6         -2.4761  -14.7617  -46.8550 C.3       23 UNK        -0.0398 
      7 S7         -3.6318  -16.1765  -46.8732 S.3       23 UNK        -0.2404 
      8 C8         -3.6276  -16.6355  -48.6338 C.3       23 UNK        -0.0205 
      9 C9         -2.4587  -17.5414  -48.9966 C.ar      23 UNK        -0.0193 
     10 C10        -1.2444  -16.9925  -49.4129 C.ar      23 UNK        -0.1150 
     11 C11        -0.1816  -17.8212  -49.7810 C.ar      23 UNK        -0.0193 
     12 C12        -0.3454  -19.2084  -49.7483 C.ar      23 UNK        -0.1150 
     13 C13        -1.5577  -19.7787  -49.3397 C.ar      23 UNK        -0.0193 
     14 C14        -2.6026  -18.9319  -48.9527 C.ar      23 UNK        -0.1150 
     15 C15        -1.7997  -21.2911  -49.3410 C.3       23 UNK        -0.0205 
     16 S16        -0.3074  -22.3468  -49.3889 S.3       23 UNK        -0.2404 
     17 C17         0.3598  -22.0441  -47.7206 C.3       23 UNK        -0.0398 
     18 CA          0.1691  -23.2091  -46.7235 C.3       11 UNK         0.1400 
     19 N           0.9048  -22.9483  -45.4828 N.am      11 UNK        -0.5000 
     20 C           1.0019  -23.7741  -44.4309 C.2       10 UNK         0.5000 
     21 O           0.4935  -24.8943  -44.3848 O.2       10 UNK        -0.5000 
     22 CA          1.7645  -23.2309  -43.2103 C.3       10 UNK         0.1400 
     23 CB          3.2835  -23.3502  -43.4089 C.3       10 UNK        -0.1800 
     24 N           1.4099  -21.8357  -42.9484 N.am      10 UNK        -0.5000 
     25 C           0.2799  -21.4517  -42.3373 C.2       9 UNK         0.5000 
     26 O          -0.5277  -22.2365  -41.8399 O.2       9 UNK        -0.5000 
     27 CA         -0.0136  -19.9391  -42.2945 C.3       9 UNK         0.1400 
     28 CB          0.5505  -19.3167  -41.0093 C.3       9 UNK        -0.1800 
     29 N           0.5012  -19.2174  -43.4627 N.am      9 UNK        -0.5000 
     30 C           0.0237  -19.3850  -44.7053 C.2       8 UNK         0.5000 
     31 O          -0.9006  -20.1481  -44.9769 O.2       8 UNK        -0.5000 
     32 CA          0.7072  -18.6158  -45.8481 C.3       8 UNK         0.1400 
     33 CB          0.0442  -17.2555  -46.0657 C.3       8 UNK        -0.1800 
     34 N           2.1455  -18.4433  -45.6767 N.am      8 UNK        -0.5000 
     35 C           3.0373  -19.4418  -45.6337 C.2       7 UNK         0.5000 
     36 O           2.7255  -20.6338  -45.6193 O.2       7 UNK        -0.5000 
     37 CA          4.5182  -19.0367  -45.5971 C.3       7 UNK         0.1400 
     38 CB          4.9974  -18.6527  -47.0058 C.3       7 UNK        -0.1800 
     39 N           4.7209  -17.9033  -44.6963 N.am      7 UNK        -0.5000 
     40 C           5.2249  -17.9938  -43.4590 C.2       6 UNK         0.5000 
     41 O           5.6666  -19.0355  -42.9725 O.2       6 UNK        -0.5000 
     42 CA          5.2240  -16.7073  -42.6064 C.3       6 UNK         0.1400 
     43 CB          6.5599  -15.9638  -42.7557 C.3       6 UNK        -0.1800 
     44 N           4.1280  -15.7824  -42.9103 N.am      6 UNK        -0.5000 
     45 C           2.8247  -16.0725  -42.7995 C.2       5 UNK         0.5000 
     46 O           2.3919  -17.1671  -42.4414 O.2       5 UNK        -0.5000 
     47 CA          1.8252  -14.9748  -43.2038 C.3       5 UNK         0.1400 
     48 CB          1.5309  -14.0624  -42.0048 C.3       5 UNK        -0.1800 
     49 N           2.1800  -14.1636  -44.3786 N.am      5 UNK        -0.5000 
     50 C           2.6434  -14.6120  -45.5593 C.2       4 UNK         0.5000 
     51 O           2.9666  -15.7827  -45.7627 O.2       4 UNK        -0.5000 
     52 CA          2.7521  -13.6169  -46.7300 C.3       4 UNK         0.1400 
     53 CB          1.9422  -14.1183  -47.9370 C.3       4 UNK        -0.1800 
     54 N           2.3026  -12.2687  -46.3850 N.am      4 UNK        -0.5000 
     55 C           3.0976  -11.3048  -45.8996 C.2       3 UNK         0.5000 
     56 O           4.3021  -11.4571  -45.6936 O.2       3 UNK        -0.5000 
     57 CA          2.4477   -9.9431  -45.5779 C.3       3 UNK         0.1400 
     58 CB          2.7250   -8.9369  -46.7054 C.3       3 UNK        -0.1800 
     59 N           1.0025  -10.0072  -45.3475 N.am      3 UNK        -0.5000 
     60 C           0.4128  -10.6578  -44.3362 C.2       2 UNK         0.5000 
     61 O           1.0393  -11.2865  -43.4841 O.2       2 UNK        -0.5000 
     62 CA         -1.1281  -10.6277  -44.2684 C.3       2 UNK         0.1400 
     63 CB         -1.7820   -9.6228  -45.2436 C.3       2 UNK        -0.1800 
     64 N          -1.7180  -11.9573  -44.4506 N.am      2 UNK        -0.5000 
     65 C          -1.5490  -12.7937  -45.4841 C.2       1 UNK         0.5000 
     66 O          -0.7647  -12.5857  -46.4124 O.2       1 UNK        -0.5000 
     67 C          -1.3260  -23.5029  -46.4726 C.2       11 UNK         0.5000 
     68 O          -1.8642  -24.4290  -47.0781 O.2       11 UNK        -0.5000 
     69 N          -1.9522  -22.7439  -45.5603 N.am      12 UNK        -0.5000 
     70 CA         -3.3685  -22.8193  -45.1824 C.3       12 UNK         0.1400 
     71 CB         -3.6432  -21.7835  -44.0808 C.3       12 UNK        -0.1800 
     72 C          -3.8672  -24.2107  -44.7380 C.2       12 UNK         0.5000 
     73 O          -5.0685  -24.4726  -44.8090 O.2       12 UNK        -0.5000 
     74 N          -2.9498  -25.0787  -44.2919 N.am      13 UNK        -0.5000 
     75 CA         -3.2308  -26.4664  -43.9306 C.3       13 UNK         0.1400 
     76 CB         -2.1040  -26.9711  -43.0157 C.3       13 UNK        -0.1800 
     77 C          -3.3910  -27.4001  -45.1494 C.2       13 UNK         0.5000 
     78 O          -3.9389  -28.4915  -44.9860 O.2       13 UNK        -0.5000 
     79 N          -2.8979  -26.9882  -46.3265 N.am      14 UNK        -0.5000 
     80 CA         -2.8311  -27.8105  -47.5364 C.3       14 UNK         0.1400 
     81 CB         -1.3527  -28.0570  -47.8790 C.3       14 UNK        -0.1800 
     82 C          -3.5530  -27.1821  -48.7409 C.2       14 UNK         0.5000 
     83 O          -4.0956  -27.9249  -49.5607 O.2       14 UNK        -0.5000 
     84 N          -3.5409  -25.8492  -48.8530 N.am      15 UNK        -0.5000 
     85 CA         -4.0784  -25.0986  -49.9865 C.3       15 UNK         0.1400 
     86 CB         -2.9969  -24.9873  -51.0815 C.3       15 UNK        -0.1800 
     87 C          -4.5892  -23.7218  -49.5295 C.2       15 UNK         0.5000 
     88 O          -4.6614  -23.4496  -48.3307 O.2       15 UNK        -0.5000 
     89 N          -4.9410  -22.8735  -50.4989 N.am      16 UNK        -0.5000 
     90 CA         -5.4045  -21.5040  -50.3175 C.3       16 UNK         0.1400 
     91 CB         -6.9183  -21.5005  -50.0418 C.3       16 UNK        -0.1800 
     92 C          -5.0853  -20.7238  -51.5985 C.2       16 UNK         0.5000 
     93 O          -4.8858  -21.3367  -52.6507 O.2       16 UNK        -0.5000 
     94 N          -5.0988  -19.3872  -51.5227 N.am      17 UNK        -0.5000 
     95 CA         -4.9582  -18.5044  -52.6888 C.3       17 UNK         0.1400 
     96 CB         -4.8603  -17.0461  -52.2200 C.3       17 UNK        -0.1800 
     97 C          -6.1059  -18.6876  -53.7044 C.2       17 UNK         0.5000 
     98 O          -5.8707  -18.6558  -54.9119 O.2       17 UNK        -0.5000 
     99 N          -7.3115  -18.9731  -53.1897 N.am      18 UNK        -0.5000 
    100 CA        -8.5001  -19.3489  -53.9603 C.3       18 UNK         0.1400 
    101 CB        -9.7186  -19.3320  -53.0246 C.3       18 UNK        -0.1800 
    102 C         -8.3802  -20.7204  -54.6601 C.2       18 UNK         0.5000 
    103 O         -9.1003  -20.9658  -55.6279 O.2       18 UNK        -0.5000 
    104 N         -7.4649  -21.5754  -54.1811 N.am      19 UNK        -0.5000 
    105 CA        -7.1095  -22.8655  -54.7771 C.3       19 UNK         0.1400 
    106 CB        -6.8810  -23.8924  -53.6533 C.3       19 UNK        -0.1800 
    107 C         -5.8791  -22.7509  -55.7045 C.2       19 UNK         0.5000 
    108 O         -5.3200  -23.7772  -56.0928 O.2       19 UNK        -0.5000 
    109 N         -5.4900  -21.5136  -56.0502 N.am      20 UNK        -0.5000 
    110 CA        -4.3976  -21.1332  -56.9467 C.3       20 UNK         0.1400 
    111 CB        -4.6313  -21.6702  -58.3756 C.3       20 UNK        -0.1800 
    112 C         -2.9998  -21.4605  -56.3847 C.2       20 UNK         0.5000 
    113 O         -2.1341  -21.9310  -57.1257 O.2       20 UNK        -0.5000 
    114 N         -2.7952  -21.1759  -55.0899 N.am      21 UNK        -0.5000 
    115 CA        -1.4780  -21.1157  -54.4523 C.3       21 UNK         0.1400 
    116 CB        -1.6372  -21.3081  -52.9324 C.3       21 UNK        -0.1800 
    117 C         -0.7716  -19.7966  -54.8414 C.2       21 UNK         0.5000 
    118 O         -0.3485  -19.6526  -55.9899 O.2       21 UNK        -0.5000 
    119 N         -0.6566  -18.8509  -53.9011 N.am      22 UNK        -0.5000 
    120 CA        -0.1620  -17.4890  -54.1582 C.3       22 UNK         0.1400 
    121 C         -1.1820  -16.6423  -54.9697 C.2       22 UNK         0.5000 
    122 N         -0.7116  -15.7602  -55.8408 N.am      22 UNK        -0.7600 
    123 O         -2.3926  -16.7484  -54.7877 O.2       22 UNK        -0.5000 
    124 C124        0.2252  -16.7551  -52.8515 C.3       23 UNK        -0.0398 
    125 S125        1.5575  -17.6141  -51.9455 S.3       23 UNK        -0.2404 
    126 C126        1.1447  -17.2170  -50.2173 C.3       23 UNK        -0.0205 
    127 H127       -2.5245  -16.4914  -41.7031 H         1 UNK         0.0600 
    128 H128       -0.9990  -15.6353  -41.4691 H         1 UNK         0.0600 
    129 H129       -1.1696  -16.7939  -42.7910 H         1 UNK         0.0600 
    130 H130       -1.4939  -15.8318  -44.7692 H         1 UNK         0.3000 
    131 H131       -3.4270  -13.7631  -45.2183 H         1 UNK         0.0600 
    132 H132       -2.8065  -14.0467  -47.6107 H         1 UNK         0.0800 
    133 H133       -1.4881  -15.1013  -47.1658 H         1 UNK         0.0800 
    134 H134       -4.5665  -17.1430  -48.8586 H         1 UNK         0.0800 
    135 H135       -3.6191  -15.7373  -49.2530 H         1 UNK         0.0800 
    136 H136       -1.1283  -15.9188  -49.4531 H         1 UNK         0.1150 
    137 H137        0.4788  -19.8328  -50.0598 H         1 UNK         0.1150 
    138 H138       -3.5415  -19.3541  -48.6266 H         1 UNK         0.1150 
    139 H139       -2.3972  -21.5674  -48.4710 H         1 UNK         0.0800 
    140 H140       -2.4030  -21.5352  -50.2132 H         1 UNK         0.0800 
    141 H141        1.4215  -21.8197  -47.8324 H         1 UNK         0.0800 
    142 H142       -0.0989  -21.1441  -47.3206 H         1 UNK         0.0800 
    143 H143        0.6062  -24.1072  -47.1648 H         1 UNK         0.0600 
    144 H144        1.4041  -22.0651  -45.4392 H         1 UNK         0.3000 
    145 H145        1.4906  -23.8368  -42.3438 H         1 UNK         0.0600 
    146 H146        3.8237  -23.0013  -42.5287 H         1 UNK         0.0600 
    147 H147        3.5724  -24.3883  -43.5775 H         1 UNK         0.0600 
    148 H148        3.6306  -22.7712  -44.2650 H         1 UNK         0.0600 
    149 H149        2.0021  -21.1289  -43.3614 H         1 UNK         0.3000 
    150 H150       -1.0989  -19.8173  -42.2780 H         1 UNK         0.0600 
    151 H151        0.1553  -19.8187  -40.1253 H         1 UNK         0.0600 
    152 H152        0.2826  -18.2629  -40.9308 H         1 UNK         0.0600 
    153 H153        1.6380  -19.3907  -40.9710 H         1 UNK         0.0600 
    154 H154        1.2663  -18.5699  -43.2970 H         1 UNK         0.3000 
    155 H155        0.5666  -19.1800  -46.7680 H         1 UNK         0.0600 
    156 H156        0.4583  -16.7523  -46.9393 H         1 UNK         0.0600 
    157 H157        0.1787  -16.6038  -45.2077 H         1 UNK         0.0600 
    158 H158       -1.0247  -17.3797  -46.2363 H         1 UNK         0.0600 
    159 H159        2.4852  -17.4839  -45.6933 H         1 UNK         0.3000 
    160 H160        5.0950  -19.9031  -45.2667 H         1 UNK         0.0600 
    161 H161        4.4595  -17.7871  -47.3955 H         1 UNK         0.0600 
    162 H162        4.8495  -19.4753  -47.7068 H         1 UNK         0.0600 
    163 H163        6.0606  -18.4123  -47.0059 H         1 UNK         0.0600 
    164 H164        4.3373  -17.0138  -44.9978 H         1 UNK         0.3000 
    165 H165        5.1164  -17.0105  -41.5630 H         1 UNK         0.0600 
    166 H166        6.7078  -15.6050  -43.7751 H         1 UNK         0.0600 
    167 H167        6.6116  -15.1054  -42.0857 H         1 UNK         0.0600 
    168 H168        7.3998  -16.6157  -42.5117 H         1 UNK         0.0600 
    169 H169        4.3864  -14.8637  -43.2390 H         1 UNK         0.3000 
    170 H170        0.8966  -15.4857  -43.4483 H         1 UNK         0.0600 
    171 H171        1.3738  -14.6409  -41.0932 H         1 UNK         0.0600 
    172 H172        2.3499  -13.3674  -41.8165 H         1 UNK         0.0600 
    173 H173        0.6236  -13.4819  -42.1686 H         1 UNK         0.0600 
    174 H174        1.9557  -13.1786  -44.3078 H         1 UNK         0.3000 
    175 H175        3.8024  -13.5875  -47.0271 H         1 UNK         0.0600 
    176 H176        2.0132  -13.4271  -48.7768 H         1 UNK         0.0600 
    177 H177        2.3172  -15.0829  -48.2802 H         1 UNK         0.0600 
    178 H178        0.8872  -14.2453  -47.6943 H         1 UNK         0.0600 
    179 H179        1.3102  -12.0859  -46.4924 H         1 UNK         0.3000 
    180 H180        2.9145   -9.5695  -44.6641 H         1 UNK         0.0600 
    181 H181        2.2613   -9.2464  -47.6429 H         1 UNK         0.0600 
    182 H182        3.7961   -8.8369  -46.8863 H         1 UNK         0.0600 
    183 H183        2.3464   -7.9462  -46.4532 H         1 UNK         0.0600 
    184 H184        0.4164   -9.5373  -46.0220 H         1 UNK         0.3000 
    185 H185       -1.3792  -10.3140  -43.2542 H         1 UNK         0.0600 
    186 H186       -2.8605   -9.5819  -45.0905 H         1 UNK         0.0600 
    187 H187       -1.4009   -8.6129  -45.0856 H         1 UNK         0.0600 
    188 H188       -1.6105   -9.8876  -46.2876 H         1 UNK         0.0600 
    189 H189       -2.2996  -12.2898  -43.6876 H         1 UNK         0.3000 
    190 H190       -1.4384  -21.9631  -45.1604 H         1 UNK         0.3000 
    191 H191       -3.9505  -22.5334  -46.0582 H         1 UNK         0.0600 
    192 H192       -4.6845  -21.8175  -43.7576 H         1 UNK         0.0600 
    193 H193       -3.4515  -20.7706  -44.4346 H         1 UNK         0.0600 
    194 H194       -3.0196  -21.9575  -43.2032 H         1 UNK         0.0600 
    195 H195       -1.9799  -24.7921  -44.2742 H         1 UNK         0.3000 
    196 H196       -4.1648  -26.4989  -43.3658 H         1 UNK         0.0600 
    197 H197       -2.3021  -27.9882  -42.6753 H         1 UNK         0.0600 
    198 H198       -2.0044  -26.3454  -42.1285 H         1 UNK         0.0600 
    199 H199       -1.1424  -26.9792  -43.5304 H         1 UNK         0.0600 
    200 H200       -2.4947  -26.0577  -46.3948 H         1 UNK         0.3000 
    201 H201       -3.2986  -28.7821  -47.3648 H         1 UNK         0.0600 
    202 H202       -0.8440  -28.5822  -47.0704 H         1 UNK         0.0600 
    203 H203       -0.8209  -27.1211  -48.0569 H         1 UNK         0.0600 
    204 H204       -1.2540  -28.6684  -48.7769 H         1 UNK         0.0600 
    205 H205       -3.0892  -25.2810  -48.1387 H         1 UNK         0.3000 
    206 H206       -4.9419  -25.6281  -50.3942 H         1 UNK         0.0600 
    207 H207       -2.6316  -25.9710  -51.3769 H         1 UNK         0.0600 
    208 H208       -3.3810  -24.5106  -51.9837 H         1 UNK         0.0600 
    209 H209       -2.1408  -24.4060  -50.7379 H         1 UNK         0.0600 
    210 H210       -4.8050  -23.1274  -51.4692 H         1 UNK         0.3000 
    211 H211       -4.8751  -21.0440  -49.4824 H         1 UNK         0.0600 
    212 H212       -7.4781  -21.9483  -50.8642 H         1 UNK         0.0600 
    213 H213       -7.2929  -20.4862  -49.9006 H         1 UNK         0.0600 
    214 H214       -7.1547  -22.0591  -49.1360 H         1 UNK         0.0600 
    215 H215       -5.2750  -18.9396  -50.6357 H         1 UNK         0.3000 
    216 H216       -4.0257  -18.7578  -53.1980 H         1 UNK         0.0600 
    217 H217       -4.7785  -16.3688  -53.0713 H         1 UNK         0.0600 
    218 H218       -3.9742  -16.8932  -51.6044 H         1 UNK         0.0600 
    219 H219       -5.7339  -16.7450  -51.6408 H         1 UNK         0.0600 
    220 H220       -7.4109  -18.9766  -52.1856 H         1 UNK         0.3000 
    221 H221       -8.6516  -18.5967  -54.7372 H         1 UNK         0.0600 
    222 H222       -9.6140  -20.0553  -52.2147 H         1 UNK         0.0600 
    223 H223       -9.8617  -18.3469  -52.5801 H         1 UNK         0.0600 
    224 H224      -10.6324  -19.5771  -53.5675 H         1 UNK         0.0600 
    225 H225       -6.8675  -21.2749  -53.4222 H         1 UNK         0.3000 
    226 H226       -7.9377  -23.2261  -55.3902 H         1 UNK         0.0600 
    227 H227       -7.7246  -23.9207  -52.9635 H         1 UNK         0.0600 
    228 H228       -6.7642  -24.8967  -54.0621 H         1 UNK         0.0600 
    229 H229       -5.9830  -23.6720  -53.0788 H         1 UNK         0.0600 
    230 H230       -5.9939  -20.7340  -55.6469 H         1 UNK         0.3000 
    231 H231       -4.4370  -20.0446  -57.0084 H         1 UNK         0.0600 
    232 H232       -3.9030  -21.2529  -59.0719 H         1 UNK         0.0600 
    233 H233       -5.6209  -21.3979  -58.7424 H         1 UNK         0.0600 
    234 H234       -4.5413  -22.7555  -58.4242 H         1 UNK         0.0600 
    235 H235       -3.5800  -20.8665  -54.5322 H         1 UNK         0.3000 
    236 H236       -0.8627  -21.9368  -54.8256 H         1 UNK         0.0600 
    237 H237       -2.1095  -22.2646  -52.7079 H         1 UNK         0.0600 
    238 H238       -0.6674  -21.3045  -52.4329 H         1 UNK         0.0600 
    239 H239       -2.2459  -20.5253  -52.4806 H         1 UNK         0.0600 
    240 H240       -1.0155  -19.0269  -52.9752 H         1 UNK         0.3000 
    241 H241        0.7431  -17.5800  -54.7627 H         1 UNK         0.0600 
    242 H242        0.2775  -15.6506  -56.0049 H         1 UNK         0.3800 
    243 H243       -1.3635  -15.1951  -56.3627 H         1 UNK         0.3800 
    244 H244        0.5760  -15.7446  -53.0683 H         1 UNK         0.0800 
    245 H245       -0.6523  -16.6417  -52.2139 H         1 UNK         0.0800 
    246 H246        1.1354  -16.1328  -50.1000 H         1 UNK         0.0800 
    247 H247        1.9356  -17.5918  -49.5660 H         1 UNK         0.0800 
@<TRIPOS>BOND
     1    1    2 1    
     2    1  127 1    
     3    1  128 1    
     4    1  129 1    
     5    2    3 2    
     6    2    4 am   BACKBONE|DICT|INTERRES
     7    4    5 1    
     8    4  130 1    
     9    5    6 1    
    10    5   65 1    
    11    5  131 1    
    12    6    7 1    
    13    6  132 1    
    14    6  133 1    
    15    7    8 1    
    16    8    9 1    
    17    8  134 1    
    18    8  135 1    
    19    9   10 ar   
    20    9   14 ar   
    21   10   11 ar   
    22   10  136 1    
    23   11   12 ar   
    24   11  126 1    
    25   12   13 ar   
    26   12  137 1    
    27   13   14 ar   
    28   13   15 1    
    29   14  138 1    
    30   15   16 1    
    31   15  139 1    
    32   15  140 1    
    33   16   17 1    
    34   17   18 1    
    35   17  141 1    
    36   17  142 1    
    37   18   19 1    
    38   18   67 1    
    39   18  143 1    
    40   19   20 am   BACKBONE|DICT|INTERRES
    41   19  144 1    
    42   20   21 2    
    43   20   22 1    
    44   22   23 1    
    45   22   24 1    
    46   22  145 1    
    47   23  146 1    
    48   23  147 1    
    49   23  148 1    
    50   24   25 am   BACKBONE|DICT|INTERRES
    51   24  149 1    
    52   25   26 2    
    53   25   27 1    
    54   27   28 1    
    55   27   29 1    
    56   27  150 1    
    57   28  151 1    
    58   28  152 1    
    59   28  153 1    
    60   29   30 am   BACKBONE|DICT|INTERRES
    61   29  154 1    
    62   30   31 2    
    63   30   32 1    
    64   32   33 1    
    65   32   34 1    
    66   32  155 1    
    67   33  156 1    
    68   33  157 1    
    69   33  158 1    
    70   34   35 am   BACKBONE|DICT|INTERRES
    71   34  159 1    
    72   35   36 2    
    73   35   37 1    
    74   37   38 1    
    75   37   39 1    
    76   37  160 1    
    77   38  161 1    
    78   38  162 1    
    79   38  163 1    
    80   39   40 am   BACKBONE|DICT|INTERRES
    81   39  164 1    
    82   40   41 2    
    83   40   42 1    
    84   42   43 1    
    85   42   44 1    
    86   42  165 1    
    87   43  166 1    
    88   43  167 1    
    89   43  168 1    
    90   44   45 am   BACKBONE|DICT|INTERRES
    91   44  169 1    
    92   45   46 2    
    93   45   47 1    
    94   47   48 1    
    95   47   49 1    
    96   47  170 1    
    97   48  171 1    
    98   48  172 1    
    99   48  173 1    
   100   49   50 am   BACKBONE|DICT|INTERRES
   101   49  174 1    
   102   50   51 2    
   103   50   52 1    
   104   52   53 1    
   105   52   54 1    
   106   52  175 1    
   107   53  176 1    
   108   53  177 1    
   109   53  178 1    
   110   54   55 am   BACKBONE|DICT|INTERRES
   111   54  179 1    
   112   55   56 2    
   113   55   57 1    
   114   57   58 1    
   115   57   59 1    
   116   57  180 1    
   117   58  181 1    
   118   58  182 1    
   119   58  183 1    
   120   59   60 am   BACKBONE|DICT|INTERRES
   121   59  184 1    
   122   60   61 2    
   123   60   62 1    
   124   62   63 1    
   125   62   64 1    
   126   62  185 1    
   127   63  186 1    
   128   63  187 1    
   129   63  188 1    
   130   64   65 am   BACKBONE|DICT|INTERRES
   131   64  189 1    
   132   65   66 2    
   133   67   68 2    
   134   67   69 am   BACKBONE|DICT|INTERRES
   135   69   70 1    
   136   69  190 1    
   137   70   71 1    
   138   70   72 1    
   139   70  191 1    
   140   71  192 1    
   141   71  193 1    
   142   71  194 1    
   143   72   73 2    
   144   72   74 am   BACKBONE|DICT|INTERRES
   145   74   75 1    
   146   74  195 1    
   147   75   76 1    
   148   75   77 1    
   149   75  196 1    
   150   76  197 1    
   151   76  198 1    
   152   76  199 1    
   153   77   78 2    
   154   77   79 am   BACKBONE|DICT|INTERRES
   155   79   80 1    
   156   79  200 1    
   157   80   81 1    
   158   80   82 1    
   159   80  201 1    
   160   81  202 1    
   161   81  203 1    
   162   81  204 1    
   163   82   83 2    
   164   82   84 am   BACKBONE|DICT|INTERRES
   165   84   85 1    
   166   84  205 1    
   167   85   86 1    
   168   85   87 1    
   169   85  206 1    
   170   86  207 1    
   171   86  208 1    
   172   86  209 1    
   173   87   88 2    
   174   87   89 am   BACKBONE|DICT|INTERRES
   175   89   90 1    
   176   89  210 1    
   177   90   91 1    
   178   90   92 1    
   179   90  211 1    
   180   91  212 1    
   181   91  213 1    
   182   91  214 1    
   183   92   93 2    
   184   92   94 am   BACKBONE|DICT|INTERRES
   185   94   95 1    
   186   94  215 1    
   187   95   96 1    
   188   95   97 1    
   189   95  216 1    
   190   96  217 1    
   191   96  218 1    
   192   96  219 1    
   193   97   98 2    
   194   97   99 am   BACKBONE|DICT|INTERRES
   195   99  100 1    
   196   99  220 1    
   197  100  101 1    
   198  100  102 1    
   199  100  221 1    
   200  101  222 1    
   201  101  223 1    
   202  101  224 1    
   203  102  103 2    
   204  102  104 am   BACKBONE|DICT|INTERRES
   205  104  105 1    
   206  104  225 1    
   207  105  106 1    
   208  105  107 1    
   209  105  226 1    
   210  106  227 1    
   211  106  228 1    
   212  106  229 1    
   213  107  108 2    
   214  107  109 am   BACKBONE|DICT|INTERRES
   215  109  110 1    
   216  109  230 1    
   217  110  111 1    
   218  110  112 1    
   219  110  231 1    
   220  111  232 1    
   221  111  233 1    
   222  111  234 1    
   223  112  113 2    
   224  112  114 am   BACKBONE|DICT|INTERRES
   225  114  115 1    
   226  114  235 1    
   227  115  116 1    
   228  115  117 1    
   229  115  236 1    
   230  116  237 1    
   231  116  238 1    
   232  116  239 1    
   233  117  118 2    
   234  117  119 am   BACKBONE|DICT|INTERRES
   235  119  120 1    
   236  119  240 1    
   237  120  121 1    
   238  120  124 1    
   239  120  241 1    
   240  121  122 am   BACKBONE|DICT|INTERRES
   241  121  123 2    
   242  122  242 1    
   243  122  243 1    
   244  124  125 1    
   245  124  244 1    
   246  124  245 1    
   247  125  126 1    
   248  126  246 1    
   249  126  247 1    
@<TRIPOS>SUBSTRUCTURE
     1 UNK         1 GROUP             0       ****    0 ROOT    
