@<TRIPOS>MOLECULE
3R540
247   249    1
SMALL
USER_CHARGES


@<TRIPOS>ATOM
      1 CA         -3.9025  -10.0724  -46.6541 C.3       0 UNK        -0.1800 
      2 C          -3.5372  -11.2250  -45.7291 C.2       0 UNK         0.5000 
      3 O          -4.2305  -11.4521  -44.7378 O.2       0 UNK        -0.5000 
      4 N          -2.4551  -11.9445  -46.0561 N.am      1 UNK        -0.5000 
      5 CA         -1.9066  -13.0913  -45.3192 C.3       1 UNK         0.1400 
      6 C6         -2.8165  -14.3495  -45.3394 C.3       23 UNK        -0.0398 
      7 S7         -3.0034  -15.0368  -47.0196 S.3       23 UNK        -0.2404 
      8 C8         -1.4719  -16.0271  -47.1054 C.3       23 UNK        -0.0205 
      9 C9         -1.2763  -16.8916  -48.3497 C.ar      23 UNK        -0.0193 
     10 C10        -2.1440  -16.8847  -49.4501 C.ar      23 UNK        -0.1150 
     11 C11        -1.9021  -17.7079  -50.5558 C.ar      23 UNK        -0.0193 
     12 C12        -0.7833  -18.5472  -50.5560 C.ar      23 UNK        -0.1150 
     13 C13         0.0873  -18.5704  -49.4637 C.ar      23 UNK        -0.0193 
     14 C14        -0.1624  -17.7321  -48.3755 C.ar      23 UNK        -0.1150 
     15 C15         1.3229  -19.4595  -49.4679 C.3       23 UNK        -0.0205 
     16 S16         1.4248  -20.5271  -47.9915 S.3       23 UNK        -0.2404 
     17 C17         0.5095  -22.0196  -48.5084 C.3       23 UNK        -0.0398 
     18 CA         -0.8531  -22.2522  -47.8042 C.3       11 UNK         0.1400 
     19 N          -0.7926  -22.0765  -46.3483 N.am      11 UNK        -0.5000 
     20 C          -1.2859  -22.9483  -45.4572 C.2       10 UNK         0.5000 
     21 O          -1.7931  -24.0279  -45.7611 O.2       10 UNK        -0.5000 
     22 CA         -1.2347  -22.5386  -43.9714 C.3       10 UNK         0.1400 
     23 CB          0.0929  -22.9811  -43.3378 C.3       10 UNK        -0.1800 
     24 N          -1.4197  -21.1045  -43.7354 N.am      10 UNK        -0.5000 
     25 C          -2.4719  -20.3748  -44.1305 C.2       9 UNK         0.5000 
     26 O          -3.4205  -20.8468  -44.7571 O.2       9 UNK        -0.5000 
     27 CA         -2.4661  -18.8664  -43.8034 C.3       9 UNK         0.1400 
     28 CB         -3.6037  -18.5177  -42.8322 C.3       9 UNK        -0.1800 
     29 N          -1.2041  -18.3593  -43.2556 N.am      9 UNK        -0.5000 
     30 C          -0.0590  -18.2451  -43.9395 C.2       8 UNK         0.5000 
     31 O           0.0886  -18.6429  -45.0959 O.2       8 UNK        -0.5000 
     32 CA          1.1270  -17.6266  -43.1780 C.3       8 UNK         0.1400 
     33 CB          1.9887  -18.7248  -42.5377 C.3       8 UNK        -0.1800 
     34 N           1.9732  -16.7998  -44.0362 N.am      8 UNK        -0.5000 
     35 C           1.5872  -15.6621  -44.6264 C.2       7 UNK         0.5000 
     36 O           0.4642  -15.1781  -44.4958 O.2       7 UNK        -0.5000 
     37 CA          2.6620  -14.9227  -45.4440 C.3       7 UNK         0.1400 
     38 CB          2.1291  -13.6535  -46.1339 C.3       7 UNK        -0.1800 
     39 N           3.7766  -14.5566  -44.5710 N.am      7 UNK        -0.5000 
     40 C           4.8388  -15.3338  -44.3185 C.2       6 UNK         0.5000 
     41 O           4.9896  -16.4434  -44.8325 O.2       6 UNK        -0.5000 
     42 CA          5.8728  -14.8374  -43.2867 C.3       6 UNK         0.1400 
     43 CB          7.3263  -15.0917  -43.7377 C.3       6 UNK        -0.1800 
     44 N           5.6755  -13.4508  -42.8499 N.am      6 UNK        -0.5000 
     45 C           5.8777  -12.3176  -43.5415 C.2       5 UNK         0.5000 
     46 O           6.2981  -12.2899  -44.6985 O.2       5 UNK        -0.5000 
     47 CA          5.5338  -10.9907  -42.8294 C.3       5 UNK         0.1400 
     48 CB          4.7363  -10.0509  -43.7509 C.3       5 UNK        -0.1800 
     49 N           4.7581  -11.2182  -41.6081 N.am      5 UNK        -0.5000 
     50 C           5.2569  -11.2628  -40.3644 C.2       4 UNK         0.5000 
     51 O           6.4350  -11.0302  -40.0932 O.2       4 UNK        -0.5000 
     52 CA          4.2869  -11.6637  -39.2316 C.3       4 UNK         0.1400 
     53 CB          3.7708  -10.4139  -38.5024 C.3       4 UNK        -0.1800 
     54 N           3.1389  -12.4502  -39.6917 N.am      4 UNK        -0.5000 
     55 C           3.2016  -13.6831  -40.2161 C.2       3 UNK         0.5000 
     56 O           4.2434  -14.3314  -40.3078 O.2       3 UNK        -0.5000 
     57 CA          1.8966  -14.2548  -40.8071 C.3       3 UNK         0.1400 
     58 CB          1.1740  -15.1394  -39.7815 C.3       3 UNK        -0.1800 
     59 N           0.9748  -13.2224  -41.2950 N.am      3 UNK        -0.5000 
     60 C           1.2547  -12.3620  -42.2822 C.2       2 UNK         0.5000 
     61 O           2.3244  -12.3617  -42.8961 O.2       2 UNK        -0.5000 
     62 CA          0.1733  -11.3230  -42.6281 C.3       2 UNK         0.1400 
     63 CB          0.7841   -9.9272  -42.8366 C.3       2 UNK        -0.1800 
     64 N          -0.5315  -11.7215  -43.8410 N.am      2 UNK        -0.5000 
     65 C          -1.4482  -12.6963  -43.8988 C.2       1 UNK         0.5000 
     66 O          -1.9148  -13.2540  -42.9026 O.2       1 UNK        -0.5000 
     67 C          -2.0100  -21.4639  -48.4527 C.2       11 UNK         0.5000 
     68 O          -2.2624  -21.6600  -49.6403 O.2       11 UNK        -0.5000 
     69 N          -2.7311  -20.6409  -47.6768 N.am      12 UNK        -0.5000 
     70 CA         -3.9828  -20.0149  -48.1079 C.3       12 UNK         0.1400 
     71 CB         -4.2842  -18.7783  -47.2466 C.3       12 UNK        -0.1800 
     72 C          -5.1442  -21.0182  -48.0178 C.2       12 UNK         0.5000 
     73 O          -5.9847  -21.0617  -48.9171 O.2       12 UNK        -0.5000 
     74 N          -5.1512  -21.8146  -46.9367 N.am      13 UNK        -0.5000 
     75 CA         -6.1077  -22.8778  -46.6303 C.3       13 UNK         0.1400 
     76 CB         -5.6812  -23.5629  -45.3223 C.3       13 UNK        -0.1800 
     77 C          -6.2250  -23.8958  -47.7788 C.2       13 UNK         0.5000 
     78 O          -5.2759  -24.6402  -48.0369 O.2       13 UNK        -0.5000 
     79 N          -7.3608  -23.8444  -48.4916 N.am      14 UNK        -0.5000 
     80 CA         -7.6890  -24.6098  -49.7029 C.3       14 UNK         0.1400 
     81 CB         -7.8975  -26.0983  -49.3524 C.3       14 UNK        -0.1800 
     82 C          -6.6737  -24.4196  -50.8531 C.2       14 UNK         0.5000 
     83 O          -6.5251  -25.3137  -51.6876 O.2       14 UNK        -0.5000 
     84 N          -5.9489  -23.2893  -50.8469 N.am      15 UNK        -0.5000 
     85 CA         -4.7916  -22.9822  -51.6917 C.3       15 UNK         0.1400 
     86 CB         -5.2394  -22.7022  -53.1405 C.3       15 UNK        -0.1800 
     87 C          -3.6904  -24.0616  -51.6015 C.2       15 UNK         0.5000 
     88 O          -3.1403  -24.4617  -52.6291 O.2       15 UNK        -0.5000 
     89 N          -3.4295  -24.5570  -50.3816 N.am      16 UNK        -0.5000 
     90 CA         -2.5035  -25.6483  -50.0558 C.3       16 UNK         0.1400 
     91 CB         -1.0503  -25.2646  -50.4114 C.3       16 UNK        -0.1800 
     92 C          -2.9367  -26.9895  -50.6868 C.2       16 UNK         0.5000 
     93 O          -2.0888  -27.7653  -51.1280 O.2       16 UNK        -0.5000 
     94 N          -4.2586  -27.2143  -50.7370 N.am      17 UNK        -0.5000 
     95 CA         -4.9517  -28.2904  -51.4533 C.3       17 UNK         0.1400 
     96 CB         -4.5926  -29.6776  -50.8800 C.3       17 UNK        -0.1800 
     97 C          -4.7439  -28.1744  -52.9785 C.2       17 UNK         0.5000 
     98 O          -4.3466  -29.1409  -53.6320 O.2       17 UNK        -0.5000 
     99 N          -5.0190  -26.9694  -53.5003 N.am      18 UNK        -0.5000 
    100 CA        -4.9129  -26.5491  -54.9014 C.3       18 UNK         0.1400 
    101 CB        -5.9901  -27.2498  -55.7551 C.3       18 UNK        -0.1800 
    102 C         -3.4892  -26.6902  -55.4839 C.2       18 UNK         0.5000 
    103 O         -3.3299  -27.1378  -56.6216 O.2       18 UNK        -0.5000 
    104 N         -2.4824  -26.3001  -54.6928 N.am      19 UNK        -0.5000 
    105 CA        -1.0638  -26.3510  -55.0537 C.3       19 UNK         0.1400 
    106 CB        -0.3252  -27.2786  -54.0775 C.3       19 UNK        -0.1800 
    107 C         -0.4164  -24.9554  -55.0661 C.2       19 UNK         0.5000 
    108 O          0.5045  -24.7329  -55.8530 O.2       19 UNK        -0.5000 
    109 N         -0.9000  -24.0345  -54.2193 N.am      20 UNK        -0.5000 
    110 CA        -0.4220  -22.6508  -54.1451 C.3       20 UNK         0.1400 
    111 CB        -0.7062  -22.0873  -52.7447 C.3       20 UNK        -0.1800 
    112 C         -1.0542  -21.7517  -55.2239 C.2       20 UNK         0.5000 
    113 O         -0.4754  -20.7170  -55.5563 O.2       20 UNK        -0.5000 
    114 N         -2.2166  -22.1712  -55.7506 N.am      21 UNK        -0.5000 
    115 CA        -2.9927  -21.5330  -56.8200 C.3       21 UNK         0.1400 
    116 CB        -2.2433  -21.6406  -58.1646 C.3       21 UNK        -0.1800 
    117 C         -3.4294  -20.0908  -56.4806 C.2       21 UNK         0.5000 
    118 O         -3.2891  -19.1875  -57.3080 O.2       21 UNK        -0.5000 
    119 N         -3.9437  -19.9071  -55.2573 N.am      22 UNK        -0.5000 
    120 CA        -4.4942  -18.6428  -54.7432 C.3       22 UNK         0.1400 
    121 C         -5.6834  -18.1040  -55.5896 C.2       22 UNK         0.5000 
    122 N         -5.7641  -16.7970  -55.7990 N.am      22 UNK        -0.7600 
    123 O         -6.5570  -18.8560  -56.0166 O.2       22 UNK        -0.5000 
    124 C124       -4.9286  -18.7663  -53.2603 C.3       23 UNK        -0.0398 
    125 S125       -3.5835  -19.2724  -52.1367 S.3       23 UNK        -0.2404 
    126 C126       -2.8308  -17.6566  -51.7620 C.3       23 UNK        -0.0205 
    127 H127       -4.9042  -10.2189  -47.0581 H         1 UNK         0.0600 
    128 H128       -3.2083   -9.9863  -47.4904 H         1 UNK         0.0600 
    129 H129       -3.8899   -9.1315  -46.1039 H         1 UNK         0.0600 
    130 H130       -1.9473  -11.6946  -46.8929 H         1 UNK         0.3000 
    131 H131       -0.9868  -13.3532  -45.8421 H         1 UNK         0.0600 
    132 H132       -3.8053  -14.1203  -44.9407 H         1 UNK         0.0800 
    133 H133       -2.4103  -15.1326  -44.6961 H         1 UNK         0.0800 
    134 H134       -0.6188  -15.3540  -47.0285 H         1 UNK         0.0800 
    135 H135       -1.4340  -16.6761  -46.2302 H         1 UNK         0.0800 
    136 H136       -3.0083  -16.2376  -49.4581 H         1 UNK         0.1150 
    137 H137       -0.5936  -19.1779  -51.4116 H         1 UNK         0.1150 
    138 H138        0.5167  -17.7410  -47.5342 H         1 UNK         0.1150 
    139 H139        1.3729  -20.0651  -50.3740 H         1 UNK         0.0800 
    140 H140        2.2030  -18.8155  -49.4860 H         1 UNK         0.0800 
    141 H141        1.1579  -22.8676  -48.2847 H         1 UNK         0.0800 
    142 H142        0.3972  -22.0333  -49.5936 H         1 UNK         0.0800 
    143 H143       -1.1089  -23.2929  -48.0074 H         1 UNK         0.0600 
    144 H144       -0.3715  -21.2165  -46.0210 H         1 UNK         0.3000 
    145 H145       -2.0483  -23.0595  -43.4624 H         1 UNK         0.0600 
    146 H146        0.1020  -22.7898  -42.2646 H         1 UNK         0.0600 
    147 H147        0.2553  -24.0508  -43.4770 H         1 UNK         0.0600 
    148 H148        0.9428  -22.4594  -43.7799 H         1 UNK         0.0600 
    149 H149       -0.6817  -20.6315  -43.2367 H         1 UNK         0.3000 
    150 H150       -2.6532  -18.3402  -44.7411 H         1 UNK         0.0600 
    151 H151       -4.5690  -18.8386  -43.2265 H         1 UNK         0.0600 
    152 H152       -3.6658  -17.4418  -42.6674 H         1 UNK         0.0600 
    153 H153       -3.4677  -19.0006  -41.8637 H         1 UNK         0.0600 
    154 H154       -1.2368  -18.0344  -42.2999 H         1 UNK         0.3000 
    155 H155        0.7353  -16.9864  -42.3851 H         1 UNK         0.0600 
    156 H156        1.3985  -19.3430  -41.8601 H         1 UNK         0.0600 
    157 H157        2.8051  -18.2962  -41.9558 H         1 UNK         0.0600 
    158 H158        2.4228  -19.3843  -43.2906 H         1 UNK         0.0600 
    159 H159        2.9116  -17.1338  -44.2134 H         1 UNK         0.3000 
    160 H160        3.0060  -15.6020  -46.2268 H         1 UNK         0.0600 
    161 H161        1.7311  -12.9357  -45.4174 H         1 UNK         0.0600 
    162 H162        1.3314  -13.8964  -46.8359 H         1 UNK         0.0600 
    163 H163        2.9165  -13.1555  -46.6997 H         1 UNK         0.0600 
    164 H164        3.6705  -13.6891  -44.0588 H         1 UNK         0.3000 
    165 H165        5.7056  -15.4453  -42.3966 H         1 UNK         0.0600 
    166 H166        7.5525  -14.5998  -44.6838 H         1 UNK         0.0600 
    167 H167        8.0390  -14.7362  -42.9935 H         1 UNK         0.0600 
    168 H168        7.5104  -16.1576  -43.8768 H         1 UNK         0.0600 
    169 H169        5.3089  -13.3632  -41.9099 H         1 UNK         0.3000 
    170 H170        6.4786  -10.5008  -42.5865 H         1 UNK         0.0600 
    171 H171        5.3286   -9.7578  -44.6184 H         1 UNK         0.0600 
    172 H172        3.8278  -10.5253  -44.1224 H         1 UNK         0.0600 
    173 H173        4.4497   -9.1364  -43.2315 H         1 UNK         0.0600 
    174 H174        3.7873  -11.4680  -41.7579 H         1 UNK         0.3000 
    175 H175        4.8480  -12.2714  -38.5187 H         1 UNK         0.0600 
    176 H176        3.1838   -9.7756  -39.1641 H         1 UNK         0.0600 
    177 H177        3.1447  -10.6833  -37.6515 H         1 UNK         0.0600 
    178 H178        4.5982   -9.8157  -38.1182 H         1 UNK         0.0600 
    179 H179        2.2383  -11.9959  -39.6548 H         1 UNK         0.3000 
    180 H180        2.1745  -14.8786  -41.6588 H         1 UNK         0.0600 
    181 H181        0.8586  -14.5674  -38.9081 H         1 UNK         0.0600 
    182 H182        1.8243  -15.9425  -39.4319 H         1 UNK         0.0600 
    183 H183        0.2891  -15.6051  -40.2157 H         1 UNK         0.0600 
    184 H184        0.0601  -13.1918  -40.8668 H         1 UNK         0.3000 
    185 H185       -0.5373  -11.2587  -41.8013 H         1 UNK         0.0600 
    186 H186        1.3532   -9.6141  -41.9603 H         1 UNK         0.0600 
    187 H187        1.4596   -9.9022  -43.6924 H         1 UNK         0.0600 
    188 H188        0.0078   -9.1804  -43.0038 H         1 UNK         0.0600 
    189 H189       -0.2023  -11.3133  -44.7032 H         1 UNK         0.3000 
    190 H190       -2.5097  -20.5812  -46.6932 H         1 UNK         0.3000 
    191 H191       -3.8775  -19.6891  -49.1446 H         1 UNK         0.0600 
    192 H192       -4.6180  -19.0422  -46.2433 H         1 UNK         0.0600 
    193 H193       -3.4092  -18.1416  -47.1449 H         1 UNK         0.0600 
    194 H194       -5.0726  -18.1776  -47.7010 H         1 UNK         0.0600 
    195 H195       -4.4345  -21.6570  -46.2354 H         1 UNK         0.3000 
    196 H196       -7.0808  -22.4109  -46.4672 H         1 UNK         0.0600 
    197 H197       -5.6646  -22.8548  -44.4934 H         1 UNK         0.0600 
    198 H198       -4.6857  -24.0017  -45.4043 H         1 UNK         0.0600 
    199 H199       -6.3731  -24.3625  -45.0552 H         1 UNK         0.0600 
    200 H200       -8.0526  -23.1581  -48.2229 H         1 UNK         0.3000 
    201 H201       -8.6379  -24.2172  -50.0702 H         1 UNK         0.0600 
    202 H202       -8.2699  -26.6573  -50.2117 H         1 UNK         0.0600 
    203 H203       -8.6283  -26.2154  -48.5523 H         1 UNK         0.0600 
    204 H204       -6.9703  -26.5732  -49.0302 H         1 UNK         0.0600 
    205 H205       -6.1382  -22.6055  -50.1188 H         1 UNK         0.3000 
    206 H206       -4.3541  -22.0662  -51.2946 H         1 UNK         0.0600 
    207 H207       -5.9792  -21.9033  -53.1748 H         1 UNK         0.0600 
    208 H208       -5.6819  -23.5823  -53.6057 H         1 UNK         0.0600 
    209 H209       -4.3955  -22.3936  -53.7561 H         1 UNK         0.0600 
    210 H210       -3.9834  -24.2209  -49.6010 H         1 UNK         0.3000 
    211 H211       -2.5583  -25.7809  -48.9743 H         1 UNK         0.0600 
    212 H212       -0.7892  -24.2832  -50.0230 H         1 UNK         0.0600 
    213 H213       -0.3438  -25.9817  -49.9926 H         1 UNK         0.0600 
    214 H214       -0.8879  -25.2392  -51.4879 H         1 UNK         0.0600 
    215 H215       -4.8598  -26.4893  -50.3709 H         1 UNK         0.3000 
    216 H216       -6.0174  -28.1348  -51.2784 H         1 UNK         0.0600 
    217 H217       -5.2123  -30.4537  -51.3302 H         1 UNK         0.0600 
    218 H218       -3.5526  -29.9442  -51.0692 H         1 UNK         0.0600 
    219 H219       -4.7582  -29.7136  -49.8034 H         1 UNK         0.0600 
    220 H220       -5.3782  -26.2623  -52.8633 H         1 UNK         0.3000 
    221 H221       -5.1331  -25.4816  -54.9142 H         1 UNK         0.0600 
    222 H222       -5.8149  -28.3237  -55.8264 H         1 UNK         0.0600 
    223 H223       -6.9844  -27.0993  -55.3345 H         1 UNK         0.0600 
    224 H224       -6.0057  -26.8521  -56.7705 H         1 UNK         0.0600 
    225 H225       -2.7139  -25.8989  -53.7885 H         1 UNK         0.3000 
    226 H226       -0.9413  -26.7635  -56.0571 H         1 UNK         0.0600 
    227 H227       -0.7611  -28.2780  -54.0788 H         1 UNK         0.0600 
    228 H228        0.7253  -27.3795  -54.3527 H         1 UNK         0.0600 
    229 H229       -0.3615  -26.9021  -53.0560 H         1 UNK         0.0600 
    230 H230       -1.6726  -24.2739  -53.6012 H         1 UNK         0.3000 
    231 H231        0.6597  -22.6419  -54.2957 H         1 UNK         0.0600 
    232 H232       -0.2556  -21.1020  -52.6297 H         1 UNK         0.0600 
    233 H233       -0.2904  -22.7257  -51.9661 H         1 UNK         0.0600 
    234 H234       -1.7746  -21.9792  -52.5570 H         1 UNK         0.0600 
    235 H235       -2.5882  -23.0408  -55.3975 H         1 UNK         0.3000 
    236 H236       -3.9137  -22.1101  -56.9150 H         1 UNK         0.0600 
    237 H237       -1.9817  -22.6751  -58.3877 H         1 UNK         0.0600 
    238 H238       -2.8611  -21.2785  -58.9872 H         1 UNK         0.0600 
    239 H239       -1.3233  -21.0554  -58.1640 H         1 UNK         0.0600 
    240 H240       -3.9968  -20.6953  -54.6321 H         1 UNK         0.3000 
    241 H241       -3.6880  -17.9088  -54.7979 H         1 UNK         0.0600 
    242 H242       -6.5391  -16.4346  -56.3330 H         1 UNK         0.3800 
    243 H243       -5.0627  -16.1592  -55.4550 H         1 UNK         0.3800 
    244 H244       -5.3449  -17.8233  -52.9016 H         1 UNK         0.0800 
    245 H245       -5.7340  -19.4958  -53.1638 H         1 UNK         0.0800 
    246 H246       -3.6197  -16.9219  -51.5948 H         1 UNK         0.0800 
    247 H247       -2.2678  -17.3144  -52.6312 H         1 UNK         0.0800 
@<TRIPOS>BOND
     1    1    2 1    
     2    1  127 1    
     3    1  128 1    
     4    1  129 1    
     5    2    3 2    
     6    2    4 am   BACKBONE|DICT|INTERRES
     7    4    5 1    
     8    4  130 1    
     9    5    6 1    
    10    5   65 1    
    11    5  131 1    
    12    6    7 1    
    13    6  132 1    
    14    6  133 1    
    15    7    8 1    
    16    8    9 1    
    17    8  134 1    
    18    8  135 1    
    19    9   10 ar   
    20    9   14 ar   
    21   10   11 ar   
    22   10  136 1    
    23   11   12 ar   
    24   11  126 1    
    25   12   13 ar   
    26   12  137 1    
    27   13   14 ar   
    28   13   15 1    
    29   14  138 1    
    30   15   16 1    
    31   15  139 1    
    32   15  140 1    
    33   16   17 1    
    34   17   18 1    
    35   17  141 1    
    36   17  142 1    
    37   18   19 1    
    38   18   67 1    
    39   18  143 1    
    40   19   20 am   BACKBONE|DICT|INTERRES
    41   19  144 1    
    42   20   21 2    
    43   20   22 1    
    44   22   23 1    
    45   22   24 1    
    46   22  145 1    
    47   23  146 1    
    48   23  147 1    
    49   23  148 1    
    50   24   25 am   BACKBONE|DICT|INTERRES
    51   24  149 1    
    52   25   26 2    
    53   25   27 1    
    54   27   28 1    
    55   27   29 1    
    56   27  150 1    
    57   28  151 1    
    58   28  152 1    
    59   28  153 1    
    60   29   30 am   BACKBONE|DICT|INTERRES
    61   29  154 1    
    62   30   31 2    
    63   30   32 1    
    64   32   33 1    
    65   32   34 1    
    66   32  155 1    
    67   33  156 1    
    68   33  157 1    
    69   33  158 1    
    70   34   35 am   BACKBONE|DICT|INTERRES
    71   34  159 1    
    72   35   36 2    
    73   35   37 1    
    74   37   38 1    
    75   37   39 1    
    76   37  160 1    
    77   38  161 1    
    78   38  162 1    
    79   38  163 1    
    80   39   40 am   BACKBONE|DICT|INTERRES
    81   39  164 1    
    82   40   41 2    
    83   40   42 1    
    84   42   43 1    
    85   42   44 1    
    86   42  165 1    
    87   43  166 1    
    88   43  167 1    
    89   43  168 1    
    90   44   45 am   BACKBONE|DICT|INTERRES
    91   44  169 1    
    92   45   46 2    
    93   45   47 1    
    94   47   48 1    
    95   47   49 1    
    96   47  170 1    
    97   48  171 1    
    98   48  172 1    
    99   48  173 1    
   100   49   50 am   BACKBONE|DICT|INTERRES
   101   49  174 1    
   102   50   51 2    
   103   50   52 1    
   104   52   53 1    
   105   52   54 1    
   106   52  175 1    
   107   53  176 1    
   108   53  177 1    
   109   53  178 1    
   110   54   55 am   BACKBONE|DICT|INTERRES
   111   54  179 1    
   112   55   56 2    
   113   55   57 1    
   114   57   58 1    
   115   57   59 1    
   116   57  180 1    
   117   58  181 1    
   118   58  182 1    
   119   58  183 1    
   120   59   60 am   BACKBONE|DICT|INTERRES
   121   59  184 1    
   122   60   61 2    
   123   60   62 1    
   124   62   63 1    
   125   62   64 1    
   126   62  185 1    
   127   63  186 1    
   128   63  187 1    
   129   63  188 1    
   130   64   65 am   BACKBONE|DICT|INTERRES
   131   64  189 1    
   132   65   66 2    
   133   67   68 2    
   134   67   69 am   BACKBONE|DICT|INTERRES
   135   69   70 1    
   136   69  190 1    
   137   70   71 1    
   138   70   72 1    
   139   70  191 1    
   140   71  192 1    
   141   71  193 1    
   142   71  194 1    
   143   72   73 2    
   144   72   74 am   BACKBONE|DICT|INTERRES
   145   74   75 1    
   146   74  195 1    
   147   75   76 1    
   148   75   77 1    
   149   75  196 1    
   150   76  197 1    
   151   76  198 1    
   152   76  199 1    
   153   77   78 2    
   154   77   79 am   BACKBONE|DICT|INTERRES
   155   79   80 1    
   156   79  200 1    
   157   80   81 1    
   158   80   82 1    
   159   80  201 1    
   160   81  202 1    
   161   81  203 1    
   162   81  204 1    
   163   82   83 2    
   164   82   84 am   BACKBONE|DICT|INTERRES
   165   84   85 1    
   166   84  205 1    
   167   85   86 1    
   168   85   87 1    
   169   85  206 1    
   170   86  207 1    
   171   86  208 1    
   172   86  209 1    
   173   87   88 2    
   174   87   89 am   BACKBONE|DICT|INTERRES
   175   89   90 1    
   176   89  210 1    
   177   90   91 1    
   178   90   92 1    
   179   90  211 1    
   180   91  212 1    
   181   91  213 1    
   182   91  214 1    
   183   92   93 2    
   184   92   94 am   BACKBONE|DICT|INTERRES
   185   94   95 1    
   186   94  215 1    
   187   95   96 1    
   188   95   97 1    
   189   95  216 1    
   190   96  217 1    
   191   96  218 1    
   192   96  219 1    
   193   97   98 2    
   194   97   99 am   BACKBONE|DICT|INTERRES
   195   99  100 1    
   196   99  220 1    
   197  100  101 1    
   198  100  102 1    
   199  100  221 1    
   200  101  222 1    
   201  101  223 1    
   202  101  224 1    
   203  102  103 2    
   204  102  104 am   BACKBONE|DICT|INTERRES
   205  104  105 1    
   206  104  225 1    
   207  105  106 1    
   208  105  107 1    
   209  105  226 1    
   210  106  227 1    
   211  106  228 1    
   212  106  229 1    
   213  107  108 2    
   214  107  109 am   BACKBONE|DICT|INTERRES
   215  109  110 1    
   216  109  230 1    
   217  110  111 1    
   218  110  112 1    
   219  110  231 1    
   220  111  232 1    
   221  111  233 1    
   222  111  234 1    
   223  112  113 2    
   224  112  114 am   BACKBONE|DICT|INTERRES
   225  114  115 1    
   226  114  235 1    
   227  115  116 1    
   228  115  117 1    
   229  115  236 1    
   230  116  237 1    
   231  116  238 1    
   232  116  239 1    
   233  117  118 2    
   234  117  119 am   BACKBONE|DICT|INTERRES
   235  119  120 1    
   236  119  240 1    
   237  120  121 1    
   238  120  124 1    
   239  120  241 1    
   240  121  122 am   BACKBONE|DICT|INTERRES
   241  121  123 2    
   242  122  242 1    
   243  122  243 1    
   244  124  125 1    
   245  124  244 1    
   246  124  245 1    
   247  125  126 1    
   248  126  246 1    
   249  126  247 1    
@<TRIPOS>SUBSTRUCTURE
     1 UNK         1 GROUP             0       ****    0 ROOT    
