@<TRIPOS>MOLECULE
3R540
247   249    1
SMALL
USER_CHARGES


@<TRIPOS>ATOM
      1 CA          2.0210  -11.0326  -55.8094 C.3       0 UNK        -0.1800 
      2 C           2.1921  -11.7420  -54.4733 C.2       0 UNK         0.5000 
      3 O           2.8493  -11.2110  -53.5774 O.2       0 UNK        -0.5000 
      4 N           1.6131  -12.9412  -54.3413 N.am      1 UNK        -0.5000 
      5 CA          1.6243  -13.7526  -53.1194 C.3       1 UNK         0.1400 
      6 C6          1.1652  -15.2084  -53.3854 C.3       23 UNK        -0.0398 
      7 S7          2.2010  -16.0550  -54.6280 S.3       23 UNK        -0.2404 
      8 C8          3.4297  -16.9034  -53.5850 C.3       23 UNK        -0.0205 
      9 C9          2.8359  -18.1047  -52.8655 C.ar      23 UNK        -0.0193 
     10 C10         2.5173  -19.2609  -53.5831 C.ar      23 UNK        -0.1150 
     11 C11         1.9441  -20.3629  -52.9417 C.ar      23 UNK        -0.0193 
     12 C12         1.7305  -20.3173  -51.5618 C.ar      23 UNK        -0.1150 
     13 C13         2.0672  -19.1744  -50.8296 C.ar      23 UNK        -0.0193 
     14 C14         2.6110  -18.0674  -51.4866 C.ar      23 UNK        -0.1150 
     15 C15         1.8485  -19.1467  -49.3279 C.3       23 UNK        -0.0205 
     16 S16         0.0851  -18.9725  -48.9335 S.3       23 UNK        -0.2404 
     17 C17         0.0940  -19.4021  -47.1650 C.3       23 UNK        -0.0398 
     18 CA          0.0835  -20.9275  -46.8987 C.3       11 UNK         0.1400 
     19 N           0.3390  -21.2321  -45.4899 N.am      11 UNK        -0.5000 
     20 C           0.5689  -22.4544  -44.9913 C.2       10 UNK         0.5000 
     21 O           0.6119  -23.4730  -45.6792 O.2       10 UNK        -0.5000 
     22 CA          0.7422  -22.5641  -43.4646 C.3       10 UNK         0.1400 
     23 CB          2.1573  -22.1441  -43.0409 C.3       10 UNK        -0.1800 
     24 N          -0.2467  -21.7746  -42.7296 N.am      10 UNK        -0.5000 
     25 C          -1.5667  -22.0115  -42.7474 C.2       9 UNK         0.5000 
     26 O          -2.0840  -22.9615  -43.3374 O.2       9 UNK        -0.5000 
     27 CA         -2.4617  -20.9748  -42.0393 C.3       9 UNK         0.1400 
     28 CB         -2.4731  -21.1928  -40.5190 C.3       9 UNK        -0.1800 
     29 N          -2.0634  -19.5972  -42.3395 N.am      9 UNK        -0.5000 
     30 C          -2.0774  -19.0681  -43.5707 C.2       8 UNK         0.5000 
     31 O          -2.4798  -19.6638  -44.5672 O.2       8 UNK        -0.5000 
     32 CA         -1.4818  -17.6643  -43.7375 C.3       8 UNK         0.1400 
     33 CB         -2.5254  -16.5812  -43.4303 C.3       8 UNK        -0.1800 
     34 N          -0.2662  -17.4822  -42.9393 N.am      8 UNK        -0.5000 
     35 C           0.8874  -18.1208  -43.1928 C.2       7 UNK         0.5000 
     36 O           1.0518  -18.8560  -44.1622 O.2       7 UNK        -0.5000 
     37 CA          2.0365  -17.9587  -42.1852 C.3       7 UNK         0.1400 
     38 CB          2.9414  -16.7756  -42.5598 C.3       7 UNK        -0.1800 
     39 N           1.5443  -17.8188  -40.8163 N.am      7 UNK        -0.5000 
     40 C           0.9917  -18.8285  -40.1272 C.2       6 UNK         0.5000 
     41 O           0.8985  -19.9766  -40.5638 O.2       6 UNK        -0.5000 
     42 CA          0.4028  -18.4964  -38.7432 C.3       6 UNK         0.1400 
     43 CB          1.4550  -18.7102  -37.6453 C.3       6 UNK        -0.1800 
     44 N          -0.1247  -17.1332  -38.6475 N.am      6 UNK        -0.5000 
     45 C          -1.1543  -16.6580  -39.3617 C.2       5 UNK         0.5000 
     46 O          -1.7815  -17.3424  -40.1723 O.2       5 UNK        -0.5000 
     47 CA         -1.5420  -15.1744  -39.1588 C.3       5 UNK         0.1400 
     48 CB         -0.6572  -14.4278  -38.1346 C.3       5 UNK        -0.1800 
     49 N          -1.5893  -14.4153  -40.4160 N.am      5 UNK        -0.5000 
     50 C          -0.6110  -14.2996  -41.3247 C.2       4 UNK         0.5000 
     51 O           0.4684  -14.8910  -41.2547 O.2       4 UNK        -0.5000 
     52 CA         -0.8782  -13.3517  -42.5036 C.3       4 UNK         0.1400 
     53 CB         -0.5622  -11.8965  -42.1171 C.3       4 UNK        -0.1800 
     54 N          -0.0554  -13.7477  -43.6465 N.am      4 UNK        -0.5000 
     55 C          -0.3743  -13.5427  -44.9296 C.2       3 UNK         0.5000 
     56 O          -1.4058  -12.9702  -45.2938 O.2       3 UNK        -0.5000 
     57 CA          0.6089  -14.0742  -45.9872 C.3       3 UNK         0.1400 
     58 CB          0.5271  -15.6073  -46.1075 C.3       3 UNK        -0.1800 
     59 N           0.2860  -13.4580  -47.2707 N.am      3 UNK        -0.5000 
     60 C           1.0680  -13.4377  -48.3531 C.2       2 UNK         0.5000 
     61 O           2.1886  -13.9529  -48.4064 O.2       2 UNK        -0.5000 
     62 CA          0.5108  -12.7045  -49.5809 C.3       2 UNK         0.1400 
     63 CB          0.7082  -11.1824  -49.4521 C.3       2 UNK        -0.1800 
     64 N           1.1966  -13.2030  -50.7687 N.am      2 UNK        -0.5000 
     65 C           0.7514  -13.1032  -52.0245 C.2       1 UNK         0.5000 
     66 O          -0.3101  -12.5547  -52.3321 O.2       1 UNK        -0.5000 
     67 C          -1.1994  -21.6084  -47.4160 C.2       11 UNK         0.5000 
     68 O          -1.1691  -22.2055  -48.4901 O.2       11 UNK        -0.5000 
     69 N          -2.2814  -21.5547  -46.6283 N.am      12 UNK        -0.5000 
     70 CA         -3.5503  -22.2259  -46.9078 C.3       12 UNK         0.1400 
     71 CB         -4.5745  -21.8418  -45.8292 C.3       12 UNK        -0.1800 
     72 C          -3.4031  -23.7534  -47.0179 C.2       12 UNK         0.5000 
     73 O          -3.9522  -24.3512  -47.9439 O.2       12 UNK        -0.5000 
     74 N          -2.6188  -24.3480  -46.1075 N.am      13 UNK        -0.5000 
     75 CA         -2.2657  -25.7669  -46.1279 C.3       13 UNK         0.1400 
     76 CB         -1.5788  -26.1471  -44.8075 C.3       13 UNK        -0.1800 
     77 C          -1.3915  -26.1469  -47.3392 C.2       13 UNK         0.5000 
     78 O          -1.6460  -27.1767  -47.9637 O.2       13 UNK        -0.5000 
     79 N          -0.4005  -25.3042  -47.6648 N.am      14 UNK        -0.5000 
     80 CA          0.5057  -25.4746  -48.8036 C.3       14 UNK         0.1400 
     81 CB          1.6590  -24.4639  -48.7029 C.3       14 UNK        -0.1800 
     82 C          -0.2058  -25.3533  -50.1637 C.2       14 UNK         0.5000 
     83 O           0.0414  -26.1684  -51.0533 O.2       14 UNK        -0.5000 
     84 N          -1.0900  -24.3552  -50.2928 N.am      15 UNK        -0.5000 
     85 CA         -1.9311  -24.1312  -51.4702 C.3       15 UNK         0.1400 
     86 CB         -2.5023  -22.7049  -51.4120 C.3       15 UNK        -0.1800 
     87 C          -3.0738  -25.1586  -51.5976 C.2       15 UNK         0.5000 
     88 O          -3.6002  -25.3375  -52.6963 O.2       15 UNK        -0.5000 
     89 N          -3.4377  -25.7959  -50.4736 N.am      16 UNK        -0.5000 
     90 CA         -4.5550  -26.7258  -50.2818 C.3       16 UNK         0.1400 
     91 CB         -4.3312  -28.0295  -51.0755 C.3       16 UNK        -0.1800 
     92 C          -5.9156  -26.0563  -50.5676 C.2       16 UNK         0.5000 
     93 O          -6.7899  -26.6577  -51.1952 O.2       16 UNK        -0.5000 
     94 N          -6.0529  -24.8057  -50.1142 N.am      17 UNK        -0.5000 
     95 CA         -7.1884  -23.9213  -50.3529 C.3       17 UNK         0.1400 
     96 CB         -7.2046  -23.4571  -51.8285 C.3       17 UNK        -0.1800 
     97 C          -7.1192  -22.7687  -49.3351 C.2       17 UNK         0.5000 
     98 O          -6.8330  -23.0159  -48.1632 O.2       17 UNK        -0.5000 
     99 N          -7.3750  -21.5349  -49.7838 N.am      18 UNK        -0.5000 
    100 CA        -7.1599  -20.3105  -49.0146 C.3       18 UNK         0.1400 
    101 CB        -8.0641  -19.2075  -49.5888 C.3       18 UNK        -0.1800 
    102 C         -5.6813  -19.8819  -49.0690 C.2       18 UNK         0.5000 
    103 O         -4.9263  -20.3544  -49.9231 O.2       18 UNK        -0.5000 
    104 N         -5.2933  -18.9657  -48.1740 N.am      19 UNK        -0.5000 
    105 CA        -3.9744  -18.3327  -48.1800 C.3       19 UNK         0.1400 
    106 CB        -3.8173  -17.4713  -46.9189 C.3       19 UNK        -0.1800 
    107 C         -3.7813  -17.4833  -49.4507 C.2       19 UNK         0.5000 
    108 O         -4.6733  -16.7092  -49.8046 O.2       19 UNK        -0.5000 
    109 N         -2.6305  -17.6641  -50.1106 N.am      20 UNK        -0.5000 
    110 CA        -2.2084  -17.0239  -51.3612 C.3       20 UNK         0.1400 
    111 CB        -2.0435  -15.5023  -51.1714 C.3       20 UNK        -0.1800 
    112 C         -3.0734  -17.3859  -52.5904 C.2       20 UNK         0.5000 
    113 O         -3.0014  -16.6922  -53.6073 O.2       20 UNK        -0.5000 
    114 N         -3.8327  -18.4926  -52.5141 N.am      21 UNK        -0.5000 
    115 CA        -4.6942  -19.0054  -53.5895 C.3       21 UNK         0.1400 
    116 CB        -5.5483  -20.1626  -53.0524 C.3       21 UNK        -0.1800 
    117 C         -3.9380  -19.4373  -54.8634 C.2       21 UNK         0.5000 
    118 O         -4.5580  -19.5685  -55.9197 O.2       21 UNK        -0.5000 
    119 N         -2.6171  -19.6196  -54.7490 N.am      22 UNK        -0.5000 
    120 CA        -1.6779  -19.8072  -55.8641 C.3       22 UNK         0.1400 
    121 C         -1.5861  -18.5915  -56.8368 C.2       22 UNK         0.5000 
    122 N         -1.9790  -17.3854  -56.4384 N.am      22 UNK        -0.7600 
    123 O         -1.1483  -18.7488  -57.9732 O.2       22 UNK        -0.5000 
    124 C124       -0.2589  -20.1594  -55.3538 C.3       23 UNK        -0.0398 
    125 S125       -0.2096  -21.5820  -54.2090 S.3       23 UNK        -0.2404 
    126 C126        1.5516  -21.5985  -53.7395 C.3       23 UNK        -0.0205 
    127 H127        1.4294  -11.6233  -56.5094 H         1 UNK         0.0600 
    128 H128        2.9946  -10.8444  -56.2620 H         1 UNK         0.0600 
    129 H129        1.5202  -10.0755  -55.6643 H         1 UNK         0.0600 
    130 H130        1.0802  -13.3218  -55.1097 H         1 UNK         0.3000 
    131 H131        2.6538  -13.7850  -52.7554 H         1 UNK         0.0600 
    132 H132        1.1618  -15.7897  -52.4624 H         1 UNK         0.0800 
    133 H133        0.1368  -15.2218  -53.7510 H         1 UNK         0.0800 
    134 H134        3.8604  -16.1944  -52.8763 H         1 UNK         0.0800 
    135 H135        4.2531  -17.2396  -54.2167 H         1 UNK         0.0800 
    136 H136        2.6913  -19.2899  -54.6498 H         1 UNK         0.1150 
    137 H137        1.2914  -21.1674  -51.0575 H         1 UNK         0.1150 
    138 H138        2.8631  -17.1797  -50.9234 H         1 UNK         0.1150 
    139 H139        2.2412  -20.0685  -48.8977 H         1 UNK         0.0800 
    140 H140        2.4034  -18.3278  -48.8671 H         1 UNK         0.0800 
    141 H141       -0.7617  -18.9233  -46.6886 H         1 UNK         0.0800 
    142 H142        0.9805  -18.9484  -46.7213 H         1 UNK         0.0800 
    143 H143        0.9148  -21.3651  -47.4536 H         1 UNK         0.0600 
    144 H144        0.3900  -20.4327  -44.8634 H         1 UNK         0.3000 
    145 H145        0.6036  -23.6117  -43.1896 H         1 UNK         0.0600 
    146 H146        2.2996  -22.2657  -41.9669 H         1 UNK         0.0600 
    147 H147        2.9104  -22.7541  -43.5411 H         1 UNK         0.0600 
    148 H148        2.3616  -21.1027  -43.2888 H         1 UNK         0.0600 
    149 H149        0.1029  -20.9968  -42.1804 H         1 UNK         0.3000 
    150 H150       -3.4805  -21.1118  -42.4077 H         1 UNK         0.0600 
    151 H151       -2.8233  -22.1961  -40.2737 H         1 UNK         0.0600 
    152 H152       -3.1387  -20.4852  -40.0242 H         1 UNK         0.0600 
    153 H153       -1.4806  -21.0781  -40.0841 H         1 UNK         0.0600 
    154 H154       -1.7466  -19.0230  -41.5672 H         1 UNK         0.3000 
    155 H155       -1.2121  -17.5616  -44.7888 H         1 UNK         0.0600 
    156 H156       -3.4606  -16.7792  -43.9549 H         1 UNK         0.0600 
    157 H157       -2.1828  -15.6048  -43.7627 H         1 UNK         0.0600 
    158 H158       -2.7604  -16.5192  -42.3695 H         1 UNK         0.0600 
    159 H159       -0.3374  -16.9215  -42.1005 H         1 UNK         0.3000 
    160 H160        2.6461  -18.8635  -42.2327 H         1 UNK         0.0600 
    161 H161        2.3969  -15.8339  -42.5978 H         1 UNK         0.0600 
    162 H162        3.3871  -16.9291  -43.5434 H         1 UNK         0.0600 
    163 H163        3.7588  -16.6628  -41.8476 H         1 UNK         0.0600 
    164 H164        1.5332  -16.8856  -40.4261 H         1 UNK         0.3000 
    165 H165       -0.4232  -19.1878  -38.5642 H         1 UNK         0.0600 
    166 H166        1.0274  -18.5600  -36.6538 H         1 UNK         0.0600 
    167 H167        1.8506  -19.7264  -37.6765 H         1 UNK         0.0600 
    168 H168        2.2975  -18.0263  -37.7560 H         1 UNK         0.0600 
    169 H169        0.3475  -16.5089  -38.0099 H         1 UNK         0.3000 
    170 H170       -2.5602  -15.1852  -38.7676 H         1 UNK         0.0600 
    171 H171       -0.6894  -14.9069  -37.1552 H         1 UNK         0.0600 
    172 H172        0.3851  -14.3773  -38.4526 H         1 UNK         0.0600 
    173 H173       -1.0057  -13.4043  -37.9958 H         1 UNK         0.0600 
    174 H174       -2.4533  -13.9179  -40.5800 H         1 UNK         0.3000 
    175 H175       -1.9348  -13.4303  -42.7680 H         1 UNK         0.0600 
    176 H176        0.4889  -11.7717  -41.8541 H         1 UNK         0.0600 
    177 H177       -0.7857  -11.2124  -42.9360 H         1 UNK         0.0600 
    178 H178       -1.1562  -11.5790  -41.2593 H         1 UNK         0.0600 
    179 H179        0.7818  -14.2583  -43.3976 H         1 UNK         0.3000 
    180 H180        1.6193  -13.7800  -45.6958 H         1 UNK         0.0600 
    181 H181        0.7895  -16.0804  -45.1642 H         1 UNK         0.0600 
    182 H182        1.2193  -15.9933  -46.8556 H         1 UNK         0.0600 
    183 H183       -0.4757  -15.9343  -46.3836 H         1 UNK         0.0600 
    184 H184       -0.6074  -12.9795  -47.2721 H         1 UNK         0.3000 
    185 H185       -0.5548  -12.9300  -49.6615 H         1 UNK         0.0600 
    186 H186        0.2177  -10.7965  -48.5577 H         1 UNK         0.0600 
    187 H187        1.7650  -10.9205  -49.3872 H         1 UNK         0.0600 
    188 H188        0.2849  -10.6523  -50.3053 H         1 UNK         0.0600 
    189 H189        2.0591  -13.6923  -50.5610 H         1 UNK         0.3000 
    190 H190       -2.2436  -21.0036  -45.7728 H         1 UNK         0.3000 
    191 H191       -3.9107  -21.8664  -47.8721 H         1 UNK         0.0600 
    192 H192       -4.2276  -22.1100  -44.8313 H         1 UNK         0.0600 
    193 H193       -5.5268  -22.3466  -45.9895 H         1 UNK         0.0600 
    194 H194       -4.7688  -20.7694  -45.8370 H         1 UNK         0.0600 
    195 H195       -2.2193  -23.7863  -45.3643 H         1 UNK         0.3000 
    196 H196       -3.1937  -26.3382  -46.1990 H         1 UNK         0.0600 
    197 H197       -1.3387  -27.2107  -44.7851 H         1 UNK         0.0600 
    198 H198       -2.2251  -25.9406  -43.9542 H         1 UNK         0.0600 
    199 H199       -0.6489  -25.5978  -44.6606 H         1 UNK         0.0600 
    200 H200       -0.2237  -24.5054  -47.0615 H         1 UNK         0.3000 
    201 H201        0.9313  -26.4782  -48.7407 H         1 UNK         0.0600 
    202 H202        2.2123  -24.5882  -47.7719 H         1 UNK         0.0600 
    203 H203        1.2992  -23.4358  -48.7434 H         1 UNK         0.0600 
    204 H204        2.3664  -24.5958  -49.5224 H         1 UNK         0.0600 
    205 H205       -1.1888  -23.6826  -49.5333 H         1 UNK         0.3000 
    206 H206       -1.3058  -24.2127  -52.3617 H         1 UNK         0.0600 
    207 H207       -1.7070  -21.9620  -51.3444 H         1 UNK         0.0600 
    208 H208       -3.0793  -22.4808  -52.3095 H         1 UNK         0.0600 
    209 H209       -3.1607  -22.5685  -50.5526 H         1 UNK         0.0600 
    210 H210       -2.9638  -25.5249  -49.6216 H         1 UNK         0.3000 
    211 H211       -4.5570  -26.9819  -49.2214 H         1 UNK         0.0600 
    212 H212       -4.3721  -27.8630  -52.1522 H         1 UNK         0.0600 
    213 H213       -5.0930  -28.7703  -50.8305 H         1 UNK         0.0600 
    214 H214       -3.3625  -28.4704  -50.8401 H         1 UNK         0.0600 
    215 H215       -5.3264  -24.4275  -49.5119 H         1 UNK         0.3000 
    216 H216       -8.1082  -24.4714  -50.1458 H         1 UNK         0.0600 
    217 H217       -8.0647  -22.8218  -52.0422 H         1 UNK         0.0600 
    218 H218       -7.2691  -24.3039  -52.5115 H         1 UNK         0.0600 
    219 H219       -6.3001  -22.9033  -52.0815 H         1 UNK         0.0600 
    220 H220       -7.5604  -21.4144  -50.7680 H         1 UNK         0.3000 
    221 H221       -7.4341  -20.4827  -47.9715 H         1 UNK         0.0600 
    222 H222       -7.8138  -18.9765  -50.6247 H         1 UNK         0.0600 
    223 H223       -9.1133  -19.5015  -49.5553 H         1 UNK         0.0600 
    224 H224       -7.9701  -18.2833  -49.0174 H         1 UNK         0.0600 
    225 H225       -5.9699  -18.5886  -47.5271 H         1 UNK         0.3000 
    226 H226       -3.2212  -19.1233  -48.1531 H         1 UNK         0.0600 
    227 H227       -2.8094  -17.0608  -46.8506 H         1 UNK         0.0600 
    228 H228       -4.5157  -16.6335  -46.9118 H         1 UNK         0.0600 
    229 H229       -3.9944  -18.0592  -46.0194 H         1 UNK         0.0600 
    230 H230       -1.9592  -18.3206  -49.7308 H         1 UNK         0.3000 
    231 H231       -1.2182  -17.4279  -51.5784 H         1 UNK         0.0600 
    232 H232       -1.6338  -15.0365  -52.0669 H         1 UNK         0.0600 
    233 H233       -1.3617  -15.2812  -50.3504 H         1 UNK         0.0600 
    234 H234       -2.9935  -15.0107  -50.9626 H         1 UNK         0.0600 
    235 H235       -3.8475  -19.0113  -51.6453 H         1 UNK         0.3000 
    236 H236       -5.3678  -18.1977  -53.8827 H         1 UNK         0.0600 
    237 H237       -6.2081  -19.8236  -52.2554 H         1 UNK         0.0600 
    238 H238       -6.1806  -20.5861  -53.8339 H         1 UNK         0.0600 
    239 H239       -4.9275  -20.9670  -52.6585 H         1 UNK         0.0600 
    240 H240       -2.2021  -19.5239  -53.8352 H         1 UNK         0.3000 
    241 H241       -2.0434  -20.6513  -56.4517 H         1 UNK         0.0600 
    242 H242       -1.9158  -16.6105  -57.0791 H         1 UNK         0.3800 
    243 H243       -2.3407  -17.2325  -55.5037 H         1 UNK         0.3800 
    244 H244        0.4062  -20.3771  -56.1915 H         1 UNK         0.0800 
    245 H245        0.1581  -19.2904  -54.8446 H         1 UNK         0.0800 
    246 H246        2.1665  -21.6862  -54.6365 H         1 UNK         0.0800 
    247 H247        1.7484  -22.4934  -53.1472 H         1 UNK         0.0800 
@<TRIPOS>BOND
     1    1    2 1    
     2    1  127 1    
     3    1  128 1    
     4    1  129 1    
     5    2    3 2    
     6    2    4 am   BACKBONE|DICT|INTERRES
     7    4    5 1    
     8    4  130 1    
     9    5    6 1    
    10    5   65 1    
    11    5  131 1    
    12    6    7 1    
    13    6  132 1    
    14    6  133 1    
    15    7    8 1    
    16    8    9 1    
    17    8  134 1    
    18    8  135 1    
    19    9   10 ar   
    20    9   14 ar   
    21   10   11 ar   
    22   10  136 1    
    23   11   12 ar   
    24   11  126 1    
    25   12   13 ar   
    26   12  137 1    
    27   13   14 ar   
    28   13   15 1    
    29   14  138 1    
    30   15   16 1    
    31   15  139 1    
    32   15  140 1    
    33   16   17 1    
    34   17   18 1    
    35   17  141 1    
    36   17  142 1    
    37   18   19 1    
    38   18   67 1    
    39   18  143 1    
    40   19   20 am   BACKBONE|DICT|INTERRES
    41   19  144 1    
    42   20   21 2    
    43   20   22 1    
    44   22   23 1    
    45   22   24 1    
    46   22  145 1    
    47   23  146 1    
    48   23  147 1    
    49   23  148 1    
    50   24   25 am   BACKBONE|DICT|INTERRES
    51   24  149 1    
    52   25   26 2    
    53   25   27 1    
    54   27   28 1    
    55   27   29 1    
    56   27  150 1    
    57   28  151 1    
    58   28  152 1    
    59   28  153 1    
    60   29   30 am   BACKBONE|DICT|INTERRES
    61   29  154 1    
    62   30   31 2    
    63   30   32 1    
    64   32   33 1    
    65   32   34 1    
    66   32  155 1    
    67   33  156 1    
    68   33  157 1    
    69   33  158 1    
    70   34   35 am   BACKBONE|DICT|INTERRES
    71   34  159 1    
    72   35   36 2    
    73   35   37 1    
    74   37   38 1    
    75   37   39 1    
    76   37  160 1    
    77   38  161 1    
    78   38  162 1    
    79   38  163 1    
    80   39   40 am   BACKBONE|DICT|INTERRES
    81   39  164 1    
    82   40   41 2    
    83   40   42 1    
    84   42   43 1    
    85   42   44 1    
    86   42  165 1    
    87   43  166 1    
    88   43  167 1    
    89   43  168 1    
    90   44   45 am   BACKBONE|DICT|INTERRES
    91   44  169 1    
    92   45   46 2    
    93   45   47 1    
    94   47   48 1    
    95   47   49 1    
    96   47  170 1    
    97   48  171 1    
    98   48  172 1    
    99   48  173 1    
   100   49   50 am   BACKBONE|DICT|INTERRES
   101   49  174 1    
   102   50   51 2    
   103   50   52 1    
   104   52   53 1    
   105   52   54 1    
   106   52  175 1    
   107   53  176 1    
   108   53  177 1    
   109   53  178 1    
   110   54   55 am   BACKBONE|DICT|INTERRES
   111   54  179 1    
   112   55   56 2    
   113   55   57 1    
   114   57   58 1    
   115   57   59 1    
   116   57  180 1    
   117   58  181 1    
   118   58  182 1    
   119   58  183 1    
   120   59   60 am   BACKBONE|DICT|INTERRES
   121   59  184 1    
   122   60   61 2    
   123   60   62 1    
   124   62   63 1    
   125   62   64 1    
   126   62  185 1    
   127   63  186 1    
   128   63  187 1    
   129   63  188 1    
   130   64   65 am   BACKBONE|DICT|INTERRES
   131   64  189 1    
   132   65   66 2    
   133   67   68 2    
   134   67   69 am   BACKBONE|DICT|INTERRES
   135   69   70 1    
   136   69  190 1    
   137   70   71 1    
   138   70   72 1    
   139   70  191 1    
   140   71  192 1    
   141   71  193 1    
   142   71  194 1    
   143   72   73 2    
   144   72   74 am   BACKBONE|DICT|INTERRES
   145   74   75 1    
   146   74  195 1    
   147   75   76 1    
   148   75   77 1    
   149   75  196 1    
   150   76  197 1    
   151   76  198 1    
   152   76  199 1    
   153   77   78 2    
   154   77   79 am   BACKBONE|DICT|INTERRES
   155   79   80 1    
   156   79  200 1    
   157   80   81 1    
   158   80   82 1    
   159   80  201 1    
   160   81  202 1    
   161   81  203 1    
   162   81  204 1    
   163   82   83 2    
   164   82   84 am   BACKBONE|DICT|INTERRES
   165   84   85 1    
   166   84  205 1    
   167   85   86 1    
   168   85   87 1    
   169   85  206 1    
   170   86  207 1    
   171   86  208 1    
   172   86  209 1    
   173   87   88 2    
   174   87   89 am   BACKBONE|DICT|INTERRES
   175   89   90 1    
   176   89  210 1    
   177   90   91 1    
   178   90   92 1    
   179   90  211 1    
   180   91  212 1    
   181   91  213 1    
   182   91  214 1    
   183   92   93 2    
   184   92   94 am   BACKBONE|DICT|INTERRES
   185   94   95 1    
   186   94  215 1    
   187   95   96 1    
   188   95   97 1    
   189   95  216 1    
   190   96  217 1    
   191   96  218 1    
   192   96  219 1    
   193   97   98 2    
   194   97   99 am   BACKBONE|DICT|INTERRES
   195   99  100 1    
   196   99  220 1    
   197  100  101 1    
   198  100  102 1    
   199  100  221 1    
   200  101  222 1    
   201  101  223 1    
   202  101  224 1    
   203  102  103 2    
   204  102  104 am   BACKBONE|DICT|INTERRES
   205  104  105 1    
   206  104  225 1    
   207  105  106 1    
   208  105  107 1    
   209  105  226 1    
   210  106  227 1    
   211  106  228 1    
   212  106  229 1    
   213  107  108 2    
   214  107  109 am   BACKBONE|DICT|INTERRES
   215  109  110 1    
   216  109  230 1    
   217  110  111 1    
   218  110  112 1    
   219  110  231 1    
   220  111  232 1    
   221  111  233 1    
   222  111  234 1    
   223  112  113 2    
   224  112  114 am   BACKBONE|DICT|INTERRES
   225  114  115 1    
   226  114  235 1    
   227  115  116 1    
   228  115  117 1    
   229  115  236 1    
   230  116  237 1    
   231  116  238 1    
   232  116  239 1    
   233  117  118 2    
   234  117  119 am   BACKBONE|DICT|INTERRES
   235  119  120 1    
   236  119  240 1    
   237  120  121 1    
   238  120  124 1    
   239  120  241 1    
   240  121  122 am   BACKBONE|DICT|INTERRES
   241  121  123 2    
   242  122  242 1    
   243  122  243 1    
   244  124  125 1    
   245  124  244 1    
   246  124  245 1    
   247  125  126 1    
   248  126  246 1    
   249  126  247 1    
@<TRIPOS>SUBSTRUCTURE
     1 UNK         1 GROUP             0       ****    0 ROOT    
