@<TRIPOS>MOLECULE
3R540
247   249    1
SMALL
USER_CHARGES


@<TRIPOS>ATOM
      1 CA         -2.8002  -11.4874  -48.7489 C.3       0 UNK        -0.1800 
      2 C          -2.0225  -12.6153  -48.0875 C.2       0 UNK         0.5000 
      3 O          -1.5983  -12.4781  -46.9410 O.2       0 UNK        -0.5000 
      4 N          -1.8490  -13.7397  -48.7946 N.am      1 UNK        -0.5000 
      5 CA         -1.0821  -14.9170  -48.3566 C.3       1 UNK         0.1400 
      6 C6         -0.9104  -15.9492  -49.4915 C.3       23 UNK        -0.0398 
      7 S7         -0.1241  -15.2536  -50.9859 S.3       23 UNK        -0.2404 
      8 C8          1.6251  -15.7112  -50.7555 C.3       23 UNK        -0.0205 
      9 C9          1.8427  -17.2170  -50.7981 C.ar      23 UNK        -0.0193 
     10 C10         1.6874  -17.9194  -51.9964 C.ar      23 UNK        -0.1150 
     11 C11         1.8682  -19.3047  -52.0359 C.ar      23 UNK        -0.0193 
     12 C12         2.2115  -19.9859  -50.8641 C.ar      23 UNK        -0.1150 
     13 C13         2.3859  -19.2958  -49.6599 C.ar      23 UNK        -0.0193 
     14 C14         2.2086  -17.9074  -49.6394 C.ar      23 UNK        -0.1150 
     15 C15         2.8062  -20.0675  -48.4100 C.3       23 UNK        -0.0205 
     16 S16         2.0969  -19.4508  -46.8430 S.3       23 UNK        -0.2404 
     17 C17         0.3062  -19.6163  -47.1373 C.3       23 UNK        -0.0398 
     18 CA         -0.2022  -21.0752  -47.0706 C.3       11 UNK         0.1400 
     19 N           0.0733  -21.7401  -45.7946 N.am      11 UNK        -0.5000 
     20 C          -0.1746  -23.0361  -45.5573 C.2       10 UNK         0.5000 
     21 O          -0.5884  -23.8179  -46.4136 O.2       10 UNK        -0.5000 
     22 CA          0.0049  -23.5301  -44.1135 C.3       10 UNK         0.1400 
     23 CB          1.4624  -23.9324  -43.8436 C.3       10 UNK        -0.1800 
     24 N          -0.4299  -22.5263  -43.1420 N.am      10 UNK        -0.5000 
     25 C          -1.7116  -22.1960  -42.9266 C.2       9 UNK         0.5000 
     26 O          -2.6592  -22.7349  -43.4960 O.2       9 UNK        -0.5000 
     27 CA         -1.9791  -21.0382  -41.9485 C.3       9 UNK         0.1400 
     28 CB         -1.9489  -21.5356  -40.4959 C.3       9 UNK        -0.1800 
     29 N          -1.0271  -19.9396  -42.1075 N.am      9 UNK        -0.5000 
     30 C          -0.9370  -19.1692  -43.2004 C.2       8 UNK         0.5000 
     31 O          -1.6823  -19.2740  -44.1743 O.2       8 UNK        -0.5000 
     32 CA          0.2084  -18.1409  -43.2251 C.3       8 UNK         0.1400 
     33 CB         -0.2423  -16.8260  -42.5786 C.3       8 UNK        -0.1800 
     34 N           1.4371  -18.5873  -42.5631 N.am      8 UNK        -0.5000 
     35 C           2.1480  -19.6796  -42.8768 C.2       7 UNK         0.5000 
     36 O           1.7601  -20.5243  -43.6832 O.2       7 UNK        -0.5000 
     37 CA          3.4912  -19.8926  -42.1430 C.3       7 UNK         0.1400 
     38 CB          4.5789  -20.4489  -43.0852 C.3       7 UNK        -0.1800 
     39 N           3.9835  -18.7185  -41.4034 N.am      7 UNK        -0.5000 
     40 C           4.3632  -17.5328  -41.9042 C.2       6 UNK         0.5000 
     41 O           4.3403  -17.2548  -43.1045 O.2       6 UNK        -0.5000 
     42 CA          4.8041  -16.4892  -40.8581 C.3       6 UNK         0.1400 
     43 CB          6.2171  -16.7828  -40.3135 C.3       6 UNK        -0.1800 
     44 N           4.6689  -15.1112  -41.3426 N.am      6 UNK        -0.5000 
     45 C           5.4262  -14.4427  -42.2231 C.2       5 UNK         0.5000 
     46 O           6.4738  -14.8660  -42.7157 O.2       5 UNK        -0.5000 
     47 CA          4.8801  -13.0614  -42.6414 C.3       5 UNK         0.1400 
     48 CB          5.9792  -12.1364  -43.1944 C.3       5 UNK        -0.1800 
     49 N           3.8268  -13.1945  -43.6484 N.am      5 UNK        -0.5000 
     50 C           2.5872  -13.6480  -43.4230 C.2       4 UNK         0.5000 
     51 O           2.1688  -13.9658  -42.3057 O.2       4 UNK        -0.5000 
     52 CA          1.6899  -13.7983  -44.6695 C.3       4 UNK         0.1400 
     53 CB          2.0682  -15.0757  -45.4389 C.3       4 UNK        -0.1800 
     54 N           0.2588  -13.8393  -44.3571 N.am      4 UNK        -0.5000 
     55 C          -0.4417  -12.8483  -43.7833 C.2       3 UNK         0.5000 
     56 O           0.0388  -11.7463  -43.5102 O.2       3 UNK        -0.5000 
     57 CA         -1.9267  -13.1375  -43.4821 C.3       3 UNK         0.1400 
     58 CB         -2.7687  -11.8588  -43.3185 C.3       3 UNK        -0.1800 
     59 N          -2.5042  -13.9565  -44.5441 N.am      3 UNK        -0.5000 
     60 C          -3.2550  -15.0533  -44.3760 C.2       2 UNK         0.5000 
     61 O          -3.6141  -15.4673  -43.2737 O.2       2 UNK        -0.5000 
     62 CA         -3.6731  -15.8341  -45.6427 C.3       2 UNK         0.1400 
     63 CB         -5.1854  -15.7072  -45.8827 C.3       2 UNK        -0.1800 
     64 N          -2.9712  -15.4068  -46.8551 N.am      2 UNK        -0.5000 
     65 C          -1.6692  -15.6056  -47.1038 C.2       1 UNK         0.5000 
     66 O          -0.9322  -16.2612  -46.3681 O.2       1 UNK        -0.5000 
     67 C          -1.7004  -21.1421  -47.4263 C.2       11 UNK         0.5000 
     68 O          -2.0434  -21.5072  -48.5501 O.2       11 UNK        -0.5000 
     69 N          -2.5669  -20.8280  -46.4556 N.am      12 UNK        -0.5000 
     70 CA         -4.0164  -20.8937  -46.6041 C.3       12 UNK         0.1400 
     71 CB         -4.6891  -20.2149  -45.4012 C.3       12 UNK        -0.1800 
     72 C          -4.5442  -22.3268  -46.7985 C.2       12 UNK         0.5000 
     73 O          -5.3209  -22.5570  -47.7251 O.2       12 UNK        -0.5000 
     74 N          -4.1346  -23.2520  -45.9204 N.am      13 UNK        -0.5000 
     75 CA         -4.6874  -24.6040  -45.8560 C.3       13 UNK         0.1400 
     76 CB         -4.5331  -25.1551  -44.4294 C.3       13 UNK        -0.1800 
     77 C          -4.0705  -25.5785  -46.8718 C.2       13 UNK         0.5000 
     78 O          -4.8160  -26.2841  -47.5526 O.2       13 UNK        -0.5000 
     79 N          -2.7337  -25.6452  -46.9245 N.am      14 UNK        -0.5000 
     80 CA         -2.0049  -26.6771  -47.6637 C.3       14 UNK         0.1400 
     81 CB         -0.7564  -27.1053  -46.8741 C.3       14 UNK        -0.1800 
     82 C          -1.6303  -26.2157  -49.0774 C.2       14 UNK         0.5000 
     83 O          -1.8299  -26.9745  -50.0271 O.2       14 UNK        -0.5000 
     84 N          -1.1040  -24.9884  -49.2040 N.am      15 UNK        -0.5000 
     85 CA         -0.7131  -24.4200  -50.5003 C.3       15 UNK         0.1400 
     86 CB          0.3459  -23.3236  -50.3028 C.3       15 UNK        -0.1800 
     87 C          -1.9123  -23.8813  -51.3042 C.2       15 UNK         0.5000 
     88 O          -1.7854  -23.7069  -52.5149 O.2       15 UNK        -0.5000 
     89 N          -3.0391  -23.6269  -50.6196 N.am      16 UNK        -0.5000 
     90 CA         -4.2855  -23.0499  -51.1371 C.3       16 UNK         0.1400 
     91 CB         -4.9520  -23.9916  -52.1585 C.3       16 UNK        -0.1800 
     92 C          -4.1054  -21.6107  -51.6647 C.2       16 UNK         0.5000 
     93 O          -4.8116  -21.1817  -52.5803 O.2       16 UNK        -0.5000 
     94 N          -3.1736  -20.8700  -51.0521 N.am      17 UNK        -0.5000 
     95 CA         -2.8050  -19.5049  -51.4179 C.3       17 UNK         0.1400 
     96 CB         -1.4992  -19.1394  -50.7066 C.3       17 UNK        -0.1800 
     97 C          -3.9027  -18.4812  -51.0859 C.2       17 UNK         0.5000 
     98 O          -3.9857  -17.4493  -51.7491 O.2       17 UNK        -0.5000 
     99 N          -4.7612  -18.8059  -50.1083 N.am      18 UNK        -0.5000 
    100 CA        -5.9568  -18.0362  -49.7527 C.3       18 UNK         0.1400 
    101 CB        -6.5441  -18.5938  -48.4473 C.3       18 UNK        -0.1800 
    102 C         -7.0224  -18.0296  -50.8689 C.2       18 UNK         0.5000 
    103 O         -7.7827  -17.0674  -50.9757 O.2       18 UNK        -0.5000 
    104 N         -7.0347  -19.0863  -51.6930 N.am      19 UNK        -0.5000 
    105 CA        -7.8596  -19.2127  -52.8954 C.3       19 UNK         0.1400 
    106 CB        -8.3371  -20.6715  -53.0002 C.3       19 UNK        -0.1800 
    107 C         -7.0922  -18.8024  -54.1703 C.2       19 UNK         0.5000 
    108 O         -7.6657  -18.8639  -55.2584 O.2       19 UNK        -0.5000 
    109 N         -5.8113  -18.4240  -54.0213 N.am      20 UNK        -0.5000 
    110 CA        -4.8270  -18.1401  -55.0718 C.3       20 UNK         0.1400 
    111 CB        -5.2024  -16.8569  -55.8412 C.3       20 UNK        -0.1800 
    112 C         -4.5723  -19.3505  -55.9975 C.2       20 UNK         0.5000 
    113 O         -4.3106  -19.1737  -57.1884 O.2       20 UNK        -0.5000 
    114 N         -4.6579  -20.5619  -55.4326 N.am      21 UNK        -0.5000 
    115 CA        -4.6007  -21.8366  -56.1462 C.3       21 UNK         0.1400 
    116 CB        -5.8236  -22.6772  -55.7382 C.3       21 UNK        -0.1800 
    117 C         -3.2631  -22.5671  -55.9143 C.2       21 UNK         0.5000 
    118 O         -3.2334  -23.7990  -55.8980 O.2       21 UNK        -0.5000 
    119 N         -2.1788  -21.7955  -55.7587 N.am      22 UNK        -0.5000 
    120 CA        -0.7895  -22.2747  -55.6747 C.3       22 UNK         0.1400 
    121 C         -0.3541  -23.0839  -56.9305 C.2       22 UNK         0.5000 
    122 N          0.3818  -24.1726  -56.7522 N.am      22 UNK        -0.7600 
    123 O         -0.6366  -22.7053  -58.0655 O.2       22 UNK        -0.5000 
    124 C124        0.1959  -21.1007  -55.4469 C.3       23 UNK        -0.0398 
    125 S125       -0.0173  -20.2885  -53.8269 S.3       23 UNK        -0.2404 
    126 C126        1.7247  -20.0562  -53.3507 C.3       23 UNK        -0.0205 
    127 H127       -3.6842  -11.2457  -48.1589 H         1 UNK         0.0600 
    128 H128       -3.1240  -11.7538  -49.7553 H         1 UNK         0.0600 
    129 H129       -2.1791  -10.5943  -48.8161 H         1 UNK         0.0600 
    130 H130       -2.2077  -13.7868  -49.7381 H         1 UNK         0.3000 
    131 H131       -0.0886  -14.5606  -48.0778 H         1 UNK         0.0600 
    132 H132       -1.8850  -16.3413  -49.7868 H         1 UNK         0.0800 
    133 H133       -0.3320  -16.8056  -49.1438 H         1 UNK         0.0800 
    134 H134        2.2172  -15.2447  -51.5440 H         1 UNK         0.0800 
    135 H135        1.9844  -15.2907  -49.8149 H         1 UNK         0.0800 
    136 H136        1.4145  -17.3882  -52.8975 H         1 UNK         0.1150 
    137 H137        2.3592  -21.0561  -50.8942 H         1 UNK         0.1150 
    138 H138        2.3499  -17.3611  -48.7177 H         1 UNK         0.1150 
    139 H139        2.5531  -21.1235  -48.5124 H         1 UNK         0.0800 
    140 H140        3.8930  -20.0226  -48.3331 H         1 UNK         0.0800 
    141 H141        0.0789  -19.1742  -48.1068 H         1 UNK         0.0800 
    142 H142       -0.2092  -18.9969  -46.4028 H         1 UNK         0.0800 
    143 H143        0.3299  -21.6427  -47.8334 H         1 UNK         0.0600 
    144 H144        0.4825  -21.1752  -45.0563 H         1 UNK         0.3000 
    145 H145       -0.6170  -24.4191  -43.9873 H         1 UNK         0.0600 
    146 H146        1.5870  -24.3056  -42.8271 H         1 UNK         0.0600 
    147 H147        1.7755  -24.7268  -44.5223 H         1 UNK         0.0600 
    148 H148        2.1496  -23.0978  -43.9819 H         1 UNK         0.0600 
    149 H149        0.2971  -21.9715  -42.7123 H         1 UNK         0.3000 
    150 H150       -2.9792  -20.6519  -42.1566 H         1 UNK         0.0600 
    151 H151       -2.6635  -22.3463  -40.3470 H         1 UNK         0.0600 
    152 H152       -2.2139  -20.7387  -39.8009 H         1 UNK         0.0600 
    153 H153       -0.9635  -21.9111  -40.2172 H         1 UNK         0.0600 
    154 H154       -0.3703  -19.7876  -41.3566 H         1 UNK         0.3000 
    155 H155        0.4533  -17.9453  -44.2709 H         1 UNK         0.0600 
    156 H156        0.5490  -16.0789  -42.6086 H         1 UNK         0.0600 
    157 H157       -0.5317  -16.9642  -41.5362 H         1 UNK         0.0600 
    158 H158       -1.0994  -16.4141  -43.1064 H         1 UNK         0.0600 
    159 H159        1.8286  -17.9588  -41.8785 H         1 UNK         0.3000 
    160 H160        3.2943  -20.6568  -41.3900 H         1 UNK         0.0600 
    161 H161        4.7727  -19.7766  -43.9215 H         1 UNK         0.0600 
    162 H162        4.2791  -21.4094  -43.5060 H         1 UNK         0.0600 
    163 H163        5.5180  -20.6074  -42.5554 H         1 UNK         0.0600 
    164 H164        4.0279  -18.8411  -40.4008 H         1 UNK         0.3000 
    165 H165        4.1082  -16.5628  -40.0209 H         1 UNK         0.0600 
    166 H166        6.9584  -16.8472  -41.1102 H         1 UNK         0.0600 
    167 H167        6.5399  -16.0126  -39.6131 H         1 UNK         0.0600 
    168 H168        6.2383  -17.7340  -39.7807 H         1 UNK         0.0600 
    169 H169        3.7793  -14.6778  -41.1209 H         1 UNK         0.3000 
    170 H170        4.4599  -12.5811  -41.7549 H         1 UNK         0.0600 
    171 H171        6.7873  -12.0166  -42.4716 H         1 UNK         0.0600 
    172 H172        6.4158  -12.5287  -44.1137 H         1 UNK         0.0600 
    173 H173        5.5862  -11.1423  -43.4082 H         1 UNK         0.0600 
    174 H174        4.1015  -12.9902  -44.5983 H         1 UNK         0.3000 
    175 H175        1.8617  -12.9361  -45.3171 H         1 UNK         0.0600 
    176 H176        1.8597  -15.9739  -44.8566 H         1 UNK         0.0600 
    177 H177        1.5235  -15.1503  -46.3786 H         1 UNK         0.0600 
    178 H178        3.1304  -15.0914  -45.6861 H         1 UNK         0.0600 
    179 H179       -0.2169  -14.7060  -44.5639 H         1 UNK         0.3000 
    180 H180       -1.9430  -13.6831  -42.5365 H         1 UNK         0.0600 
    181 H181       -2.7529  -11.2532  -44.2256 H         1 UNK         0.0600 
    182 H182       -2.3946  -11.2419  -42.5007 H         1 UNK         0.0600 
    183 H183       -3.8080  -12.0984  -43.0932 H         1 UNK         0.0600 
    184 H184       -2.2532  -13.6647  -45.4845 H         1 UNK         0.3000 
    185 H185       -3.4370  -16.8859  -45.4676 H         1 UNK         0.0600 
    186 H186       -5.7498  -16.0921  -45.0323 H         1 UNK         0.0600 
    187 H187       -5.4822  -14.6682  -46.0312 H         1 UNK         0.0600 
    188 H188       -5.4966  -16.2725  -46.7603 H         1 UNK         0.0600 
    189 H189       -3.4974  -14.8404  -47.5043 H         1 UNK         0.3000 
    190 H190       -2.2131  -20.4907  -45.5641 H         1 UNK         0.3000 
    191 H191       -4.2784  -20.3262  -47.4980 H         1 UNK         0.0600 
    192 H192       -4.4243  -20.7026  -44.4625 H         1 UNK         0.0600 
    193 H193       -5.7757  -20.2422  -45.4927 H         1 UNK         0.0600 
    194 H194       -4.3956  -19.1681  -45.3257 H         1 UNK         0.0600 
    195 H195       -3.5073  -22.9825  -45.1663 H         1 UNK         0.3000 
    196 H196       -5.7584  -24.5482  -46.0644 H         1 UNK         0.0600 
    197 H197       -4.9858  -26.1435  -44.3411 H         1 UNK         0.0600 
    198 H198       -5.0221  -24.5072  -43.7017 H         1 UNK         0.0600 
    199 H199       -3.4850  -25.2483  -44.1423 H         1 UNK         0.0600 
    200 H200       -2.1695  -24.9736  -46.4147 H         1 UNK         0.3000 
    201 H201       -2.6346  -27.5642  -47.7632 H         1 UNK         0.0600 
    202 H202       -1.0196  -27.4338  -45.8686 H         1 UNK         0.0600 
    203 H203       -0.0273  -26.3008  -46.7834 H         1 UNK         0.0600 
    204 H204       -0.2560  -27.9394  -47.3673 H         1 UNK         0.0600 
    205 H205       -0.9530  -24.4264  -48.3726 H         1 UNK         0.3000 
    206 H206       -0.2508  -25.2107  -51.0954 H         1 UNK         0.0600 
    207 H207        1.1353  -23.6409  -49.6214 H         1 UNK         0.0600 
    208 H208        0.8162  -23.0744  -51.2548 H         1 UNK         0.0600 
    209 H209       -0.0884  -22.4031  -49.9204 H         1 UNK         0.0600 
    210 H210       -3.0083  -23.7714  -49.6202 H         1 UNK         0.3000 
    211 H211       -4.9598  -22.9724  -50.2850 H         1 UNK         0.0600 
    212 H212       -4.3803  -24.0554  -53.0848 H         1 UNK         0.0600 
    213 H213       -5.9539  -23.6434  -52.4109 H         1 UNK         0.0600 
    214 H214       -5.0528  -24.9998  -51.7568 H         1 UNK         0.0600 
    215 H215       -2.6712  -21.2744  -50.2642 H         1 UNK         0.3000 
    216 H216       -2.6337  -19.4812  -52.4958 H         1 UNK         0.0600 
    217 H217       -0.7582  -19.9333  -50.7985 H         1 UNK         0.0600 
    218 H218       -1.6598  -18.9509  -49.6458 H         1 UNK         0.0600 
    219 H219       -1.0661  -18.2428  -51.1478 H         1 UNK         0.0600 
    220 H220       -4.6208  -19.6828  -49.6297 H         1 UNK         0.3000 
    221 H221       -5.6551  -17.0010  -49.5788 H         1 UNK         0.0600 
    222 H222       -6.8137  -19.6466  -48.5420 H         1 UNK         0.0600 
    223 H223       -5.8355  -18.4998  -47.6255 H         1 UNK         0.0600 
    224 H224       -7.4437  -18.0486  -48.1587 H         1 UNK         0.0600 
    225 H225       -6.3596  -19.8253  -51.5485 H         1 UNK         0.3000 
    226 H226       -8.7386  -18.5696  -52.8190 H         1 UNK         0.0600 
    227 H227       -8.8905  -20.9703  -52.1098 H         1 UNK         0.0600 
    228 H228       -9.0017  -20.8072  -53.8543 H         1 UNK         0.0600 
    229 H229       -7.5018  -21.3619  -53.1235 H         1 UNK         0.0600 
    230 H230       -5.4514  -18.3614  -53.0784 H         1 UNK         0.3000 
    231 H231       -3.8827  -17.9505  -54.5598 H         1 UNK         0.0600 
    232 H232       -4.4044  -16.5623  -56.5237 H         1 UNK         0.0600 
    233 H233       -5.3674  -16.0234  -55.1586 H         1 UNK         0.0600 
    234 H234       -6.1073  -16.9894  -56.4348 H         1 UNK         0.0600 
    235 H235       -4.8179  -20.6314  -54.4305 H         1 UNK         0.3000 
    236 H236       -4.6707  -21.6684  -57.2226 H         1 UNK         0.0600 
    237 H237       -6.7517  -22.1522  -55.9653 H         1 UNK         0.0600 
    238 H238       -5.8510  -23.6275  -56.2726 H         1 UNK         0.0600 
    239 H239       -5.8205  -22.8951  -54.6718 H         1 UNK         0.0600 
    240 H240       -2.3017  -20.7952  -55.7864 H         1 UNK         0.3000 
    241 H241       -0.7325  -22.9415  -54.8133 H         1 UNK         0.0600 
    242 H242        0.6262  -24.5000  -55.8302 H         1 UNK         0.3800 
    243 H243        0.6844  -24.6972  -57.5585 H         1 UNK         0.3800 
    244 H244        1.2246  -21.4592  -55.5180 H         1 UNK         0.0800 
    245 H245        0.0865  -20.3486  -56.2301 H         1 UNK         0.0800 
    246 H246        2.2429  -19.5048  -54.1367 H         1 UNK         0.0800 
    247 H247        2.2114  -21.0306  -53.2845 H         1 UNK         0.0800 
@<TRIPOS>BOND
     1    1    2 1    
     2    1  127 1    
     3    1  128 1    
     4    1  129 1    
     5    2    3 2    
     6    2    4 am   BACKBONE|DICT|INTERRES
     7    4    5 1    
     8    4  130 1    
     9    5    6 1    
    10    5   65 1    
    11    5  131 1    
    12    6    7 1    
    13    6  132 1    
    14    6  133 1    
    15    7    8 1    
    16    8    9 1    
    17    8  134 1    
    18    8  135 1    
    19    9   10 ar   
    20    9   14 ar   
    21   10   11 ar   
    22   10  136 1    
    23   11   12 ar   
    24   11  126 1    
    25   12   13 ar   
    26   12  137 1    
    27   13   14 ar   
    28   13   15 1    
    29   14  138 1    
    30   15   16 1    
    31   15  139 1    
    32   15  140 1    
    33   16   17 1    
    34   17   18 1    
    35   17  141 1    
    36   17  142 1    
    37   18   19 1    
    38   18   67 1    
    39   18  143 1    
    40   19   20 am   BACKBONE|DICT|INTERRES
    41   19  144 1    
    42   20   21 2    
    43   20   22 1    
    44   22   23 1    
    45   22   24 1    
    46   22  145 1    
    47   23  146 1    
    48   23  147 1    
    49   23  148 1    
    50   24   25 am   BACKBONE|DICT|INTERRES
    51   24  149 1    
    52   25   26 2    
    53   25   27 1    
    54   27   28 1    
    55   27   29 1    
    56   27  150 1    
    57   28  151 1    
    58   28  152 1    
    59   28  153 1    
    60   29   30 am   BACKBONE|DICT|INTERRES
    61   29  154 1    
    62   30   31 2    
    63   30   32 1    
    64   32   33 1    
    65   32   34 1    
    66   32  155 1    
    67   33  156 1    
    68   33  157 1    
    69   33  158 1    
    70   34   35 am   BACKBONE|DICT|INTERRES
    71   34  159 1    
    72   35   36 2    
    73   35   37 1    
    74   37   38 1    
    75   37   39 1    
    76   37  160 1    
    77   38  161 1    
    78   38  162 1    
    79   38  163 1    
    80   39   40 am   BACKBONE|DICT|INTERRES
    81   39  164 1    
    82   40   41 2    
    83   40   42 1    
    84   42   43 1    
    85   42   44 1    
    86   42  165 1    
    87   43  166 1    
    88   43  167 1    
    89   43  168 1    
    90   44   45 am   BACKBONE|DICT|INTERRES
    91   44  169 1    
    92   45   46 2    
    93   45   47 1    
    94   47   48 1    
    95   47   49 1    
    96   47  170 1    
    97   48  171 1    
    98   48  172 1    
    99   48  173 1    
   100   49   50 am   BACKBONE|DICT|INTERRES
   101   49  174 1    
   102   50   51 2    
   103   50   52 1    
   104   52   53 1    
   105   52   54 1    
   106   52  175 1    
   107   53  176 1    
   108   53  177 1    
   109   53  178 1    
   110   54   55 am   BACKBONE|DICT|INTERRES
   111   54  179 1    
   112   55   56 2    
   113   55   57 1    
   114   57   58 1    
   115   57   59 1    
   116   57  180 1    
   117   58  181 1    
   118   58  182 1    
   119   58  183 1    
   120   59   60 am   BACKBONE|DICT|INTERRES
   121   59  184 1    
   122   60   61 2    
   123   60   62 1    
   124   62   63 1    
   125   62   64 1    
   126   62  185 1    
   127   63  186 1    
   128   63  187 1    
   129   63  188 1    
   130   64   65 am   BACKBONE|DICT|INTERRES
   131   64  189 1    
   132   65   66 2    
   133   67   68 2    
   134   67   69 am   BACKBONE|DICT|INTERRES
   135   69   70 1    
   136   69  190 1    
   137   70   71 1    
   138   70   72 1    
   139   70  191 1    
   140   71  192 1    
   141   71  193 1    
   142   71  194 1    
   143   72   73 2    
   144   72   74 am   BACKBONE|DICT|INTERRES
   145   74   75 1    
   146   74  195 1    
   147   75   76 1    
   148   75   77 1    
   149   75  196 1    
   150   76  197 1    
   151   76  198 1    
   152   76  199 1    
   153   77   78 2    
   154   77   79 am   BACKBONE|DICT|INTERRES
   155   79   80 1    
   156   79  200 1    
   157   80   81 1    
   158   80   82 1    
   159   80  201 1    
   160   81  202 1    
   161   81  203 1    
   162   81  204 1    
   163   82   83 2    
   164   82   84 am   BACKBONE|DICT|INTERRES
   165   84   85 1    
   166   84  205 1    
   167   85   86 1    
   168   85   87 1    
   169   85  206 1    
   170   86  207 1    
   171   86  208 1    
   172   86  209 1    
   173   87   88 2    
   174   87   89 am   BACKBONE|DICT|INTERRES
   175   89   90 1    
   176   89  210 1    
   177   90   91 1    
   178   90   92 1    
   179   90  211 1    
   180   91  212 1    
   181   91  213 1    
   182   91  214 1    
   183   92   93 2    
   184   92   94 am   BACKBONE|DICT|INTERRES
   185   94   95 1    
   186   94  215 1    
   187   95   96 1    
   188   95   97 1    
   189   95  216 1    
   190   96  217 1    
   191   96  218 1    
   192   96  219 1    
   193   97   98 2    
   194   97   99 am   BACKBONE|DICT|INTERRES
   195   99  100 1    
   196   99  220 1    
   197  100  101 1    
   198  100  102 1    
   199  100  221 1    
   200  101  222 1    
   201  101  223 1    
   202  101  224 1    
   203  102  103 2    
   204  102  104 am   BACKBONE|DICT|INTERRES
   205  104  105 1    
   206  104  225 1    
   207  105  106 1    
   208  105  107 1    
   209  105  226 1    
   210  106  227 1    
   211  106  228 1    
   212  106  229 1    
   213  107  108 2    
   214  107  109 am   BACKBONE|DICT|INTERRES
   215  109  110 1    
   216  109  230 1    
   217  110  111 1    
   218  110  112 1    
   219  110  231 1    
   220  111  232 1    
   221  111  233 1    
   222  111  234 1    
   223  112  113 2    
   224  112  114 am   BACKBONE|DICT|INTERRES
   225  114  115 1    
   226  114  235 1    
   227  115  116 1    
   228  115  117 1    
   229  115  236 1    
   230  116  237 1    
   231  116  238 1    
   232  116  239 1    
   233  117  118 2    
   234  117  119 am   BACKBONE|DICT|INTERRES
   235  119  120 1    
   236  119  240 1    
   237  120  121 1    
   238  120  124 1    
   239  120  241 1    
   240  121  122 am   BACKBONE|DICT|INTERRES
   241  121  123 2    
   242  122  242 1    
   243  122  243 1    
   244  124  125 1    
   245  124  244 1    
   246  124  245 1    
   247  125  126 1    
   248  126  246 1    
   249  126  247 1    
@<TRIPOS>SUBSTRUCTURE
     1 UNK         1 GROUP             0       ****    0 ROOT    
