@<TRIPOS>MOLECULE
3R540
247   249    1
SMALL
USER_CHARGES


@<TRIPOS>ATOM
      1 CA          1.1993  -12.2601  -51.5857 C.3       0 UNK        -0.1800 
      2 C           2.4926  -11.8623  -52.2969 C.2       0 UNK         0.5000 
      3 O           2.4549  -11.6190  -53.5018 O.2       0 UNK        -0.5000 
      4 N           3.6582  -11.7926  -51.6346 N.am      1 UNK        -0.5000 
      5 CA          3.9455  -11.9779  -50.2044 C.3       1 UNK         0.1400 
      6 C6          3.4370  -13.3342  -49.6368 C.3       23 UNK        -0.0398 
      7 S7          4.4566  -13.9852  -48.2684 S.3       23 UNK        -0.2404 
      8 C8          3.2058  -14.8969  -47.3068 C.3       23 UNK        -0.0205 
      9 C9          2.6681  -16.0880  -48.0854 C.ar      23 UNK        -0.0193 
     10 C10         1.4363  -16.0085  -48.7442 C.ar      23 UNK        -0.1150 
     11 C11         0.9448  -17.0972  -49.4714 C.ar      23 UNK        -0.0193 
     12 C12         1.7096  -18.2661  -49.5401 C.ar      23 UNK        -0.1150 
     13 C13         2.9327  -18.3664  -48.8736 C.ar      23 UNK        -0.0193 
     14 C14         3.4070  -17.2729  -48.1456 C.ar      23 UNK        -0.1150 
     15 C15         3.7358  -19.6574  -48.9449 C.3       23 UNK        -0.0205 
     16 S16         3.2280  -20.8532  -47.6675 S.3       23 UNK        -0.2404 
     17 C17         1.5338  -21.2535  -48.2130 C.3       23 UNK        -0.0398 
     18 CA          0.9567  -22.5060  -47.5217 C.3       11 UNK         0.1400 
     19 N           0.7316  -22.3048  -46.0892 N.am      11 UNK        -0.5000 
     20 C           0.3848  -23.2721  -45.2300 C.2       10 UNK         0.5000 
     21 O           0.2756  -24.4586  -45.5433 O.2       10 UNK        -0.5000 
     22 CA          0.0473  -22.8300  -43.7944 C.3       10 UNK         0.1400 
     23 CB          1.3231  -22.5879  -42.9742 C.3       10 UNK        -0.1800 
     24 N          -0.8004  -21.6356  -43.7641 N.am      10 UNK        -0.5000 
     25 C          -2.0545  -21.5947  -44.2378 C.2       9 UNK         0.5000 
     26 O          -2.6367  -22.5726  -44.7060 O.2       9 UNK        -0.5000 
     27 CA         -2.7732  -20.2336  -44.2183 C.3       9 UNK         0.1400 
     28 CB         -3.3608  -19.9530  -42.8276 C.3       9 UNK        -0.1800 
     29 N          -1.9136  -19.1221  -44.6253 N.am      9 UNK        -0.5000 
     30 C          -1.3583  -18.9913  -45.8391 C.2       8 UNK         0.5000 
     31 O          -1.5324  -19.7860  -46.7605 O.2       8 UNK        -0.5000 
     32 CA         -0.3876  -17.8147  -46.0383 C.3       8 UNK         0.1400 
     33 CB         -1.1474  -16.4970  -46.2489 C.3       8 UNK        -0.1800 
     34 N           0.5566  -17.6686  -44.9325 N.am      8 UNK        -0.5000 
     35 C           1.4168  -18.6169  -44.5351 C.2       7 UNK         0.5000 
     36 O           1.5169  -19.7222  -45.0636 O.2       7 UNK        -0.5000 
     37 CA          2.2568  -18.2998  -43.2899 C.3       7 UNK         0.1400 
     38 CB          3.4268  -17.3663  -43.6376 C.3       7 UNK        -0.1800 
     39 N           1.4351  -17.7091  -42.2336 N.am      7 UNK        -0.5000 
     40 C           0.4971  -18.3791  -41.5480 C.2       6 UNK         0.5000 
     41 O           0.2629  -19.5785  -41.6997 O.2       6 UNK        -0.5000 
     42 CA         -0.3456  -17.5609  -40.5522 C.3       6 UNK         0.1400 
     43 CB          0.4001  -17.3912  -39.2202 C.3       6 UNK        -0.1800 
     44 N          -0.7152  -16.2438  -41.0739 N.am      6 UNK        -0.5000 
     45 C          -1.5422  -16.0480  -42.1105 C.2       5 UNK         0.5000 
     46 O          -2.1010  -16.9587  -42.7194 O.2       5 UNK        -0.5000 
     47 CA         -1.7490  -14.5940  -42.5732 C.3       5 UNK         0.1400 
     48 CB         -2.8789  -13.9289  -41.7737 C.3       5 UNK        -0.1800 
     49 N          -0.5459  -13.7612  -42.4939 N.am      5 UNK        -0.5000 
     50 C           0.6186  -14.0202  -43.1023 C.2       4 UNK         0.5000 
     51 O           0.8334  -15.0353  -43.7668 O.2       4 UNK        -0.5000 
     52 CA          1.6996  -12.9351  -42.9751 C.3       4 UNK         0.1400 
     53 CB          3.1086  -13.4654  -43.2940 C.3       4 UNK        -0.1800 
     54 N           1.3941  -11.8463  -43.8943 N.am      4 UNK        -0.5000 
     55 C           0.5557  -10.8287  -43.6715 C.2       3 UNK         0.5000 
     56 O          -0.0322  -10.6686  -42.6000 O.2       3 UNK        -0.5000 
     57 CA          0.3443   -9.8318  -44.8390 C.3       3 UNK         0.1400 
     58 CB         -0.2883   -8.5079  -44.3733 C.3       3 UNK        -0.1800 
     59 N           1.5736   -9.5276  -45.5840 N.am      3 UNK        -0.5000 
     60 C           2.1887  -10.3465  -46.4461 C.2       2 UNK         0.5000 
     61 O           1.7708  -11.4763  -46.7158 O.2       2 UNK        -0.5000 
     62 CA          3.5200   -9.8482  -47.0408 C.3       2 UNK         0.1400 
     63 CB          4.6076   -9.7888  -45.9547 C.3       2 UNK        -0.1800 
     64 N           3.9789  -10.7470  -48.0969 N.am      2 UNK        -0.5000 
     65 C           3.5072  -10.7671  -49.3472 C.2       1 UNK         0.5000 
     66 O           2.7702   -9.8922  -49.8097 O.2       1 UNK        -0.5000 
     67 C          -0.3260  -22.9704  -48.2392 C.2       11 UNK         0.5000 
     68 O          -0.2562  -23.9035  -49.0363 O.2       11 UNK        -0.5000 
     69 N          -1.4739  -22.3509  -47.9263 N.am      12 UNK        -0.5000 
     70 CA         -2.7857  -22.7209  -48.4599 C.3       12 UNK         0.1400 
     71 CB         -3.8481  -21.7130  -48.0023 C.3       12 UNK        -0.1800 
     72 C          -3.2031  -24.1474  -48.0740 C.2       12 UNK         0.5000 
     73 O          -3.7191  -24.8692  -48.9246 O.2       12 UNK        -0.5000 
     74 N          -2.9418  -24.5440  -46.8210 N.am      13 UNK        -0.5000 
     75 CA         -3.1690  -25.8995  -46.3208 C.3       13 UNK         0.1400 
     76 CB         -2.9461  -25.9376  -44.8016 C.3       13 UNK        -0.1800 
     77 C          -2.2932  -26.9447  -47.0357 C.2       13 UNK         0.5000 
     78 O          -2.8011  -28.0017  -47.4105 O.2       13 UNK        -0.5000 
     79 N          -1.0115  -26.6152  -47.2520 N.am      14 UNK        -0.5000 
     80 CA         -0.0565  -27.4415  -47.9945 C.3       14 UNK         0.1400 
     81 CB          1.3601  -26.8763  -47.8102 C.3       14 UNK        -0.1800 
     82 C          -0.4080  -27.5682  -49.4904 C.2       14 UNK         0.5000 
     83 O          -0.2897  -28.6567  -50.0539 O.2       14 UNK        -0.5000 
     84 N          -0.8565  -26.4616  -50.0976 N.am      15 UNK        -0.5000 
     85 CA         -1.2987  -26.3790  -51.4917 C.3       15 UNK         0.1400 
     86 CB         -1.2833  -24.9038  -51.9248 C.3       15 UNK        -0.1800 
     87 C          -2.6931  -26.9903  -51.7398 C.2       15 UNK         0.5000 
     88 O          -3.0632  -27.1777  -52.8990 O.2       15 UNK        -0.5000 
     89 N          -3.4411  -27.2637  -50.6608 N.am      16 UNK        -0.5000 
     90 CA         -4.8296  -27.7321  -50.6256 C.3       16 UNK         0.1400 
     91 CB         -4.9546  -29.1470  -51.2287 C.3       16 UNK        -0.1800 
     92 C          -5.8078  -26.7090  -51.2428 C.2       16 UNK         0.5000 
     93 O          -6.7013  -27.0855  -52.0036 O.2       16 UNK        -0.5000 
     94 N          -5.6068  -25.4303  -50.8877 N.am      17 UNK        -0.5000 
     95 CA         -6.3522  -24.2432  -51.3167 C.3       17 UNK         0.1400 
     96 CB         -7.7710  -24.2469  -50.7126 C.3       17 UNK        -0.1800 
     97 C          -6.3428  -24.0699  -52.8481 C.2       17 UNK         0.5000 
     98 O          -7.3991  -24.0326  -53.4830 O.2       17 UNK        -0.5000 
     99 N          -5.1310  -23.9876  -53.4143 N.am      18 UNK        -0.5000 
    100 CA        -4.8874  -23.7938  -54.8466 C.3       18 UNK         0.1400 
    101 CB        -3.3927  -23.9966  -55.1336 C.3       18 UNK        -0.1800 
    102 C         -5.3559  -22.4202  -55.3674 C.2       18 UNK         0.5000 
    103 O         -5.6823  -22.2969  -56.5489 O.2       18 UNK        -0.5000 
    104 N         -5.3978  -21.4263  -54.4762 N.am      19 UNK        -0.5000 
    105 CA        -5.9501  -20.0973  -54.6961 C.3       19 UNK         0.1400 
    106 CB        -4.8187  -19.1448  -55.1167 C.3       19 UNK        -0.1800 
    107 C         -6.6442  -19.6360  -53.4048 C.2       19 UNK         0.5000 
    108 O         -6.5393  -20.3078  -52.3739 O.2       19 UNK        -0.5000 
    109 N         -7.3446  -18.4969  -53.4791 N.am      20 UNK        -0.5000 
    110 CA        -8.0491  -17.8597  -52.3644 C.3       20 UNK         0.1400 
    111 CB        -8.8277  -16.6435  -52.8937 C.3       20 UNK        -0.1800 
    112 C         -7.0811  -17.4674  -51.2303 C.2       20 UNK         0.5000 
    113 O         -6.3993  -16.4459  -51.3339 O.2       20 UNK        -0.5000 
    114 N         -7.0140  -18.3254  -50.2020 N.am      21 UNK        -0.5000 
    115 CA        -6.0951  -18.2764  -49.0602 C.3       21 UNK         0.1400 
    116 CB        -6.4121  -17.0700  -48.1515 C.3       21 UNK        -0.1800 
    117 C         -4.6084  -18.3488  -49.4740 C.2       21 UNK         0.5000 
    118 O         -3.7669  -17.7040  -48.8473 O.2       21 UNK        -0.5000 
    119 N         -4.3071  -19.1362  -50.5155 N.am      22 UNK        -0.5000 
    120 CA        -2.9524  -19.3563  -51.0360 C.3       22 UNK         0.1400 
    121 C         -2.8492  -20.6869  -51.8383 C.2       22 UNK         0.5000 
    122 N         -1.7155  -20.9556  -52.4688 N.am      22 UNK        -0.7600 
    123 O         -3.7744  -21.4955  -51.8830 O.2       22 UNK        -0.5000 
    124 C124       -2.4081  -18.1052  -51.7925 C.3       23 UNK        -0.0398 
    125 S125       -0.5960  -17.9317  -51.6775 S.3       23 UNK        -0.2404 
    126 C126       -0.4441  -17.0246  -50.1004 C.3       23 UNK        -0.0205 
    127 H127        1.0915  -11.7720  -50.6189 H         1 UNK         0.0600 
    128 H128        1.1594  -13.3400  -51.4440 H         1 UNK         0.0600 
    129 H129        0.3363  -11.9742  -52.1873 H         1 UNK         0.0600 
    130 H130        4.4664  -11.5085  -52.1702 H         1 UNK         0.3000 
    131 H131        5.0360  -11.9911  -50.1626 H         1 UNK         0.0600 
    132 H132        3.4435  -14.0966  -50.4172 H         1 UNK         0.0800 
    133 H133        2.4028  -13.2516  -49.3010 H         1 UNK         0.0800 
    134 H134        2.3969  -14.2239  -47.0167 H         1 UNK         0.0800 
    135 H135        3.6578  -15.2458  -46.3773 H         1 UNK         0.0800 
    136 H136        0.8515  -15.1020  -48.6765 H         1 UNK         0.1150 
    137 H137        1.3410  -19.1173  -50.0927 H         1 UNK         0.1150 
    138 H138        4.3548  -17.3402  -47.6302 H         1 UNK         0.1150 
    139 H139        3.6348  -20.1100  -49.9325 H         1 UNK         0.0800 
    140 H140        4.7976  -19.4407  -48.8192 H         1 UNK         0.0800 
    141 H141        1.5583  -21.3948  -49.2953 H         1 UNK         0.0800 
    142 H142        0.8901  -20.3943  -48.0194 H         1 UNK         0.0800 
    143 H143        1.6861  -23.3124  -47.6250 H         1 UNK         0.0600 
    144 H144        0.8532  -21.3560  -45.7409 H         1 UNK         0.3000 
    145 H145       -0.5069  -23.6431  -43.3209 H         1 UNK         0.0600 
    146 H146        1.0847  -22.3439  -41.9389 H         1 UNK         0.0600 
    147 H147        1.9180  -21.7700  -43.3807 H         1 UNK         0.0600 
    148 H148        1.9534  -23.4778  -42.9627 H         1 UNK         0.0600 
    149 H149       -0.3923  -20.7947  -43.3723 H         1 UNK         0.3000 
    150 H150       -3.5999  -20.2871  -44.9294 H         1 UNK         0.0600 
    151 H151       -4.0054  -20.7705  -42.5022 H         1 UNK         0.0600 
    152 H152       -3.9646  -19.0455  -42.8316 H         1 UNK         0.0600 
    153 H153       -2.5784  -19.8309  -42.0776 H         1 UNK         0.0600 
    154 H154       -1.7528  -18.3977  -43.9306 H         1 UNK         0.3000 
    155 H155        0.1980  -18.0226  -46.9343 H         1 UNK         0.0600 
    156 H156       -1.7649  -16.2470  -45.3869 H         1 UNK         0.0600 
    157 H157       -1.8065  -16.5623  -47.1151 H         1 UNK         0.0600 
    158 H158       -0.4611  -15.6677  -46.4206 H         1 UNK         0.0600 
    159 H159        0.5616  -16.7741  -44.4488 H         1 UNK         0.3000 
    160 H160        2.6724  -19.2376  -42.9149 H         1 UNK         0.0600 
    161 H161        3.0826  -16.4192  -44.0520 H         1 UNK         0.0600 
    162 H162        4.0790  -17.8261  -44.3813 H         1 UNK         0.0600 
    163 H163        4.0352  -17.1491  -42.7597 H         1 UNK         0.0600 
    164 H164        1.5142  -16.7116  -42.1019 H         1 UNK         0.3000 
    165 H165       -1.2646  -18.1187  -40.3594 H         1 UNK         0.0600 
    166 H166       -0.2214  -16.8831  -38.4826 H         1 UNK         0.0600 
    167 H167        0.6736  -18.3604  -38.8007 H         1 UNK         0.0600 
    168 H168        1.3181  -16.8148  -39.3409 H         1 UNK         0.0600 
    169 H169       -0.2968  -15.4388  -40.6318 H         1 UNK         0.3000 
    170 H170       -2.0511  -14.6254  -43.6215 H         1 UNK         0.0600 
    171 H171       -3.7973  -14.5146  -41.8337 H         1 UNK         0.0600 
    172 H172       -2.6210  -13.8287  -40.7188 H         1 UNK         0.0600 
    173 H173       -3.1035  -12.9346  -42.1606 H         1 UNK         0.0600 
    174 H174       -0.6419  -12.8746  -42.0159 H         1 UNK         0.3000 
    175 H175        1.7007  -12.5649  -41.9477 H         1 UNK         0.0600 
    176 H176        3.1847  -13.8222  -44.3217 H         1 UNK         0.0600 
    177 H177        3.8604  -12.6881  -43.1566 H         1 UNK         0.0600 
    178 H178        3.3729  -14.2932  -42.6352 H         1 UNK         0.0600 
    179 H179        1.7560  -11.9390  -44.8381 H         1 UNK         0.3000 
    180 H180       -0.3591  -10.3068  -45.5259 H         1 UNK         0.0600 
    181 H181       -0.4696   -7.8394  -45.2151 H         1 UNK         0.0600 
    182 H182        0.3518   -7.9861  -43.6610 H         1 UNK         0.0600 
    183 H183       -1.2501   -8.6795  -43.8882 H         1 UNK         0.0600 
    184 H184        1.9992   -8.6348  -45.3803 H         1 UNK         0.3000 
    185 H185        3.3686   -8.8478  -47.4516 H         1 UNK         0.0600 
    186 H186        4.7635  -10.7622  -45.4871 H         1 UNK         0.0600 
    187 H187        5.5609   -9.4610  -46.3700 H         1 UNK         0.0600 
    188 H188        4.3430   -9.0847  -45.1651 H         1 UNK         0.0600 
    189 H189        4.5344  -11.5343  -47.7910 H         1 UNK         0.3000 
    190 H190       -1.4503  -21.5458  -47.3038 H         1 UNK         0.3000 
    191 H191       -2.7202  -22.6764  -49.5482 H         1 UNK         0.0600 
    192 H192       -3.5476  -20.6954  -48.2404 H         1 UNK         0.0600 
    193 H193       -4.0192  -21.7635  -46.9271 H         1 UNK         0.0600 
    194 H194       -4.8011  -21.8990  -48.4990 H         1 UNK         0.0600 
    195 H195       -2.5725  -23.8674  -46.1587 H         1 UNK         0.3000 
    196 H196       -4.2130  -26.1538  -46.5150 H         1 UNK         0.0600 
    197 H197       -3.6218  -25.2534  -44.2880 H         1 UNK         0.0600 
    198 H198       -1.9262  -25.6608  -44.5348 H         1 UNK         0.0600 
    199 H199       -3.1304  -26.9366  -44.4047 H         1 UNK         0.0600 
    200 H200       -0.6636  -25.7375  -46.8796 H         1 UNK         0.3000 
    201 H201       -0.0777  -28.4447  -47.5638 H         1 UNK         0.0600 
    202 H202        1.6380  -26.8462  -46.7565 H         1 UNK         0.0600 
    203 H203        1.4462  -25.8643  -48.2062 H         1 UNK         0.0600 
    204 H204        2.0970  -27.4942  -48.3246 H         1 UNK         0.0600 
    205 H205       -0.8453  -25.5857  -49.5792 H         1 UNK         0.3000 
    206 H206       -0.5855  -26.9251  -52.1124 H         1 UNK         0.0600 
    207 H207       -2.0034  -24.3106  -51.3596 H         1 UNK         0.0600 
    208 H208       -0.2980  -24.4599  -51.7814 H         1 UNK         0.0600 
    209 H209       -1.5286  -24.8044  -52.9815 H         1 UNK         0.0600 
    210 H210       -3.0469  -27.0244  -49.7605 H         1 UNK         0.3000 
    211 H211       -5.0943  -27.8035  -49.5696 H         1 UNK         0.0600 
    212 H212       -4.7633  -29.1516  -52.3020 H         1 UNK         0.0600 
    213 H213       -5.9569  -29.5481  -51.0749 H         1 UNK         0.0600 
    214 H214       -4.2537  -29.8375  -50.7596 H         1 UNK         0.0600 
    215 H215       -4.8456  -25.2466  -50.2340 H         1 UNK         0.3000 
    216 H216       -5.8242  -23.3808  -50.9057 H         1 UNK         0.0600 
    217 H217       -8.2998  -23.3254  -50.9591 H         1 UNK         0.0600 
    218 H218       -7.7349  -24.3197  -49.6257 H         1 UNK         0.0600 
    219 H219       -8.3700  -25.0785  -51.0851 H         1 UNK         0.0600 
    220 H220       -4.3187  -24.0046  -52.8154 H         1 UNK         0.3000 
    221 H221       -5.4466  -24.5589  -55.3889 H         1 UNK         0.0600 
    222 H222       -2.7785  -23.2812  -54.5856 H         1 UNK         0.0600 
    223 H223       -3.0732  -25.0018  -54.8584 H         1 UNK         0.0600 
    224 H224       -3.1774  -23.8688  -56.1952 H         1 UNK         0.0600 
    225 H225       -5.1370  -21.6170  -53.5124 H         1 UNK         0.3000 
    226 H226       -6.7082  -20.1336  -55.4811 H         1 UNK         0.0600 
    227 H227       -4.3812  -19.4540  -56.0661 H         1 UNK         0.0600 
    228 H228       -5.1777  -18.1231  -55.2438 H         1 UNK         0.0600 
    229 H229       -4.0208  -19.1281  -54.3765 H         1 UNK         0.0600 
    230 H230       -7.3653  -17.9974  -54.3561 H         1 UNK         0.3000 
    231 H231       -8.7757  -18.5740  -51.9714 H         1 UNK         0.0600 
    232 H232       -9.3587  -16.1392  -52.0852 H         1 UNK         0.0600 
    233 H233       -9.5714  -16.9424  -53.6327 H         1 UNK         0.0600 
    234 H234       -8.1676  -15.9109  -53.3599 H         1 UNK         0.0600 
    235 H235       -7.5743  -19.1647  -50.2633 H         1 UNK         0.3000 
    236 H236       -6.2847  -19.1802  -48.4795 H         1 UNK         0.0600 
    237 H237       -6.1862  -16.1227  -48.6419 H         1 UNK         0.0600 
    238 H238       -7.4636  -17.0574  -47.8647 H         1 UNK         0.0600 
    239 H239       -5.8268  -17.1088  -47.2320 H         1 UNK         0.0600 
    240 H240       -5.0375  -19.6660  -50.9817 H         1 UNK         0.3000 
    241 H241       -2.3276  -19.5275  -50.1570 H         1 UNK         0.0600 
    242 H242       -1.6278  -21.8160  -52.9824 H         1 UNK         0.3800 
    243 H243       -0.9463  -20.3028  -52.4500 H         1 UNK         0.3800 
    244 H244       -2.8482  -17.1873  -51.4006 H         1 UNK         0.0800 
    245 H245       -2.6914  -18.1278  -52.8440 H         1 UNK         0.0800 
    246 H246       -0.7364  -15.9866  -50.2659 H         1 UNK         0.0800 
    247 H247       -1.1510  -17.4381  -49.3807 H         1 UNK         0.0800 
@<TRIPOS>BOND
     1    1    2 1    
     2    1  127 1    
     3    1  128 1    
     4    1  129 1    
     5    2    3 2    
     6    2    4 am   BACKBONE|DICT|INTERRES
     7    4    5 1    
     8    4  130 1    
     9    5    6 1    
    10    5   65 1    
    11    5  131 1    
    12    6    7 1    
    13    6  132 1    
    14    6  133 1    
    15    7    8 1    
    16    8    9 1    
    17    8  134 1    
    18    8  135 1    
    19    9   10 ar   
    20    9   14 ar   
    21   10   11 ar   
    22   10  136 1    
    23   11   12 ar   
    24   11  126 1    
    25   12   13 ar   
    26   12  137 1    
    27   13   14 ar   
    28   13   15 1    
    29   14  138 1    
    30   15   16 1    
    31   15  139 1    
    32   15  140 1    
    33   16   17 1    
    34   17   18 1    
    35   17  141 1    
    36   17  142 1    
    37   18   19 1    
    38   18   67 1    
    39   18  143 1    
    40   19   20 am   BACKBONE|DICT|INTERRES
    41   19  144 1    
    42   20   21 2    
    43   20   22 1    
    44   22   23 1    
    45   22   24 1    
    46   22  145 1    
    47   23  146 1    
    48   23  147 1    
    49   23  148 1    
    50   24   25 am   BACKBONE|DICT|INTERRES
    51   24  149 1    
    52   25   26 2    
    53   25   27 1    
    54   27   28 1    
    55   27   29 1    
    56   27  150 1    
    57   28  151 1    
    58   28  152 1    
    59   28  153 1    
    60   29   30 am   BACKBONE|DICT|INTERRES
    61   29  154 1    
    62   30   31 2    
    63   30   32 1    
    64   32   33 1    
    65   32   34 1    
    66   32  155 1    
    67   33  156 1    
    68   33  157 1    
    69   33  158 1    
    70   34   35 am   BACKBONE|DICT|INTERRES
    71   34  159 1    
    72   35   36 2    
    73   35   37 1    
    74   37   38 1    
    75   37   39 1    
    76   37  160 1    
    77   38  161 1    
    78   38  162 1    
    79   38  163 1    
    80   39   40 am   BACKBONE|DICT|INTERRES
    81   39  164 1    
    82   40   41 2    
    83   40   42 1    
    84   42   43 1    
    85   42   44 1    
    86   42  165 1    
    87   43  166 1    
    88   43  167 1    
    89   43  168 1    
    90   44   45 am   BACKBONE|DICT|INTERRES
    91   44  169 1    
    92   45   46 2    
    93   45   47 1    
    94   47   48 1    
    95   47   49 1    
    96   47  170 1    
    97   48  171 1    
    98   48  172 1    
    99   48  173 1    
   100   49   50 am   BACKBONE|DICT|INTERRES
   101   49  174 1    
   102   50   51 2    
   103   50   52 1    
   104   52   53 1    
   105   52   54 1    
   106   52  175 1    
   107   53  176 1    
   108   53  177 1    
   109   53  178 1    
   110   54   55 am   BACKBONE|DICT|INTERRES
   111   54  179 1    
   112   55   56 2    
   113   55   57 1    
   114   57   58 1    
   115   57   59 1    
   116   57  180 1    
   117   58  181 1    
   118   58  182 1    
   119   58  183 1    
   120   59   60 am   BACKBONE|DICT|INTERRES
   121   59  184 1    
   122   60   61 2    
   123   60   62 1    
   124   62   63 1    
   125   62   64 1    
   126   62  185 1    
   127   63  186 1    
   128   63  187 1    
   129   63  188 1    
   130   64   65 am   BACKBONE|DICT|INTERRES
   131   64  189 1    
   132   65   66 2    
   133   67   68 2    
   134   67   69 am   BACKBONE|DICT|INTERRES
   135   69   70 1    
   136   69  190 1    
   137   70   71 1    
   138   70   72 1    
   139   70  191 1    
   140   71  192 1    
   141   71  193 1    
   142   71  194 1    
   143   72   73 2    
   144   72   74 am   BACKBONE|DICT|INTERRES
   145   74   75 1    
   146   74  195 1    
   147   75   76 1    
   148   75   77 1    
   149   75  196 1    
   150   76  197 1    
   151   76  198 1    
   152   76  199 1    
   153   77   78 2    
   154   77   79 am   BACKBONE|DICT|INTERRES
   155   79   80 1    
   156   79  200 1    
   157   80   81 1    
   158   80   82 1    
   159   80  201 1    
   160   81  202 1    
   161   81  203 1    
   162   81  204 1    
   163   82   83 2    
   164   82   84 am   BACKBONE|DICT|INTERRES
   165   84   85 1    
   166   84  205 1    
   167   85   86 1    
   168   85   87 1    
   169   85  206 1    
   170   86  207 1    
   171   86  208 1    
   172   86  209 1    
   173   87   88 2    
   174   87   89 am   BACKBONE|DICT|INTERRES
   175   89   90 1    
   176   89  210 1    
   177   90   91 1    
   178   90   92 1    
   179   90  211 1    
   180   91  212 1    
   181   91  213 1    
   182   91  214 1    
   183   92   93 2    
   184   92   94 am   BACKBONE|DICT|INTERRES
   185   94   95 1    
   186   94  215 1    
   187   95   96 1    
   188   95   97 1    
   189   95  216 1    
   190   96  217 1    
   191   96  218 1    
   192   96  219 1    
   193   97   98 2    
   194   97   99 am   BACKBONE|DICT|INTERRES
   195   99  100 1    
   196   99  220 1    
   197  100  101 1    
   198  100  102 1    
   199  100  221 1    
   200  101  222 1    
   201  101  223 1    
   202  101  224 1    
   203  102  103 2    
   204  102  104 am   BACKBONE|DICT|INTERRES
   205  104  105 1    
   206  104  225 1    
   207  105  106 1    
   208  105  107 1    
   209  105  226 1    
   210  106  227 1    
   211  106  228 1    
   212  106  229 1    
   213  107  108 2    
   214  107  109 am   BACKBONE|DICT|INTERRES
   215  109  110 1    
   216  109  230 1    
   217  110  111 1    
   218  110  112 1    
   219  110  231 1    
   220  111  232 1    
   221  111  233 1    
   222  111  234 1    
   223  112  113 2    
   224  112  114 am   BACKBONE|DICT|INTERRES
   225  114  115 1    
   226  114  235 1    
   227  115  116 1    
   228  115  117 1    
   229  115  236 1    
   230  116  237 1    
   231  116  238 1    
   232  116  239 1    
   233  117  118 2    
   234  117  119 am   BACKBONE|DICT|INTERRES
   235  119  120 1    
   236  119  240 1    
   237  120  121 1    
   238  120  124 1    
   239  120  241 1    
   240  121  122 am   BACKBONE|DICT|INTERRES
   241  121  123 2    
   242  122  242 1    
   243  122  243 1    
   244  124  125 1    
   245  124  244 1    
   246  124  245 1    
   247  125  126 1    
   248  126  246 1    
   249  126  247 1    
@<TRIPOS>SUBSTRUCTURE
     1 UNK         1 GROUP             0       ****    0 ROOT    
