@<TRIPOS>MOLECULE
3R540
247   249    1
SMALL
USER_CHARGES


@<TRIPOS>ATOM
      1 CA          0.2603  -11.5660  -51.1366 C.3       0 UNK        -0.1800 
      2 C           0.0909  -11.9065  -49.6628 C.2       0 UNK         0.5000 
      3 O          -1.0336  -12.1307  -49.2160 O.2       0 UNK        -0.5000 
      4 N           1.2050  -11.9510  -48.9189 N.am      1 UNK        -0.5000 
      5 CA          1.2949  -12.2742  -47.4879 C.3       1 UNK         0.1400 
      6 C6          0.8733  -13.7266  -47.1346 C.3       23 UNK        -0.0398 
      7 S7          1.7998  -14.9921  -48.0597 S.3       23 UNK        -0.2404 
      8 C8          0.4453  -15.7645  -48.9911 C.3       23 UNK        -0.0205 
      9 C9          0.9642  -16.8779  -49.8812 C.ar      23 UNK        -0.0193 
     10 C10         1.2553  -16.6306  -51.2251 C.ar      23 UNK        -0.1150 
     11 C11         1.7231  -17.6575  -52.0530 C.ar      23 UNK        -0.0193 
     12 C12         1.9196  -18.9325  -51.5121 C.ar      23 UNK        -0.1150 
     13 C13         1.6478  -19.1863  -50.1641 C.ar      23 UNK        -0.0193 
     14 C14         1.1601  -18.1569  -49.3570 C.ar      23 UNK        -0.1150 
     15 C15         1.9107  -20.5646  -49.5783 C.3       23 UNK        -0.0205 
     16 S16         0.5499  -21.7157  -49.9227 S.3       23 UNK        -0.2404 
     17 C17        -0.7065  -21.2643  -48.6761 C.3       23 UNK        -0.0398 
     18 CA         -0.9255  -22.4193  -47.6645 C.3       11 UNK         0.1400 
     19 N          -0.0532  -22.3297  -46.4888 N.am      11 UNK        -0.5000 
     20 C           0.1817  -23.3674  -45.6722 C.2       10 UNK         0.5000 
     21 O          -0.3091  -24.4851  -45.8319 O.2       10 UNK        -0.5000 
     22 CA          1.0755  -23.1094  -44.4497 C.3       10 UNK         0.1400 
     23 CB          2.5509  -23.0043  -44.8643 C.3       10 UNK        -0.1800 
     24 N           0.6783  -21.9159  -43.7044 N.am      10 UNK        -0.5000 
     25 C          -0.4994  -21.7616  -43.0828 C.2       9 UNK         0.5000 
     26 O          -1.3804  -22.6208  -43.0642 O.2       9 UNK        -0.5000 
     27 CA         -0.7574  -20.4038  -42.4044 C.3       9 UNK         0.1400 
     28 CB         -0.0283  -20.3122  -41.0558 C.3       9 UNK        -0.1800 
     29 N          -0.3764  -19.2715  -43.2479 N.am      9 UNK        -0.5000 
     30 C          -0.9418  -18.9824  -44.4292 C.2       8 UNK         0.5000 
     31 O          -1.8635  -19.6261  -44.9264 O.2       8 UNK        -0.5000 
     32 CA         -0.3418  -17.8061  -45.2156 C.3       8 UNK         0.1400 
     33 CB         -0.9584  -16.4790  -44.7561 C.3       8 UNK        -0.1800 
     34 N           1.1171  -17.7510  -45.1103 N.am      8 UNK        -0.5000 
     35 C           1.9229  -18.7127  -45.5857 C.2       7 UNK         0.5000 
     36 O           1.5144  -19.7284  -46.1522 O.2       7 UNK        -0.5000 
     37 CA          3.4302  -18.5341  -45.3482 C.3       7 UNK         0.1400 
     38 CB          3.9864  -17.3672  -46.1780 C.3       7 UNK        -0.1800 
     39 N           3.7606  -18.3339  -43.9375 N.am      7 UNK        -0.5000 
     40 C           3.5274  -19.2178  -42.9555 C.2       6 UNK         0.5000 
     41 O           2.9757  -20.3022  -43.1290 O.2       6 UNK        -0.5000 
     42 CA          3.9785  -18.8277  -41.5354 C.3       6 UNK         0.1400 
     43 CB          5.3638  -19.4177  -41.2322 C.3       6 UNK        -0.1800 
     44 N           4.0179  -17.3797  -41.3328 N.am      6 UNK        -0.5000 
     45 C           2.9320  -16.6001  -41.2594 C.2       5 UNK         0.5000 
     46 O           1.7808  -17.0461  -41.2601 O.2       5 UNK        -0.5000 
     47 CA          3.1833  -15.0775  -41.1634 C.3       5 UNK         0.1400 
     48 CB          4.4602  -14.6214  -41.9056 C.3       5 UNK        -0.1800 
     49 N           2.0424  -14.2783  -41.6138 N.am      5 UNK        -0.5000 
     50 C           1.4368  -14.3168  -42.8079 C.2       4 UNK         0.5000 
     51 O           1.7800  -15.0501  -43.7385 O.2       4 UNK        -0.5000 
     52 CA          0.2570  -13.3455  -42.9990 C.3       4 UNK         0.1400 
     53 CB         -0.8416  -13.5265  -41.9317 C.3       4 UNK        -0.1800 
     54 N           0.6930  -11.9493  -43.1113 N.am      4 UNK        -0.5000 
     55 C           1.2862  -11.1719  -42.1910 C.2       3 UNK         0.5000 
     56 O           1.4542  -11.5108  -41.0183 O.2       3 UNK        -0.5000 
     57 CA          1.8141   -9.7952  -42.6516 C.3       3 UNK         0.1400 
     58 CB          3.3335   -9.7038  -42.4304 C.3       3 UNK        -0.1800 
     59 N           1.5398   -9.5198  -44.0644 N.am      3 UNK        -0.5000 
     60 C           0.4538   -8.8905  -44.5328 C.2       2 UNK         0.5000 
     61 O          -0.4214   -8.4073  -43.8141 O.2       2 UNK        -0.5000 
     62 CA          0.3056   -8.8178  -46.0686 C.3       2 UNK         0.1400 
     63 CB          0.9042   -7.5091  -46.6059 C.3       2 UNK        -0.1800 
     64 N           0.9054   -9.9508  -46.7871 N.am      2 UNK        -0.5000 
     65 C           0.5492  -11.2335  -46.6251 C.2       1 UNK         0.5000 
     66 O          -0.3184  -11.5949  -45.8292 O.2       1 UNK        -0.5000 
     67 C          -2.4116  -22.6041  -47.2893 C.2       11 UNK         0.5000 
     68 O          -3.1303  -23.2612  -48.0430 O.2       11 UNK        -0.5000 
     69 N          -2.8543  -22.0766  -46.1390 N.am      12 UNK        -0.5000 
     70 CA         -4.1847  -22.3409  -45.5871 C.3       12 UNK         0.1400 
     71 CB         -4.4967  -21.3621  -44.4457 C.3       12 UNK        -0.1800 
     72 C          -4.3384  -23.7995  -45.1229 C.2       12 UNK         0.5000 
     73 O          -5.3260  -24.4425  -45.4782 O.2       12 UNK        -0.5000 
     74 N          -3.3455  -24.3086  -44.3787 N.am      13 UNK        -0.5000 
     75 CA         -3.2956  -25.6863  -43.8802 C.3       13 UNK         0.1400 
     76 CB         -2.1104  -25.8403  -42.9151 C.3       13 UNK        -0.1800 
     77 C          -3.2210  -26.7366  -45.0043 C.2       13 UNK         0.5000 
     78 O          -3.8691  -27.7792  -44.9079 O.2       13 UNK        -0.5000 
     79 N          -2.4602  -26.4285  -46.0628 N.am      14 UNK        -0.5000 
     80 CA         -2.3356  -27.2468  -47.2708 C.3       14 UNK         0.1400 
     81 CB         -1.0735  -26.8067  -48.0305 C.3       14 UNK        -0.1800 
     82 C          -3.5637  -27.1703  -48.2020 C.2       14 UNK         0.5000 
     83 O          -3.6550  -27.9712  -49.1325 O.2       14 UNK        -0.5000 
     84 N          -4.4511  -26.1897  -47.9697 N.am      15 UNK        -0.5000 
     85 CA         -5.6077  -25.8016  -48.7894 C.3       15 UNK         0.1400 
     86 CB         -6.6321  -26.9476  -48.9090 C.3       15 UNK        -0.1800 
     87 C          -5.2231  -25.2062  -50.1619 C.2       15 UNK         0.5000 
     88 O          -6.0869  -25.0271  -51.0206 O.2       15 UNK        -0.5000 
     89 N          -3.9444  -24.8501  -50.3293 N.am      16 UNK        -0.5000 
     90 CA         -3.3891  -24.1745  -51.4980 C.3       16 UNK         0.1400 
     91 CB         -1.8586  -24.2116  -51.4030 C.3       16 UNK        -0.1800 
     92 C          -3.9026  -22.7300  -51.6329 C.2       16 UNK         0.5000 
     93 O          -4.0863  -22.2550  -52.7534 O.2       16 UNK        -0.5000 
     94 N          -4.1743  -22.0754  -50.4940 N.am      17 UNK        -0.5000 
     95 CA         -4.8172  -20.7618  -50.4308 C.3       17 UNK         0.1400 
     96 CB         -4.7214  -20.2029  -49.0029 C.3       17 UNK        -0.1800 
     97 C          -6.2865  -20.8122  -50.8892 C.2       17 UNK         0.5000 
     98 O          -6.7331  -19.9060  -51.5914 O.2       17 UNK        -0.5000 
     99 N          -6.9976  -21.8864  -50.5147 N.am      18 UNK        -0.5000 
    100 CA        -8.3844  -22.1460  -50.9107 C.3       18 UNK         0.1400 
    101 CB        -8.9804  -23.2418  -50.0133 C.3       18 UNK        -0.1800 
    102 C         -8.5022  -22.5238  -52.3987 C.2       18 UNK         0.5000 
    103 O         -9.4424  -22.0911  -53.0655 O.2       18 UNK        -0.5000 
    104 N         -7.5200  -23.2859  -52.9002 N.am      19 UNK        -0.5000 
    105 CA        -7.3572  -23.6277  -54.3154 C.3       19 UNK         0.1400 
    106 CB        -6.3600  -24.7913  -54.4286 C.3       19 UNK        -0.1800 
    107 C         -6.8912  -22.4410  -55.1864 C.2       19 UNK         0.5000 
    108 O         -6.9828  -22.5265  -56.4115 O.2       19 UNK        -0.5000 
    109 N         -6.3941  -21.3738  -54.5426 N.am      20 UNK        -0.5000 
    110 CA        -5.8240  -20.1545  -55.1206 C.3       20 UNK         0.1400 
    111 CB        -6.8940  -19.3517  -55.8890 C.3       20 UNK        -0.1800 
    112 C         -4.5563  -20.4377  -55.9517 C.2       20 UNK         0.5000 
    113 O         -4.3812  -19.8750  -57.0345 O.2       20 UNK        -0.5000 
    114 N         -3.6800  -21.3008  -55.4168 N.am      21 UNK        -0.5000 
    115 CA        -2.4394  -21.7632  -56.0494 C.3       21 UNK         0.1400 
    116 CB        -1.8011  -22.8394  -55.1596 C.3       21 UNK        -0.1800 
    117 C         -1.4222  -20.6417  -56.3437 C.2       21 UNK         0.5000 
    118 O         -0.6227  -20.7754  -57.2709 O.2       21 UNK        -0.5000 
    119 N         -1.4872  -19.5543  -55.5654 N.am      22 UNK        -0.5000 
    120 CA        -0.7355  -18.3097  -55.7851 C.3       22 UNK         0.1400 
    121 C         -1.2764  -17.4375  -56.9640 C.2       22 UNK         0.5000 
    122 N         -2.4363  -17.7273  -57.5441 N.am      22 UNK        -0.7600 
    123 O         -0.6226  -16.4868  -57.3829 O.2       22 UNK        -0.5000 
    124 C124       -0.6169  -17.5113  -54.4586 C.3       23 UNK        -0.0398 
    125 S125        0.8232  -16.3895  -54.4014 S.3       23 UNK        -0.2404 
    126 C126        2.0624  -17.3970  -53.5181 C.3       23 UNK        -0.0205 
    127 H127        1.3037  -11.3822  -51.3941 H         1 UNK         0.0600 
    128 H128       -0.3134  -10.6729  -51.3841 H         1 UNK         0.0600 
    129 H129       -0.1018  -12.3879  -51.7544 H         1 UNK         0.0600 
    130 H130        2.0903  -11.7604  -49.3671 H         1 UNK         0.3000 
    131 H131        2.3494  -12.1761  -47.2252 H         1 UNK         0.0600 
    132 H132        1.0538  -13.9177  -46.0767 H         1 UNK         0.0800 
    133 H133       -0.1984  -13.8662  -47.2862 H         1 UNK         0.0800 
    134 H134       -0.0651  -15.0084  -49.5897 H         1 UNK         0.0800 
    135 H135       -0.2948  -16.1623  -48.2949 H         1 UNK         0.0800 
    136 H136        1.1179  -15.6363  -51.6260 H         1 UNK         0.1150 
    137 H137        2.2967  -19.7304  -52.1366 H         1 UNK         0.1150 
    138 H138        0.9461  -18.3435  -48.3158 H         1 UNK         0.1150 
    139 H139        2.0899  -20.5108  -48.5053 H         1 UNK         0.0800 
    140 H140        2.8256  -20.9697  -50.0128 H         1 UNK         0.0800 
    141 H141       -1.6139  -21.0459  -49.2405 H         1 UNK         0.0800 
    142 H142       -0.4419  -20.3374  -48.1663 H         1 UNK         0.0800 
    143 H143       -0.6643  -23.3518  -48.1695 H         1 UNK         0.0600 
    144 H144        0.3934  -21.4371  -46.3006 H         1 UNK         0.3000 
    145 H145        0.9740  -23.9664  -43.7807 H         1 UNK         0.0600 
    146 H146        2.8611  -23.8808  -45.4346 H         1 UNK         0.0600 
    147 H147        3.2001  -22.9392  -43.9912 H         1 UNK         0.0600 
    148 H148        2.7355  -22.1258  -45.4834 H         1 UNK         0.0600 
    149 H149        1.3717  -21.1749  -43.6422 H         1 UNK         0.3000 
    150 H150       -1.8299  -20.3275  -42.2139 H         1 UNK         0.0600 
    151 H151        1.0527  -20.3820  -41.1744 H         1 UNK         0.0600 
    152 H152       -0.3375  -21.1198  -40.3910 H         1 UNK         0.0600 
    153 H153       -0.2486  -19.3716  -40.5506 H         1 UNK         0.0600 
    154 H154        0.3888  -18.6963  -42.9241 H         1 UNK         0.3000 
    155 H155       -0.5947  -17.9482  -46.2684 H         1 UNK         0.0600 
    156 H156       -0.5776  -15.6447  -45.3435 H         1 UNK         0.0600 
    157 H157       -0.7456  -16.2829  -43.7052 H         1 UNK         0.0600 
    158 H158       -2.0426  -16.4910  -44.8742 H         1 UNK         0.0600 
    159 H159        1.5158  -16.9424  -44.6441 H         1 UNK         0.3000 
    160 H160        3.9246  -19.4500  -45.6785 H         1 UNK         0.0600 
    161 H161        3.7340  -17.4830  -47.2332 H         1 UNK         0.0600 
    162 H162        5.0729  -17.3163  -46.1080 H         1 UNK         0.0600 
    163 H163        3.5844  -16.4082  -45.8479 H         1 UNK         0.0600 
    164 H164        4.1966  -17.4571  -43.6959 H         1 UNK         0.3000 
    165 H165        3.2639  -19.2564  -40.8298 H         1 UNK         0.0600 
    166 H166        5.3600  -20.5021  -41.3512 H         1 UNK         0.0600 
    167 H167        6.1282  -19.0171  -41.8992 H         1 UNK         0.0600 
    168 H168        5.6670  -19.2060  -40.2067 H         1 UNK         0.0600 
    169 H169        4.9312  -16.9500  -41.3040 H         1 UNK         0.3000 
    170 H170        3.3113  -14.8537  -40.1036 H         1 UNK         0.0600 
    171 H171        4.5649  -13.5367  -41.8703 H         1 UNK         0.0600 
    172 H172        4.4464  -14.9168  -42.9555 H         1 UNK         0.0600 
    173 H173        5.3601  -15.0381  -41.4527 H         1 UNK         0.0600 
    174 H174        1.7038  -13.5849  -40.9565 H         1 UNK         0.3000 
    175 H175       -0.1956  -13.5926  -43.9596 H         1 UNK         0.0600 
    176 H176       -0.5000  -13.2709  -40.9289 H         1 UNK         0.0600 
    177 H177       -1.1855  -14.5610  -41.9016 H         1 UNK         0.0600 
    178 H178       -1.7076  -12.9038  -42.1556 H         1 UNK         0.0600 
    179 H179        0.5513  -11.5537  -44.0340 H         1 UNK         0.3000 
    180 H180        1.3346   -9.0379  -42.0280 H         1 UNK         0.0600 
    181 H181        3.8704  -10.4606  -43.0038 H         1 UNK         0.0600 
    182 H182        3.5878   -9.8474  -41.3794 H         1 UNK         0.0600 
    183 H183        3.7163   -8.7258  -42.7229 H         1 UNK         0.0600 
    184 H184        2.2114   -9.8724  -44.7307 H         1 UNK         0.3000 
    185 H185       -0.7637   -8.8188  -46.2903 H         1 UNK         0.0600 
    186 H186        0.4606   -6.6440  -46.1110 H         1 UNK         0.0600 
    187 H187        1.9818   -7.4631  -46.4439 H         1 UNK         0.0600 
    188 H188        0.7192   -7.3995  -47.6747 H         1 UNK         0.0600 
    189 H189        1.6135   -9.7267  -47.4716 H         1 UNK         0.3000 
    190 H190       -2.2460  -21.4759  -45.5919 H         1 UNK         0.3000 
    191 H191       -4.9204  -22.1724  -46.3752 H         1 UNK         0.0600 
    192 H192       -4.5024  -20.3326  -44.8036 H         1 UNK         0.0600 
    193 H193       -5.4797  -21.5612  -44.0174 H         1 UNK         0.0600 
    194 H194       -3.7665  -21.4325  -43.6397 H         1 UNK         0.0600 
    195 H195       -2.5787  -23.7013  -44.1002 H         1 UNK         0.3000 
    196 H196       -4.2147  -25.8688  -43.3199 H         1 UNK         0.0600 
    197 H197       -2.0556  -26.8555  -42.5202 H         1 UNK         0.0600 
    198 H198       -2.2055  -25.1651  -42.0646 H         1 UNK         0.0600 
    199 H199       -1.1609  -25.6259  -43.4067 H         1 UNK         0.0600 
    200 H200       -1.8920  -25.5862  -46.0237 H         1 UNK         0.3000 
    201 H201       -2.2115  -28.2902  -46.9740 H         1 UNK         0.0600 
    202 H202       -0.9138  -27.4197  -48.9185 H         1 UNK         0.0600 
    203 H203       -0.1843  -26.9022  -47.4071 H         1 UNK         0.0600 
    204 H204       -1.1432  -25.7685  -48.3566 H         1 UNK         0.0600 
    205 H205       -4.2835  -25.5932  -47.1691 H         1 UNK         0.3000 
    206 H206       -6.0916  -24.9905  -48.2437 H         1 UNK         0.0600 
    207 H207       -6.8884  -27.3506  -47.9292 H         1 UNK         0.0600 
    208 H208       -7.5578  -26.5966  -49.3666 H         1 UNK         0.0600 
    209 H209       -6.2585  -27.7665  -49.5238 H         1 UNK         0.0600 
    210 H210       -3.3334  -24.9406  -49.5296 H         1 UNK         0.3000 
    211 H211       -3.6924  -24.7235  -52.3909 H         1 UNK         0.0600 
    212 H212       -1.4887  -25.2368  -51.4245 H         1 UNK         0.0600 
    213 H213       -1.3936  -23.6808  -52.2330 H         1 UNK         0.0600 
    214 H214       -1.5075  -23.7516  -50.4805 H         1 UNK         0.0600 
    215 H215       -3.9656  -22.5367  -49.6132 H         1 UNK         0.3000 
    216 H216       -4.2797  -20.0860  -51.0995 H         1 UNK         0.0600 
    217 H217       -5.2217  -20.8511  -48.2840 H         1 UNK         0.0600 
    218 H218       -5.1906  -19.2204  -48.9375 H         1 UNK         0.0600 
    219 H219       -3.6863  -20.0842  -48.6864 H         1 UNK         0.0600 
    220 H220       -6.5423  -22.5990  -49.9658 H         1 UNK         0.3000 
    221 H221       -8.9599  -21.2312  -50.7534 H         1 UNK         0.0600 
    222 H222       -8.4569  -24.1910  -50.1263 H         1 UNK         0.0600 
    223 H223       -8.9373  -22.9577  -48.9618 H         1 UNK         0.0600 
    224 H224      -10.0284  -23.4167  -50.2594 H         1 UNK         0.0600 
    225 H225       -6.8370  -23.6783  -52.2595 H         1 UNK         0.3000 
    226 H226       -8.3222  -23.9626  -54.7012 H         1 UNK         0.0600 
    227 H227       -6.6798  -25.6472  -53.8339 H         1 UNK         0.0600 
    228 H228       -6.2676  -25.1287  -55.4616 H         1 UNK         0.0600 
    229 H229       -5.3659  -24.4992  -54.0901 H         1 UNK         0.0600 
    230 H230       -6.3397  -21.4342  -53.5354 H         1 UNK         0.3000 
    231 H231       -5.5013  -19.5435  -54.2764 H         1 UNK         0.0600 
    232 H232       -7.2282  -19.8726  -56.7865 H         1 UNK         0.0600 
    233 H233       -6.5040  -18.3822  -56.2011 H         1 UNK         0.0600 
    234 H234       -7.7675  -19.1638  -55.2646 H         1 UNK         0.0600 
    235 H235       -3.8909  -21.6947  -54.5015 H         1 UNK         0.3000 
    236 H236       -2.7089  -22.2205  -57.0035 H         1 UNK         0.0600 
    237 H237       -1.4961  -22.4245  -54.1988 H         1 UNK         0.0600 
    238 H238       -2.4933  -23.6599  -54.9687 H         1 UNK         0.0600 
    239 H239       -0.9139  -23.2633  -55.6316 H         1 UNK         0.0600 
    240 H240       -2.1818  -19.5386  -54.8340 H         1 UNK         0.3000 
    241 H241        0.2739  -18.6068  -56.0766 H         1 UNK         0.0600 
    242 H242       -2.9977  -18.5233  -57.2580 H         1 UNK         0.3800 
    243 H243       -2.7549  -17.1534  -58.3086 H         1 UNK         0.3800 
    244 H244       -1.5217  -16.9292  -54.2764 H         1 UNK         0.0800 
    245 H245       -0.5387  -18.1966  -53.6133 H         1 UNK         0.0800 
    246 H246        3.0225  -16.8814  -53.5603 H         1 UNK         0.0800 
    247 H247        2.1938  -18.3365  -54.0573 H         1 UNK         0.0800 
@<TRIPOS>BOND
     1    1    2 1    
     2    1  127 1    
     3    1  128 1    
     4    1  129 1    
     5    2    3 2    
     6    2    4 am   BACKBONE|DICT|INTERRES
     7    4    5 1    
     8    4  130 1    
     9    5    6 1    
    10    5   65 1    
    11    5  131 1    
    12    6    7 1    
    13    6  132 1    
    14    6  133 1    
    15    7    8 1    
    16    8    9 1    
    17    8  134 1    
    18    8  135 1    
    19    9   10 ar   
    20    9   14 ar   
    21   10   11 ar   
    22   10  136 1    
    23   11   12 ar   
    24   11  126 1    
    25   12   13 ar   
    26   12  137 1    
    27   13   14 ar   
    28   13   15 1    
    29   14  138 1    
    30   15   16 1    
    31   15  139 1    
    32   15  140 1    
    33   16   17 1    
    34   17   18 1    
    35   17  141 1    
    36   17  142 1    
    37   18   19 1    
    38   18   67 1    
    39   18  143 1    
    40   19   20 am   BACKBONE|DICT|INTERRES
    41   19  144 1    
    42   20   21 2    
    43   20   22 1    
    44   22   23 1    
    45   22   24 1    
    46   22  145 1    
    47   23  146 1    
    48   23  147 1    
    49   23  148 1    
    50   24   25 am   BACKBONE|DICT|INTERRES
    51   24  149 1    
    52   25   26 2    
    53   25   27 1    
    54   27   28 1    
    55   27   29 1    
    56   27  150 1    
    57   28  151 1    
    58   28  152 1    
    59   28  153 1    
    60   29   30 am   BACKBONE|DICT|INTERRES
    61   29  154 1    
    62   30   31 2    
    63   30   32 1    
    64   32   33 1    
    65   32   34 1    
    66   32  155 1    
    67   33  156 1    
    68   33  157 1    
    69   33  158 1    
    70   34   35 am   BACKBONE|DICT|INTERRES
    71   34  159 1    
    72   35   36 2    
    73   35   37 1    
    74   37   38 1    
    75   37   39 1    
    76   37  160 1    
    77   38  161 1    
    78   38  162 1    
    79   38  163 1    
    80   39   40 am   BACKBONE|DICT|INTERRES
    81   39  164 1    
    82   40   41 2    
    83   40   42 1    
    84   42   43 1    
    85   42   44 1    
    86   42  165 1    
    87   43  166 1    
    88   43  167 1    
    89   43  168 1    
    90   44   45 am   BACKBONE|DICT|INTERRES
    91   44  169 1    
    92   45   46 2    
    93   45   47 1    
    94   47   48 1    
    95   47   49 1    
    96   47  170 1    
    97   48  171 1    
    98   48  172 1    
    99   48  173 1    
   100   49   50 am   BACKBONE|DICT|INTERRES
   101   49  174 1    
   102   50   51 2    
   103   50   52 1    
   104   52   53 1    
   105   52   54 1    
   106   52  175 1    
   107   53  176 1    
   108   53  177 1    
   109   53  178 1    
   110   54   55 am   BACKBONE|DICT|INTERRES
   111   54  179 1    
   112   55   56 2    
   113   55   57 1    
   114   57   58 1    
   115   57   59 1    
   116   57  180 1    
   117   58  181 1    
   118   58  182 1    
   119   58  183 1    
   120   59   60 am   BACKBONE|DICT|INTERRES
   121   59  184 1    
   122   60   61 2    
   123   60   62 1    
   124   62   63 1    
   125   62   64 1    
   126   62  185 1    
   127   63  186 1    
   128   63  187 1    
   129   63  188 1    
   130   64   65 am   BACKBONE|DICT|INTERRES
   131   64  189 1    
   132   65   66 2    
   133   67   68 2    
   134   67   69 am   BACKBONE|DICT|INTERRES
   135   69   70 1    
   136   69  190 1    
   137   70   71 1    
   138   70   72 1    
   139   70  191 1    
   140   71  192 1    
   141   71  193 1    
   142   71  194 1    
   143   72   73 2    
   144   72   74 am   BACKBONE|DICT|INTERRES
   145   74   75 1    
   146   74  195 1    
   147   75   76 1    
   148   75   77 1    
   149   75  196 1    
   150   76  197 1    
   151   76  198 1    
   152   76  199 1    
   153   77   78 2    
   154   77   79 am   BACKBONE|DICT|INTERRES
   155   79   80 1    
   156   79  200 1    
   157   80   81 1    
   158   80   82 1    
   159   80  201 1    
   160   81  202 1    
   161   81  203 1    
   162   81  204 1    
   163   82   83 2    
   164   82   84 am   BACKBONE|DICT|INTERRES
   165   84   85 1    
   166   84  205 1    
   167   85   86 1    
   168   85   87 1    
   169   85  206 1    
   170   86  207 1    
   171   86  208 1    
   172   86  209 1    
   173   87   88 2    
   174   87   89 am   BACKBONE|DICT|INTERRES
   175   89   90 1    
   176   89  210 1    
   177   90   91 1    
   178   90   92 1    
   179   90  211 1    
   180   91  212 1    
   181   91  213 1    
   182   91  214 1    
   183   92   93 2    
   184   92   94 am   BACKBONE|DICT|INTERRES
   185   94   95 1    
   186   94  215 1    
   187   95   96 1    
   188   95   97 1    
   189   95  216 1    
   190   96  217 1    
   191   96  218 1    
   192   96  219 1    
   193   97   98 2    
   194   97   99 am   BACKBONE|DICT|INTERRES
   195   99  100 1    
   196   99  220 1    
   197  100  101 1    
   198  100  102 1    
   199  100  221 1    
   200  101  222 1    
   201  101  223 1    
   202  101  224 1    
   203  102  103 2    
   204  102  104 am   BACKBONE|DICT|INTERRES
   205  104  105 1    
   206  104  225 1    
   207  105  106 1    
   208  105  107 1    
   209  105  226 1    
   210  106  227 1    
   211  106  228 1    
   212  106  229 1    
   213  107  108 2    
   214  107  109 am   BACKBONE|DICT|INTERRES
   215  109  110 1    
   216  109  230 1    
   217  110  111 1    
   218  110  112 1    
   219  110  231 1    
   220  111  232 1    
   221  111  233 1    
   222  111  234 1    
   223  112  113 2    
   224  112  114 am   BACKBONE|DICT|INTERRES
   225  114  115 1    
   226  114  235 1    
   227  115  116 1    
   228  115  117 1    
   229  115  236 1    
   230  116  237 1    
   231  116  238 1    
   232  116  239 1    
   233  117  118 2    
   234  117  119 am   BACKBONE|DICT|INTERRES
   235  119  120 1    
   236  119  240 1    
   237  120  121 1    
   238  120  124 1    
   239  120  241 1    
   240  121  122 am   BACKBONE|DICT|INTERRES
   241  121  123 2    
   242  122  242 1    
   243  122  243 1    
   244  124  125 1    
   245  124  244 1    
   246  124  245 1    
   247  125  126 1    
   248  126  246 1    
   249  126  247 1    
@<TRIPOS>SUBSTRUCTURE
     1 UNK         1 GROUP             0       ****    0 ROOT    
