@<TRIPOS>MOLECULE
3R540
247   249    1
SMALL
USER_CHARGES


@<TRIPOS>ATOM
      1 CA          4.8224  -13.4093  -43.3657 C.3       0 UNK        -0.1800 
      2 C           4.0949  -13.1239  -44.6688 C.2       0 UNK         0.5000 
      3 O           3.9004  -11.9604  -45.0177 O.2       0 UNK        -0.5000 
      4 N           3.7127  -14.1740  -45.4080 N.am      1 UNK        -0.5000 
      5 CA          2.9801  -14.1012  -46.6839 C.3       1 UNK         0.1400 
      6 C6          2.4211  -15.4808  -47.1070 C.3       23 UNK        -0.0398 
      7 S7          1.0797  -16.0192  -45.9892 S.3       23 UNK        -0.2404 
      8 C8         -0.3937  -15.6068  -46.9919 C.3       23 UNK        -0.0205 
      9 C9         -0.9747  -16.8220  -47.7078 C.ar      23 UNK        -0.0193 
     10 C10        -2.3304  -17.1360  -47.5679 C.ar      23 UNK        -0.1150 
     11 C11        -2.8695  -18.2859  -48.1547 C.ar      23 UNK        -0.0193 
     12 C12        -2.0229  -19.1359  -48.8777 C.ar      23 UNK        -0.1150 
     13 C13        -0.6737  -18.8206  -49.0549 C.ar      23 UNK        -0.0193 
     14 C14        -0.1639  -17.6491  -48.4893 C.ar      23 UNK        -0.1150 
     15 C15         0.2368  -19.7754  -49.8181 C.3       23 UNK        -0.0205 
     16 S16         1.7697  -20.1973  -48.9152 S.3       23 UNK        -0.2404 
     17 C17         1.1562  -20.6356  -47.2495 C.3       23 UNK        -0.0398 
     18 CA          0.9834  -22.1529  -47.0321 C.3       11 UNK         0.1400 
     19 N           0.8939  -22.4729  -45.6102 N.am      11 UNK        -0.5000 
     20 C           0.9098  -23.7079  -45.0949 C.2       10 UNK         0.5000 
     21 O           1.0470  -24.7316  -45.7649 O.2       10 UNK        -0.5000 
     22 CA          0.6889  -23.8083  -43.5770 C.3       10 UNK         0.1400 
     23 CB          1.9912  -23.5220  -42.8138 C.3       10 UNK        -0.1800 
     24 N          -0.3566  -22.8920  -43.1196 N.am      10 UNK        -0.5000 
     25 C          -1.6598  -23.0347  -43.3979 C.2       9 UNK         0.5000 
     26 O          -2.1221  -23.9708  -44.0505 O.2       9 UNK        -0.5000 
     27 CA         -2.5963  -21.9242  -42.8875 C.3       9 UNK         0.1400 
     28 CB         -2.9120  -22.1190  -41.3969 C.3       9 UNK        -0.1800 
     29 N          -2.0555  -20.5795  -43.1000 N.am      9 UNK        -0.5000 
     30 C          -1.8654  -20.0321  -44.3082 C.2       8 UNK         0.5000 
     31 O          -2.1038  -20.6107  -45.3644 O.2       8 UNK        -0.5000 
     32 CA         -1.2736  -18.6154  -44.3527 C.3       8 UNK         0.1400 
     33 CB         -2.3680  -17.5631  -44.1189 C.3       8 UNK        -0.1800 
     34 N          -0.1782  -18.3829  -43.4124 N.am      8 UNK        -0.5000 
     35 C           0.9497  -19.0992  -43.3125 C.2       7 UNK         0.5000 
     36 O           1.1421  -20.1518  -43.9231 O.2       7 UNK        -0.5000 
     37 CA          2.0574  -18.5355  -42.3968 C.3       7 UNK         0.1400 
     38 CB          3.4557  -18.8016  -42.9818 C.3       7 UNK        -0.1800 
     39 N           1.9260  -17.0938  -42.1544 N.am      7 UNK        -0.5000 
     40 C           1.1967  -16.5302  -41.1816 C.2       6 UNK         0.5000 
     41 O           0.4860  -17.1647  -40.4033 O.2       6 UNK        -0.5000 
     42 CA          1.2389  -14.9987  -41.1066 C.3       6 UNK         0.1400 
     43 CB          2.6059  -14.5205  -40.5782 C.3       6 UNK        -0.1800 
     44 N           0.9275  -14.4313  -42.4212 N.am      6 UNK        -0.5000 
     45 C           0.6232  -13.1497  -42.6553 C.2       5 UNK         0.5000 
     46 O           0.6652  -12.2581  -41.8039 O.2       5 UNK        -0.5000 
     47 CA          0.1591  -12.8089  -44.0767 C.3       5 UNK         0.1400 
     48 CB         -1.3665  -12.9627  -44.2122 C.3       5 UNK        -0.1800 
     49 N           0.5698  -11.4466  -44.3937 N.am      5 UNK        -0.5000 
     50 C           0.6970  -10.9368  -45.6234 C.2       4 UNK         0.5000 
     51 O           0.4003  -11.5474  -46.6507 O.2       4 UNK        -0.5000 
     52 CA          1.2859   -9.5242  -45.7404 C.3       4 UNK         0.1400 
     53 CB          1.1051   -8.6572  -44.4763 C.3       4 UNK        -0.1800 
     54 N           2.7035   -9.6543  -46.0571 N.am      4 UNK        -0.5000 
     55 C           3.4301   -8.7638  -46.7409 C.2       3 UNK         0.5000 
     56 O           2.9661   -7.7276  -47.2189 O.2       3 UNK        -0.5000 
     57 CA          4.9261   -9.0710  -46.9204 C.3       3 UNK         0.1400 
     58 CB          5.7007   -8.7189  -45.6399 C.3       3 UNK        -0.1800 
     59 N           5.1627  -10.4788  -47.2464 N.am      3 UNK        -0.5000 
     60 C           5.6946  -10.9215  -48.3957 C.2       2 UNK         0.5000 
     61 O           6.0144  -10.1839  -49.3290 O.2       2 UNK        -0.5000 
     62 CA          5.9328  -12.4412  -48.5348 C.3       2 UNK         0.1400 
     63 CB          7.4028  -12.7805  -48.2429 C.3       2 UNK        -0.1800 
     64 N           5.0825  -13.2410  -47.6536 N.am      2 UNK        -0.5000 
     65 C           3.7677  -13.4267  -47.8306 C.2       1 UNK         0.5000 
     66 O           3.1648  -13.0552  -48.8379 O.2       1 UNK        -0.5000 
     67 C          -0.2140  -22.7269  -47.8163 C.2       11 UNK         0.5000 
     68 O          -0.0011  -23.3839  -48.8329 O.2       11 UNK        -0.5000 
     69 N          -1.4403  -22.5281  -47.3111 N.am      12 UNK        -0.5000 
     70 CA         -2.6730  -23.0713  -47.8839 C.3       12 UNK         0.1400 
     71 CB         -3.8860  -22.5151  -47.1271 C.3       12 UNK        -0.1800 
     72 C          -2.7100  -24.6083  -47.8890 C.2       12 UNK         0.5000 
     73 O          -3.1891  -25.1925  -48.8582 O.2       12 UNK        -0.5000 
     74 N          -2.1804  -25.2431  -46.8342 N.am      13 UNK        -0.5000 
     75 CA         -2.0415  -26.6978  -46.7495 C.3       13 UNK         0.1400 
     76 CB         -1.6329  -27.0970  -45.3235 C.3       13 UNK        -0.1800 
     77 C          -1.0504  -27.2635  -47.7860 C.2       13 UNK         0.5000 
     78 O          -1.3057  -28.3290  -48.3481 O.2       13 UNK        -0.5000 
     79 N           0.0497  -26.5386  -48.0284 N.am      14 UNK        -0.5000 
     80 CA          1.0810  -26.8994  -48.9989 C.3       14 UNK         0.1400 
     81 CB          2.3771  -26.1439  -48.6639 C.3       14 UNK        -0.1800 
     82 C           0.6517  -26.6314  -50.4536 C.2       14 UNK         0.5000 
     83 O           0.8094  -27.5070  -51.3054 O.2       14 UNK        -0.5000 
     84 N           0.1403  -25.4223  -50.7172 N.am      15 UNK        -0.5000 
     85 CA         -0.1894  -24.9300  -52.0569 C.3       15 UNK         0.1400 
     86 CB         -0.1463  -23.3929  -52.0408 C.3       15 UNK        -0.1800 
     87 C          -1.5548  -25.4075  -52.5829 C.2       15 UNK         0.5000 
     88 O          -1.7678  -25.3525  -53.7938 O.2       15 UNK        -0.5000 
     89 N          -2.4359  -25.8425  -51.6703 N.am      16 UNK        -0.5000 
     90 CA         -3.8720  -26.0948  -51.8206 C.3       16 UNK         0.1400 
     91 CB         -4.2207  -26.9724  -53.0391 C.3       16 UNK        -0.1800 
     92 C          -4.6477  -24.7661  -51.8213 C.2       16 UNK         0.5000 
     93 O          -4.4186  -23.9128  -52.6802 O.2       16 UNK        -0.5000 
     94 N          -5.5597  -24.6159  -50.8518 N.am      17 UNK        -0.5000 
     95 CA         -6.3174  -23.3930  -50.5669 C.3       17 UNK         0.1400 
     96 CB         -7.2404  -23.6503  -49.3661 C.3       17 UNK        -0.1800 
     97 C          -7.1351  -22.8563  -51.7554 C.2       17 UNK         0.5000 
     98 O          -7.2470  -21.6410  -51.9131 O.2       17 UNK        -0.5000 
     99 N          -7.6698  -23.7688  -52.5777 N.am      18 UNK        -0.5000 
    100 CA        -8.4286  -23.4504  -53.7870 C.3       18 UNK         0.1400 
    101 CB        -9.1941  -24.7010  -54.2451 C.3       18 UNK        -0.1800 
    102 C         -7.5431  -22.9122  -54.9263 C.2       18 UNK         0.5000 
    103 O         -7.9887  -22.0446  -55.6771 O.2       18 UNK        -0.5000 
    104 N         -6.3070  -23.4207  -55.0283 N.am      19 UNK        -0.5000 
    105 CA        -5.3174  -22.9929  -56.0188 C.3       19 UNK         0.1400 
    106 CB        -4.2816  -24.1076  -56.2241 C.3       19 UNK        -0.1800 
    107 C         -4.6363  -21.6788  -55.6020 C.2       19 UNK         0.5000 
    108 O         -4.4027  -20.8164  -56.4493 O.2       19 UNK        -0.5000 
    109 N         -4.3688  -21.5364  -54.2967 N.am      20 UNK        -0.5000 
    110 CA        -3.8570  -20.3165  -53.6700 C.3       20 UNK         0.1400 
    111 CB        -3.3308  -20.6695  -52.2711 C.3       20 UNK        -0.1800 
    112 C         -4.9018  -19.1811  -53.5984 C.2       20 UNK         0.5000 
    113 O         -4.5182  -18.0240  -53.4238 O.2       20 UNK        -0.5000 
    114 N         -6.1882  -19.5331  -53.7483 N.am      21 UNK        -0.5000 
    115 CA        -7.3750  -18.6734  -53.7069 C.3       21 UNK         0.1400 
    116 CB        -7.3730  -17.6706  -54.8795 C.3       21 UNK        -0.1800 
    117 C         -7.5718  -18.0096  -52.3287 C.2       21 UNK         0.5000 
    118 O         -7.8628  -16.8144  -52.2439 O.2       21 UNK        -0.5000 
    119 N         -7.3912  -18.8075  -51.2714 N.am      22 UNK        -0.5000 
    120 CA        -7.5423  -18.4019  -49.8679 C.3       22 UNK         0.1400 
    121 C         -9.0269  -18.1664  -49.4758 C.2       22 UNK         0.5000 
    122 N         -9.2992  -17.2004  -48.6089 N.am      22 UNK        -0.7600 
    123 O         -9.9297  -18.8755  -49.9153 O.2       22 UNK        -0.5000 
    124 C124       -6.8821  -19.4235  -48.9092 C.3       23 UNK        -0.0398 
    125 S125       -5.1038  -19.6330  -49.2511 S.3       23 UNK        -0.2404 
    126 C126       -4.3551  -18.5889  -47.9527 C.3       23 UNK        -0.0205 
    127 H127        4.8898  -14.4783  -43.1639 H         1 UNK         0.0600 
    128 H128        5.8338  -13.0053  -43.4070 H         1 UNK         0.0600 
    129 H129        4.2995  -12.9323  -42.5371 H         1 UNK         0.0600 
    130 H130        3.9233  -15.1072  -45.0851 H         1 UNK         0.3000 
    131 H131        2.1278  -13.4443  -46.5211 H         1 UNK         0.0600 
    132 H132        2.0415  -15.4541  -48.1296 H         1 UNK         0.0800 
    133 H133        3.2096  -16.2350  -47.1022 H         1 UNK         0.0800 
    134 H134       -0.1634  -14.8272  -47.7191 H         1 UNK         0.0800 
    135 H135       -1.1392  -15.1771  -46.3220 H         1 UNK         0.0800 
    136 H136       -2.9689  -16.4905  -46.9815 H         1 UNK         0.1150 
    137 H137       -2.4074  -20.0521  -49.3007 H         1 UNK         0.1150 
    138 H138        0.8828  -17.4157  -48.6136 H         1 UNK         0.1150 
    139 H139       -0.2897  -20.7002  -50.0589 H         1 UNK         0.0800 
    140 H140        0.5039  -19.3195  -50.7720 H         1 UNK         0.0800 
    141 H141        0.2402  -20.1018  -46.9980 H         1 UNK         0.0800 
    142 H142        1.9031  -20.2562  -46.5507 H         1 UNK         0.0800 
    143 H143        1.8825  -22.6487  -47.4050 H         1 UNK         0.0600 
    144 H144        0.8131  -21.6833  -44.9741 H         1 UNK         0.3000 
    145 H145        0.3761  -24.8297  -43.3497 H         1 UNK         0.0600 
    146 H146        1.8553  -23.6524  -41.7402 H         1 UNK         0.0600 
    147 H147        2.7831  -24.2038  -43.1263 H         1 UNK         0.0600 
    148 H148        2.3468  -22.5053  -42.9859 H         1 UNK         0.0600 
    149 H149       -0.0535  -22.0628  -42.6304 H         1 UNK         0.3000 
    150 H150       -3.5325  -22.0016  -43.4448 H         1 UNK         0.0600 
    151 H151       -3.3293  -23.1100  -41.2132 H         1 UNK         0.0600 
    152 H152       -3.6451  -21.3901  -41.0510 H         1 UNK         0.0600 
    153 H153       -2.0200  -22.0183  -40.7775 H         1 UNK         0.0600 
    154 H154       -1.8169  -20.0413  -42.2801 H         1 UNK         0.3000 
    155 H155       -0.8685  -18.4715  -45.3554 H         1 UNK         0.0600 
    156 H156       -1.9927  -16.5573  -44.3064 H         1 UNK         0.0600 
    157 H157       -3.2153  -17.7234  -44.7867 H         1 UNK         0.0600 
    158 H158       -2.7471  -17.5959  -43.0969 H         1 UNK         0.0600 
    159 H159       -0.2555  -17.5622  -42.8323 H         1 UNK         0.3000 
    160 H160        1.9852  -19.0675  -41.4461 H         1 UNK         0.0600 
    161 H161        3.5743  -18.3405  -43.9633 H         1 UNK         0.0600 
    162 H162        3.6390  -19.8708  -43.0970 H         1 UNK         0.0600 
    163 H163        4.2375  -18.4116  -42.3298 H         1 UNK         0.0600 
    164 H164        2.4800  -16.4985  -42.7514 H         1 UNK         0.3000 
    165 H165        0.4642  -14.6796  -40.4059 H         1 UNK         0.0600 
    166 H166        2.6449  -13.4369  -40.4711 H         1 UNK         0.0600 
    167 H167        2.8084  -14.9448  -39.5940 H         1 UNK         0.0600 
    168 H168        3.4214  -14.8228  -41.2338 H         1 UNK         0.0600 
    169 H169        0.8294  -15.0974  -43.1747 H         1 UNK         0.3000 
    170 H170        0.6520  -13.4892  -44.7680 H         1 UNK         0.0600 
    171 H171       -1.6836  -13.9723  -43.9485 H         1 UNK         0.0600 
    172 H172       -1.8976  -12.2692  -43.5591 H         1 UNK         0.0600 
    173 H173       -1.6961  -12.7784  -45.2347 H         1 UNK         0.0600 
    174 H174        0.8533  -10.9009  -43.5894 H         1 UNK         0.3000 
    175 H175        0.7692   -9.0375  -46.5704 H         1 UNK         0.0600 
    176 H176        1.6897   -9.0321  -43.6353 H         1 UNK         0.0600 
    177 H177        1.4200   -7.6300  -44.6610 H         1 UNK         0.0600 
    178 H178        0.0588   -8.6212  -44.1700 H         1 UNK         0.0600 
    179 H179        3.1516  -10.4968  -45.6992 H         1 UNK         0.3000 
    180 H180        5.2941   -8.4240  -47.7192 H         1 UNK         0.0600 
    181 H181        5.3905   -9.3380  -44.7970 H         1 UNK         0.0600 
    182 H182        5.5414   -7.6768  -45.3598 H         1 UNK         0.0600 
    183 H183        6.7728   -8.8578  -45.7796 H         1 UNK         0.0600 
    184 H184        4.8896  -11.1529  -46.5399 H         1 UNK         0.3000 
    185 H185        5.7183  -12.7165  -49.5696 H         1 UNK         0.0600 
    186 H186        8.0705  -12.2252  -48.9030 H         1 UNK         0.0600 
    187 H187        7.6768  -12.5340  -47.2162 H         1 UNK         0.0600 
    188 H188        7.6019  -13.8408  -48.3993 H         1 UNK         0.0600 
    189 H189        5.5036  -13.5838  -46.8027 H         1 UNK         0.3000 
    190 H190       -1.5553  -21.9366  -46.4902 H         1 UNK         0.3000 
    191 H191       -2.7339  -22.7335  -48.9207 H         1 UNK         0.0600 
    192 H192       -4.8182  -22.8696  -47.5648 H         1 UNK         0.0600 
    193 H193       -3.9053  -21.4277  -47.1652 H         1 UNK         0.0600 
    194 H194       -3.8771  -22.8115  -46.0776 H         1 UNK         0.0600 
    195 H195       -1.8528  -24.7009  -46.0429 H         1 UNK         0.3000 
    196 H196       -3.0193  -27.1390  -46.9538 H         1 UNK         0.0600 
    197 H197       -1.5498  -28.1805  -45.2304 H         1 UNK         0.0600 
    198 H198       -2.3717  -26.7637  -44.5945 H         1 UNK         0.0600 
    199 H199       -0.6706  -26.6690  -45.0432 H         1 UNK         0.0600 
    200 H200        0.2015  -25.6905  -47.4942 H         1 UNK         0.3000 
    201 H201        1.2855  -27.9680  -48.9035 H         1 UNK         0.0600 
    202 H202        2.7304  -26.3950  -47.6636 H         1 UNK         0.0600 
    203 H203        2.2385  -25.0629  -48.7048 H         1 UNK         0.0600 
    204 H204        3.1723  -26.4009  -49.3647 H         1 UNK         0.0600 
    205 H205        0.0610  -24.7439  -49.9595 H         1 UNK         0.3000 
    206 H206        0.5732  -25.2812  -52.7553 H         1 UNK         0.0600 
    207 H207        0.8267  -23.0263  -51.7128 H         1 UNK         0.0600 
    208 H208       -0.3315  -22.9837  -53.0348 H         1 UNK         0.0600 
    209 H209       -0.9020  -22.9805  -51.3713 H         1 UNK         0.0600 
    210 H210       -2.1364  -25.8010  -50.7038 H         1 UNK         0.3000 
    211 H211       -4.1582  -26.6588  -50.9317 H         1 UNK         0.0600 
    212 H212       -4.0891  -26.4424  -53.9823 H         1 UNK         0.0600 
    213 H213       -5.2625  -27.2914  -52.9959 H         1 UNK         0.0600 
    214 H214       -3.6052  -27.8715  -53.0681 H         1 UNK         0.0600 
    215 H215       -5.6604  -25.3609  -50.1776 H         1 UNK         0.3000 
    216 H216       -5.5971  -22.6214  -50.2881 H         1 UNK         0.0600 
    217 H217       -7.7889  -22.7492  -49.0908 H         1 UNK         0.0600 
    218 H218       -6.6762  -23.9676  -48.4897 H         1 UNK         0.0600 
    219 H219       -7.9760  -24.4253  -49.5850 H         1 UNK         0.0600 
    220 H220       -7.5286  -24.7458  -52.3677 H         1 UNK         0.3000 
    221 H221       -9.1585  -22.6763  -53.5398 H         1 UNK         0.0600 
    222 H222       -8.5180  -25.5215  -54.4888 H         1 UNK         0.0600 
    223 H223       -9.8800  -25.0485  -53.4722 H         1 UNK         0.0600 
    224 H224       -9.7889  -24.4902  -55.1349 H         1 UNK         0.0600 
    225 H225       -5.9866  -24.0721  -54.3249 H         1 UNK         0.3000 
    226 H226       -5.8222  -22.8234  -56.9724 H         1 UNK         0.0600 
    227 H227       -4.7559  -25.0340  -56.5479 H         1 UNK         0.0600 
    228 H228       -3.5548  -23.8283  -56.9877 H         1 UNK         0.0600 
    229 H229       -3.7290  -24.3160  -55.3082 H         1 UNK         0.0600 
    230 H230       -4.5242  -22.3323  -53.6818 H         1 UNK         0.3000 
    231 H231       -3.0188  -19.9501  -54.2660 H         1 UNK         0.0600 
    232 H232       -2.5143  -21.3886  -52.3284 H         1 UNK         0.0600 
    233 H233       -4.1136  -21.1047  -51.6500 H         1 UNK         0.0600 
    234 H234       -2.9524  -19.7847  -51.7578 H         1 UNK         0.0600 
    235 H235       -6.3813  -20.5222  -53.8223 H         1 UNK         0.3000 
    236 H236       -8.2300  -19.3365  -53.8468 H         1 UNK         0.0600 
    237 H237       -8.3155  -17.1240  -54.9260 H         1 UNK         0.0600 
    238 H238       -6.5738  -16.9350  -54.7852 H         1 UNK         0.0600 
    239 H239       -7.2475  -18.1824  -55.8338 H         1 UNK         0.0600 
    240 H240       -7.1972  -19.7913  -51.4371 H         1 UNK         0.3000 
    241 H241       -7.0166  -17.4519  -49.7511 H         1 UNK         0.0600 
    242 H242       -8.5773  -16.6065  -48.2308 H         1 UNK         0.3800 
    243 H243      -10.2573  -17.0460  -48.3346 H         1 UNK         0.3800 
    244 H244       -7.3633  -20.3973  -49.0059 H         1 UNK         0.0800 
    245 H245       -7.0124  -19.1226  -47.8682 H         1 UNK         0.0800 
    246 H246       -4.4854  -19.0725  -46.9839 H         1 UNK         0.0800 
    247 H247       -4.9075  -17.6489  -47.9118 H         1 UNK         0.0800 
@<TRIPOS>BOND
     1    1    2 1    
     2    1  127 1    
     3    1  128 1    
     4    1  129 1    
     5    2    3 2    
     6    2    4 am   BACKBONE|DICT|INTERRES
     7    4    5 1    
     8    4  130 1    
     9    5    6 1    
    10    5   65 1    
    11    5  131 1    
    12    6    7 1    
    13    6  132 1    
    14    6  133 1    
    15    7    8 1    
    16    8    9 1    
    17    8  134 1    
    18    8  135 1    
    19    9   10 ar   
    20    9   14 ar   
    21   10   11 ar   
    22   10  136 1    
    23   11   12 ar   
    24   11  126 1    
    25   12   13 ar   
    26   12  137 1    
    27   13   14 ar   
    28   13   15 1    
    29   14  138 1    
    30   15   16 1    
    31   15  139 1    
    32   15  140 1    
    33   16   17 1    
    34   17   18 1    
    35   17  141 1    
    36   17  142 1    
    37   18   19 1    
    38   18   67 1    
    39   18  143 1    
    40   19   20 am   BACKBONE|DICT|INTERRES
    41   19  144 1    
    42   20   21 2    
    43   20   22 1    
    44   22   23 1    
    45   22   24 1    
    46   22  145 1    
    47   23  146 1    
    48   23  147 1    
    49   23  148 1    
    50   24   25 am   BACKBONE|DICT|INTERRES
    51   24  149 1    
    52   25   26 2    
    53   25   27 1    
    54   27   28 1    
    55   27   29 1    
    56   27  150 1    
    57   28  151 1    
    58   28  152 1    
    59   28  153 1    
    60   29   30 am   BACKBONE|DICT|INTERRES
    61   29  154 1    
    62   30   31 2    
    63   30   32 1    
    64   32   33 1    
    65   32   34 1    
    66   32  155 1    
    67   33  156 1    
    68   33  157 1    
    69   33  158 1    
    70   34   35 am   BACKBONE|DICT|INTERRES
    71   34  159 1    
    72   35   36 2    
    73   35   37 1    
    74   37   38 1    
    75   37   39 1    
    76   37  160 1    
    77   38  161 1    
    78   38  162 1    
    79   38  163 1    
    80   39   40 am   BACKBONE|DICT|INTERRES
    81   39  164 1    
    82   40   41 2    
    83   40   42 1    
    84   42   43 1    
    85   42   44 1    
    86   42  165 1    
    87   43  166 1    
    88   43  167 1    
    89   43  168 1    
    90   44   45 am   BACKBONE|DICT|INTERRES
    91   44  169 1    
    92   45   46 2    
    93   45   47 1    
    94   47   48 1    
    95   47   49 1    
    96   47  170 1    
    97   48  171 1    
    98   48  172 1    
    99   48  173 1    
   100   49   50 am   BACKBONE|DICT|INTERRES
   101   49  174 1    
   102   50   51 2    
   103   50   52 1    
   104   52   53 1    
   105   52   54 1    
   106   52  175 1    
   107   53  176 1    
   108   53  177 1    
   109   53  178 1    
   110   54   55 am   BACKBONE|DICT|INTERRES
   111   54  179 1    
   112   55   56 2    
   113   55   57 1    
   114   57   58 1    
   115   57   59 1    
   116   57  180 1    
   117   58  181 1    
   118   58  182 1    
   119   58  183 1    
   120   59   60 am   BACKBONE|DICT|INTERRES
   121   59  184 1    
   122   60   61 2    
   123   60   62 1    
   124   62   63 1    
   125   62   64 1    
   126   62  185 1    
   127   63  186 1    
   128   63  187 1    
   129   63  188 1    
   130   64   65 am   BACKBONE|DICT|INTERRES
   131   64  189 1    
   132   65   66 2    
   133   67   68 2    
   134   67   69 am   BACKBONE|DICT|INTERRES
   135   69   70 1    
   136   69  190 1    
   137   70   71 1    
   138   70   72 1    
   139   70  191 1    
   140   71  192 1    
   141   71  193 1    
   142   71  194 1    
   143   72   73 2    
   144   72   74 am   BACKBONE|DICT|INTERRES
   145   74   75 1    
   146   74  195 1    
   147   75   76 1    
   148   75   77 1    
   149   75  196 1    
   150   76  197 1    
   151   76  198 1    
   152   76  199 1    
   153   77   78 2    
   154   77   79 am   BACKBONE|DICT|INTERRES
   155   79   80 1    
   156   79  200 1    
   157   80   81 1    
   158   80   82 1    
   159   80  201 1    
   160   81  202 1    
   161   81  203 1    
   162   81  204 1    
   163   82   83 2    
   164   82   84 am   BACKBONE|DICT|INTERRES
   165   84   85 1    
   166   84  205 1    
   167   85   86 1    
   168   85   87 1    
   169   85  206 1    
   170   86  207 1    
   171   86  208 1    
   172   86  209 1    
   173   87   88 2    
   174   87   89 am   BACKBONE|DICT|INTERRES
   175   89   90 1    
   176   89  210 1    
   177   90   91 1    
   178   90   92 1    
   179   90  211 1    
   180   91  212 1    
   181   91  213 1    
   182   91  214 1    
   183   92   93 2    
   184   92   94 am   BACKBONE|DICT|INTERRES
   185   94   95 1    
   186   94  215 1    
   187   95   96 1    
   188   95   97 1    
   189   95  216 1    
   190   96  217 1    
   191   96  218 1    
   192   96  219 1    
   193   97   98 2    
   194   97   99 am   BACKBONE|DICT|INTERRES
   195   99  100 1    
   196   99  220 1    
   197  100  101 1    
   198  100  102 1    
   199  100  221 1    
   200  101  222 1    
   201  101  223 1    
   202  101  224 1    
   203  102  103 2    
   204  102  104 am   BACKBONE|DICT|INTERRES
   205  104  105 1    
   206  104  225 1    
   207  105  106 1    
   208  105  107 1    
   209  105  226 1    
   210  106  227 1    
   211  106  228 1    
   212  106  229 1    
   213  107  108 2    
   214  107  109 am   BACKBONE|DICT|INTERRES
   215  109  110 1    
   216  109  230 1    
   217  110  111 1    
   218  110  112 1    
   219  110  231 1    
   220  111  232 1    
   221  111  233 1    
   222  111  234 1    
   223  112  113 2    
   224  112  114 am   BACKBONE|DICT|INTERRES
   225  114  115 1    
   226  114  235 1    
   227  115  116 1    
   228  115  117 1    
   229  115  236 1    
   230  116  237 1    
   231  116  238 1    
   232  116  239 1    
   233  117  118 2    
   234  117  119 am   BACKBONE|DICT|INTERRES
   235  119  120 1    
   236  119  240 1    
   237  120  121 1    
   238  120  124 1    
   239  120  241 1    
   240  121  122 am   BACKBONE|DICT|INTERRES
   241  121  123 2    
   242  122  242 1    
   243  122  243 1    
   244  124  125 1    
   245  124  244 1    
   246  124  245 1    
   247  125  126 1    
   248  126  246 1    
   249  126  247 1    
@<TRIPOS>SUBSTRUCTURE
     1 UNK         1 GROUP             0       ****    0 ROOT    
