@<TRIPOS>MOLECULE
3R540
247   249    1
SMALL
USER_CHARGES


@<TRIPOS>ATOM
      1 CA          3.3083  -13.4384  -47.8775 C.3       0 UNK        -0.1800 
      2 C           2.2014  -14.4819  -47.9295 C.2       0 UNK         0.5000 
      3 O           2.2409  -15.3725  -48.7767 O.2       0 UNK        -0.5000 
      4 N           1.2173  -14.3726  -47.0312 N.am      1 UNK        -0.5000 
      5 CA          0.0725  -15.2725  -46.9334 C.3       1 UNK         0.1400 
      6 C6         -1.0016  -14.9886  -48.0203 C.3       23 UNK        -0.0398 
      7 S7         -2.3394  -16.2324  -48.0473 S.3       23 UNK        -0.2404 
      8 C8         -2.4337  -16.6322  -49.8273 C.3       23 UNK        -0.0205 
      9 C9         -1.2232  -17.3649  -50.4102 C.ar      23 UNK        -0.0193 
     10 C10        -1.0116  -17.3060  -51.7909 C.ar      23 UNK        -0.1150 
     11 C11         0.0803  -17.9500  -52.3791 C.ar      23 UNK        -0.0193 
     12 C12         0.9736  -18.6618  -51.5747 C.ar      23 UNK        -0.1150 
     13 C13         0.7766  -18.7352  -50.1939 C.ar      23 UNK        -0.0193 
     14 C14        -0.3278  -18.0979  -49.6200 C.ar      23 UNK        -0.1150 
     15 C15         1.7773  -19.4715  -49.3156 C.3       23 UNK        -0.0205 
     16 S16         1.5153  -21.2717  -49.3124 S.3       23 UNK        -0.2404 
     17 C17        -0.1378  -21.3800  -48.5587 C.3       23 UNK        -0.0398 
     18 CA         -0.3951  -22.7554  -47.9050 C.3       11 UNK         0.1400 
     19 N           0.4433  -22.9991  -46.7274 N.am      11 UNK        -0.5000 
     20 C           0.6436  -24.2143  -46.1949 C.2       10 UNK         0.5000 
     21 O           0.1507  -25.2451  -46.6511 O.2       10 UNK        -0.5000 
     22 CA          1.4827  -24.2894  -44.9047 C.3       10 UNK         0.1400 
     23 CB          2.9811  -24.3325  -45.2380 C.3       10 UNK        -0.1800 
     24 N           1.2221  -23.1781  -43.9897 N.am      10 UNK        -0.5000 
     25 C           0.0277  -22.8915  -43.4536 C.2       9 UNK         0.5000 
     26 O          -0.9691  -23.5967  -43.6054 O.2       9 UNK        -0.5000 
     27 CA         -0.0963  -21.5757  -42.6616 C.3       9 UNK         0.1400 
     28 CB         -0.0544  -21.8515  -41.1518 C.3       9 UNK        -0.1800 
     29 N           0.9149  -20.5659  -42.9887 N.am      9 UNK        -0.5000 
     30 C           1.1342  -20.0157  -44.1905 C.2       8 UNK         0.5000 
     31 O           0.5285  -20.3449  -45.2133 O.2       8 UNK        -0.5000 
     32 CA          2.2207  -18.9229  -44.2335 C.3       8 UNK         0.1400 
     33 CB          2.5036  -18.4142  -45.6551 C.3       8 UNK        -0.1800 
     34 N           1.8675  -17.7840  -43.3877 N.am      8 UNK        -0.5000 
     35 C           2.0387  -17.7216  -42.0611 C.2       7 UNK         0.5000 
     36 O           2.4659  -18.6636  -41.3892 O.2       7 UNK        -0.5000 
     37 CA          1.6849  -16.3756  -41.3958 C.3       7 UNK         0.1400 
     38 CB          2.0456  -16.3326  -39.8938 C.3       7 UNK        -0.1800 
     39 N           2.2745  -15.2402  -42.1187 N.am      7 UNK        -0.5000 
     40 C           3.5840  -15.0100  -42.3084 C.2       6 UNK         0.5000 
     41 O           4.4787  -15.6786  -41.7896 O.2       6 UNK        -0.5000 
     42 CA          3.9868  -13.8717  -43.2596 C.3       6 UNK         0.1400 
     43 CB          4.3492  -14.4598  -44.6371 C.3       6 UNK        -0.1800 
     44 N           2.9681  -12.8266  -43.4033 N.am      6 UNK        -0.5000 
     45 C           3.2150  -11.5985  -43.8795 C.2       5 UNK         0.5000 
     46 O           4.3329  -11.2061  -44.2161 O.2       5 UNK        -0.5000 
     47 CA          2.0178  -10.6437  -44.0098 C.3       5 UNK         0.1400 
     48 CB          1.1688  -10.9950  -45.2427 C.3       5 UNK        -0.1800 
     49 N           1.1691  -10.6655  -42.8209 N.am      5 UNK        -0.5000 
     50 C           1.2956   -9.8324  -41.7794 C.2       4 UNK         0.5000 
     51 O           2.1793   -8.9788  -41.6924 O.2       4 UNK        -0.5000 
     52 CA          0.2454   -9.9407  -40.6555 C.3       4 UNK         0.1400 
     53 CB         -0.8005   -8.8234  -40.7957 C.3       4 UNK        -0.1800 
     54 N          -0.4480  -11.2293  -40.6384 N.am      4 UNK        -0.5000 
     55 C           0.0510  -12.3478  -40.0980 C.2       3 UNK         0.5000 
     56 O           1.1368  -12.4065  -39.5212 O.2       3 UNK        -0.5000 
     57 CA         -0.7983  -13.6238  -40.2538 C.3       3 UNK         0.1400 
     58 CB         -1.8042  -13.7442  -39.0995 C.3       3 UNK        -0.1800 
     59 N          -1.5135  -13.7354  -41.5308 N.am      3 UNK        -0.5000 
     60 C          -0.9595  -13.6837  -42.7495 C.2       2 UNK         0.5000 
     61 O           0.2374  -13.4581  -42.9479 O.2       2 UNK        -0.5000 
     62 CA         -1.9186  -13.8721  -43.9385 C.3       2 UNK         0.1400 
     63 CB         -2.7828  -12.6137  -44.1203 C.3       2 UNK        -0.1800 
     64 N          -1.2468  -14.1470  -45.2106 N.am      2 UNK        -0.5000 
     65 C          -0.4477  -15.1877  -45.4882 C.2       1 UNK         0.5000 
     66 O          -0.0940  -16.0333  -44.6641 O.2       1 UNK        -0.5000 
     67 C          -1.8908  -22.9157  -47.5810 C.2       11 UNK         0.5000 
     68 O          -2.6461  -23.3420  -48.4537 O.2       11 UNK        -0.5000 
     69 N          -2.2997  -22.5921  -46.3468 N.am      12 UNK        -0.5000 
     70 CA         -3.6646  -22.8065  -45.8656 C.3       12 UNK         0.1400 
     71 CB         -3.9016  -22.0018  -44.5787 C.3       12 UNK        -0.1800 
     72 C          -3.9599  -24.3027  -45.6599 C.2       12 UNK         0.5000 
     73 O          -5.0162  -24.7742  -46.0798 O.2       12 UNK        -0.5000 
     74 N          -2.9999  -25.0272  -45.0672 N.am      13 UNK        -0.5000 
     75 CA         -3.0506  -26.4736  -44.8465 C.3       13 UNK         0.1400 
     76 CB         -1.8676  -26.8937  -43.9610 C.3       13 UNK        -0.1800 
     77 C          -3.0662  -27.2833  -46.1570 C.2       13 UNK         0.5000 
     78 O          -3.8286  -28.2439  -46.2685 O.2       13 UNK        -0.5000 
     79 N          -2.2477  -26.8662  -47.1330 N.am      14 UNK        -0.5000 
     80 CA         -2.1759  -27.4611  -48.4706 C.3       14 UNK         0.1400 
     81 CB         -0.8473  -27.0474  -49.1239 C.3       14 UNK        -0.1800 
     82 C          -3.3537  -27.0713  -49.3869 C.2       14 UNK         0.5000 
     83 O          -3.5203  -27.6890  -50.4389 O.2       14 UNK        -0.5000 
     84 N          -4.1150  -26.0373  -48.9967 N.am      15 UNK        -0.5000 
     85 CA         -5.1848  -25.3731  -49.7523 C.3       15 UNK         0.1400 
     86 CB         -6.3563  -26.3339  -50.0404 C.3       15 UNK        -0.1800 
     87 C          -4.6765  -24.6450  -51.0170 C.2       15 UNK         0.5000 
     88 O          -5.4547  -24.3763  -51.9313 O.2       15 UNK        -0.5000 
     89 N          -3.3835  -24.2971  -51.0252 N.am      16 UNK        -0.5000 
     90 CA         -2.7230  -23.4840  -52.0436 C.3       16 UNK         0.1400 
     91 CB         -1.2045  -23.6752  -51.9176 C.3       16 UNK        -0.1800 
     92 C          -3.0968  -21.9948  -51.9179 C.2       16 UNK         0.5000 
     93 O          -3.0888  -21.2774  -52.9159 O.2       16 UNK        -0.5000 
     94 N          -3.4394  -21.5622  -50.6960 N.am      17 UNK        -0.5000 
     95 CA         -3.8777  -20.2010  -50.3862 C.3       17 UNK         0.1400 
     96 CB         -3.8619  -20.0069  -48.8608 C.3       17 UNK        -0.1800 
     97 C          -5.2657  -19.8466  -50.9590 C.2       17 UNK         0.5000 
     98 O          -5.5898  -18.6624  -51.0551 O.2       17 UNK        -0.5000 
     99 N          -6.0672  -20.8620  -51.3107 N.am      18 UNK        -0.5000 
    100 CA        -7.3742  -20.7025  -51.9416 C.3       18 UNK         0.1400 
    101 CB        -8.1526  -22.0223  -51.8307 C.3       18 UNK        -0.1800 
    102 C         -7.2186  -20.2848  -53.4137 C.2       18 UNK         0.5000 
    103 O         -6.4483  -20.9139  -54.1436 O.2       18 UNK        -0.5000 
    104 N         -7.9675  -19.2489  -53.8205 N.am      19 UNK        -0.5000 
    105 CA        -7.9915  -18.6501  -55.1598 C.3       19 UNK         0.1400 
    106 CB        -8.7186  -19.5881  -56.1505 C.3       19 UNK        -0.1800 
    107 C         -6.5786  -18.2270  -55.6164 C.2       19 UNK         0.5000 
    108 O         -6.0539  -17.2339  -55.1104 O.2       19 UNK        -0.5000 
    109 N         -5.9854  -19.0030  -56.5283 N.am      20 UNK        -0.5000 
    110 CA        -4.5962  -18.8959  -56.9612 C.3       20 UNK         0.1400 
    111 CB        -4.5097  -18.0129  -58.2202 C.3       20 UNK        -0.1800 
    112 C         -4.0043  -20.3028  -57.1650 C.2       20 UNK         0.5000 
    113 O         -3.1904  -20.5013  -58.0696 O.2       20 UNK        -0.5000 
    114 N         -4.4199  -21.2682  -56.3272 N.am      21 UNK        -0.5000 
    115 CA        -3.9874  -22.6718  -56.3781 C.3       21 UNK         0.1400 
    116 CB        -4.8214  -23.4933  -55.3840 C.3       21 UNK        -0.1800 
    117 C         -2.4739  -22.8787  -56.1503 C.2       21 UNK         0.5000 
    118 O         -1.9258  -23.8931  -56.5828 O.2       21 UNK        -0.5000 
    119 N         -1.8257  -21.8951  -55.5184 N.am      22 UNK        -0.5000 
    120 CA        -0.3711  -21.7235  -55.4187 C.3       22 UNK         0.1400 
    121 C          0.3705  -21.5083  -56.7743 C.2       22 UNK         0.5000 
    122 N         -0.3050  -21.1693  -57.8673 N.am      22 UNK        -0.7600 
    123 O          1.5873  -21.6628  -56.8347 O.2       22 UNK        -0.5000 
    124 C124       -0.0183  -20.6074  -54.3995 C.3       23 UNK        -0.0398 
    125 S125       -0.7780  -18.9907  -54.7989 S.3       23 UNK        -0.2404 
    126 C126        0.3025  -17.8526  -53.8807 C.3       23 UNK        -0.0205 
    127 H127        4.2801  -13.9262  -47.8032 H         1 UNK         0.0600 
    128 H128        3.1982  -12.7699  -47.0238 H         1 UNK         0.0600 
    129 H129        3.2976  -12.8358  -48.7856 H         1 UNK         0.0600 
    130 H130        1.2529  -13.6447  -46.3325 H         1 UNK         0.3000 
    131 H131        0.4309  -16.2926  -47.0795 H         1 UNK         0.0600 
    132 H132       -1.4408  -13.9972  -47.9051 H         1 UNK         0.0800 
    133 H133       -0.5228  -14.9776  -49.0001 H         1 UNK         0.0800 
    134 H134       -3.3229  -17.2377  -49.9979 H         1 UNK         0.0800 
    135 H135       -2.5953  -15.7016  -50.3738 H         1 UNK         0.0800 
    136 H136       -1.6998  -16.7538  -52.4158 H         1 UNK         0.1150 
    137 H137        1.8270  -19.1537  -52.0199 H         1 UNK         0.1150 
    138 H138       -0.4739  -18.1668  -48.5525 H         1 UNK         0.1150 
    139 H139        2.7902  -19.2609  -49.6618 H         1 UNK         0.0800 
    140 H140        1.7229  -19.0979  -48.2946 H         1 UNK         0.0800 
    141 H141       -0.8575  -21.1849  -49.3558 H         1 UNK         0.0800 
    142 H142       -0.2616  -20.5812  -47.8256 H         1 UNK         0.0800 
    143 H143       -0.1564  -23.5230  -48.6443 H         1 UNK         0.0600 
    144 H144        0.8260  -22.1810  -46.2680 H         1 UNK         0.3000 
    145 H145        1.2181  -25.2150  -44.3895 H         1 UNK         0.0600 
    146 H146        3.5820  -24.4657  -44.3383 H         1 UNK         0.0600 
    147 H147        3.2081  -25.1651  -45.9053 H         1 UNK         0.0600 
    148 H148        3.3112  -23.4171  -45.7311 H         1 UNK         0.0600 
    149 H149        1.9877  -22.5464  -43.8094 H         1 UNK         0.3000 
    150 H150       -1.0711  -21.1481  -42.9039 H         1 UNK         0.0600 
    151 H151        0.9126  -22.2510  -40.8436 H         1 UNK         0.0600 
    152 H152       -0.8170  -22.5769  -40.8645 H         1 UNK         0.0600 
    153 H153       -0.2403  -20.9426  -40.5791 H         1 UNK         0.0600 
    154 H154        1.4580  -20.2013  -42.2123 H         1 UNK         0.3000 
    155 H155        3.1448  -19.3673  -43.8577 H         1 UNK         0.0600 
    156 H156        1.6040  -18.0165  -46.1230 H         1 UNK         0.0600 
    157 H157        2.8794  -19.2225  -46.2829 H         1 UNK         0.0600 
    158 H158        3.2577  -17.6269  -45.6538 H         1 UNK         0.0600 
    159 H159        1.3961  -17.0131  -43.8523 H         1 UNK         0.3000 
    160 H160        0.6032  -16.2707  -41.4857 H         1 UNK         0.0600 
    161 H161        3.0915  -16.5861  -39.7186 H         1 UNK         0.0600 
    162 H162        1.4418  -17.0450  -39.3308 H         1 UNK         0.0600 
    163 H163        1.8740  -15.3461  -39.4649 H         1 UNK         0.0600 
    164 H164        1.5989  -14.6451  -42.5876 H         1 UNK         0.3000 
    165 H165        4.8824  -13.4169  -42.8307 H         1 UNK         0.0600 
    166 H166        4.7838  -13.7061  -45.2925 H         1 UNK         0.0600 
    167 H167        5.0852  -15.2594  -44.5428 H         1 UNK         0.0600 
    168 H168        3.4736  -14.8805  -45.1319 H         1 UNK         0.0600 
    169 H169        2.0176  -13.0568  -43.1282 H         1 UNK         0.3000 
    170 H170        2.4102   -9.6354  -44.1597 H         1 UNK         0.0600 
    171 H171        1.7673  -10.9546  -46.1533 H         1 UNK         0.0600 
    172 H172        0.7403  -11.9937  -45.1705 H         1 UNK         0.0600 
    173 H173        0.3469  -10.2896  -45.3657 H         1 UNK         0.0600 
    174 H174        0.4705  -11.3953  -42.7788 H         1 UNK         0.3000 
    175 H175        0.7641   -9.8022  -39.7044 H         1 UNK         0.0600 
    176 H176       -1.3565   -8.9069  -41.7304 H         1 UNK         0.0600 
    177 H177       -1.5171   -8.8486  -39.9745 H         1 UNK         0.0600 
    178 H178       -0.3274   -7.8406  -40.7819 H         1 UNK         0.0600 
    179 H179       -1.3517  -11.2692  -41.0863 H         1 UNK         0.3000 
    180 H180       -0.1197  -14.4713  -40.1894 H         1 UNK         0.0600 
    181 H181       -2.5481  -12.9471  -39.1288 H         1 UNK         0.0600 
    182 H182       -1.3001  -13.6878  -38.1336 H         1 UNK         0.0600 
    183 H183       -2.3313  -14.6979  -39.1326 H         1 UNK         0.0600 
    184 H184       -2.5070  -13.9037  -41.4619 H         1 UNK         0.3000 
    185 H185       -2.5674  -14.7217  -43.7169 H         1 UNK         0.0600 
    186 H186       -3.3537  -12.3866  -43.2191 H         1 UNK         0.0600 
    187 H187       -2.1739  -11.7384  -44.3520 H         1 UNK         0.0600 
    188 H188       -3.5030  -12.7435  -44.9285 H         1 UNK         0.0600 
    189 H189       -1.4515  -13.4947  -45.9518 H         1 UNK         0.3000 
    190 H190       -1.6194  -22.2668  -45.6755 H         1 UNK         0.3000 
    191 H191       -4.3575  -22.4335  -46.6224 H         1 UNK         0.0600 
    192 H192       -3.7069  -20.9408  -44.7363 H         1 UNK         0.0600 
    193 H193       -4.9369  -22.0968  -44.2493 H         1 UNK         0.0600 
    194 H194       -3.2684  -22.3413  -43.7597 H         1 UNK         0.0600 
    195 H195       -2.1829  -24.5429  -44.7040 H         1 UNK         0.3000 
    196 H196       -3.9741  -26.6954  -44.3079 H         1 UNK         0.0600 
    197 H197       -1.8951  -27.9640  -43.7532 H         1 UNK         0.0600 
    198 H198       -1.8893  -26.3747  -43.0025 H         1 UNK         0.0600 
    199 H199       -0.9111  -26.6750  -44.4366 H         1 UNK         0.0600 
    200 H200       -1.5907  -26.1165  -46.9365 H         1 UNK         0.3000 
    201 H201       -2.1833  -28.5483  -48.3701 H         1 UNK         0.0600 
    202 H202       -0.7348  -27.5002  -50.1099 H         1 UNK         0.0600 
    203 H203        0.0041  -27.3668  -48.5226 H         1 UNK         0.0600 
    204 H204       -0.7815  -25.9660  -49.2501 H         1 UNK         0.0600 
    205 H205       -3.8854  -25.6029  -48.1128 H         1 UNK         0.3000 
    206 H206       -5.5628  -24.5894  -49.0942 H         1 UNK         0.0600 
    207 H207       -6.6886  -26.8337  -49.1305 H         1 UNK         0.0600 
    208 H208       -7.2132  -25.7933  -50.4440 H         1 UNK         0.0600 
    209 H209       -6.0857  -27.1004  -50.7667 H         1 UNK         0.0600 
    210 H210       -2.8566  -24.4732  -50.1789 H         1 UNK         0.3000 
    211 H211       -3.0311  -23.8380  -53.0281 H         1 UNK         0.0600 
    212 H212       -0.8257  -23.2932  -50.9699 H         1 UNK         0.0600 
    213 H213       -0.6784  -23.1522  -52.7149 H         1 UNK         0.0600 
    214 H214       -0.9317  -24.7284  -51.9884 H         1 UNK         0.0600 
    215 H215       -3.3942  -22.2182  -49.9236 H         1 UNK         0.3000 
    216 H216       -3.1591  -19.5104  -50.8310 H         1 UNK         0.0600 
    217 H217       -4.2248  -19.0165  -48.5836 H         1 UNK         0.0600 
    218 H218       -2.8543  -20.0986  -48.4580 H         1 UNK         0.0600 
    219 H219       -4.4962  -20.7373  -48.3584 H         1 UNK         0.0600 
    220 H220       -5.7009  -21.8016  -51.2692 H         1 UNK         0.3000 
    221 H221       -7.9288  -19.9319  -51.4018 H         1 UNK         0.0600 
    222 H222       -7.6554  -22.8294  -52.3702 H         1 UNK         0.0600 
    223 H223       -8.2630  -22.3317  -50.7912 H         1 UNK         0.0600 
    224 H224       -9.1545  -21.9190  -52.2489 H         1 UNK         0.0600 
    225 H225       -8.5439  -18.7822  -53.1344 H         1 UNK         0.3000 
    226 H226       -8.5772  -17.7327  -55.0849 H         1 UNK         0.0600 
    227 H227       -9.7493  -19.7555  -55.8374 H         1 UNK         0.0600 
    228 H228       -8.7555  -19.1524  -57.1498 H         1 UNK         0.0600 
    229 H229       -8.2400  -20.5649  -56.2287 H         1 UNK         0.0600 
    230 H230       -6.4868  -19.8138  -56.8642 H         1 UNK         0.3000 
    231 H231       -4.0009  -18.4314  -56.1721 H         1 UNK         0.0600 
    232 H232       -5.0581  -18.4515  -59.0546 H         1 UNK         0.0600 
    233 H233       -3.4745  -17.8800  -58.5369 H         1 UNK         0.0600 
    234 H234       -4.9196  -17.0201  -58.0341 H         1 UNK         0.0600 
    235 H235       -5.0678  -21.0314  -55.5794 H         1 UNK         0.3000 
    236 H236       -4.2041  -23.0434  -57.3816 H         1 UNK         0.0600 
    237 H237       -5.8730  -23.5032  -55.6704 H         1 UNK         0.0600 
    238 H238       -4.4855  -24.5300  -55.3410 H         1 UNK         0.0600 
    239 H239       -4.7623  -23.0828  -54.3766 H         1 UNK         0.0600 
    240 H240       -2.3756  -21.1398  -55.1302 H         1 UNK         0.3000 
    241 H241        0.0216  -22.6606  -55.0210 H         1 UNK         0.0600 
    242 H242        0.1919  -21.0395  -58.7338 H         1 UNK         0.3800 
    243 H243       -1.3079  -21.0125  -57.8391 H         1 UNK         0.3800 
    244 H244       -0.3587  -20.8930  -53.4039 H         1 UNK         0.0800 
    245 H245        1.0640  -20.4937  -54.3179 H         1 UNK         0.0800 
    246 H246        1.3456  -18.0479  -54.1340 H         1 UNK         0.0800 
    247 H247        0.0975  -16.8329  -54.2098 H         1 UNK         0.0800 
@<TRIPOS>BOND
     1    1    2 1    
     2    1  127 1    
     3    1  128 1    
     4    1  129 1    
     5    2    3 2    
     6    2    4 am   BACKBONE|DICT|INTERRES
     7    4    5 1    
     8    4  130 1    
     9    5    6 1    
    10    5   65 1    
    11    5  131 1    
    12    6    7 1    
    13    6  132 1    
    14    6  133 1    
    15    7    8 1    
    16    8    9 1    
    17    8  134 1    
    18    8  135 1    
    19    9   10 ar   
    20    9   14 ar   
    21   10   11 ar   
    22   10  136 1    
    23   11   12 ar   
    24   11  126 1    
    25   12   13 ar   
    26   12  137 1    
    27   13   14 ar   
    28   13   15 1    
    29   14  138 1    
    30   15   16 1    
    31   15  139 1    
    32   15  140 1    
    33   16   17 1    
    34   17   18 1    
    35   17  141 1    
    36   17  142 1    
    37   18   19 1    
    38   18   67 1    
    39   18  143 1    
    40   19   20 am   BACKBONE|DICT|INTERRES
    41   19  144 1    
    42   20   21 2    
    43   20   22 1    
    44   22   23 1    
    45   22   24 1    
    46   22  145 1    
    47   23  146 1    
    48   23  147 1    
    49   23  148 1    
    50   24   25 am   BACKBONE|DICT|INTERRES
    51   24  149 1    
    52   25   26 2    
    53   25   27 1    
    54   27   28 1    
    55   27   29 1    
    56   27  150 1    
    57   28  151 1    
    58   28  152 1    
    59   28  153 1    
    60   29   30 am   BACKBONE|DICT|INTERRES
    61   29  154 1    
    62   30   31 2    
    63   30   32 1    
    64   32   33 1    
    65   32   34 1    
    66   32  155 1    
    67   33  156 1    
    68   33  157 1    
    69   33  158 1    
    70   34   35 am   BACKBONE|DICT|INTERRES
    71   34  159 1    
    72   35   36 2    
    73   35   37 1    
    74   37   38 1    
    75   37   39 1    
    76   37  160 1    
    77   38  161 1    
    78   38  162 1    
    79   38  163 1    
    80   39   40 am   BACKBONE|DICT|INTERRES
    81   39  164 1    
    82   40   41 2    
    83   40   42 1    
    84   42   43 1    
    85   42   44 1    
    86   42  165 1    
    87   43  166 1    
    88   43  167 1    
    89   43  168 1    
    90   44   45 am   BACKBONE|DICT|INTERRES
    91   44  169 1    
    92   45   46 2    
    93   45   47 1    
    94   47   48 1    
    95   47   49 1    
    96   47  170 1    
    97   48  171 1    
    98   48  172 1    
    99   48  173 1    
   100   49   50 am   BACKBONE|DICT|INTERRES
   101   49  174 1    
   102   50   51 2    
   103   50   52 1    
   104   52   53 1    
   105   52   54 1    
   106   52  175 1    
   107   53  176 1    
   108   53  177 1    
   109   53  178 1    
   110   54   55 am   BACKBONE|DICT|INTERRES
   111   54  179 1    
   112   55   56 2    
   113   55   57 1    
   114   57   58 1    
   115   57   59 1    
   116   57  180 1    
   117   58  181 1    
   118   58  182 1    
   119   58  183 1    
   120   59   60 am   BACKBONE|DICT|INTERRES
   121   59  184 1    
   122   60   61 2    
   123   60   62 1    
   124   62   63 1    
   125   62   64 1    
   126   62  185 1    
   127   63  186 1    
   128   63  187 1    
   129   63  188 1    
   130   64   65 am   BACKBONE|DICT|INTERRES
   131   64  189 1    
   132   65   66 2    
   133   67   68 2    
   134   67   69 am   BACKBONE|DICT|INTERRES
   135   69   70 1    
   136   69  190 1    
   137   70   71 1    
   138   70   72 1    
   139   70  191 1    
   140   71  192 1    
   141   71  193 1    
   142   71  194 1    
   143   72   73 2    
   144   72   74 am   BACKBONE|DICT|INTERRES
   145   74   75 1    
   146   74  195 1    
   147   75   76 1    
   148   75   77 1    
   149   75  196 1    
   150   76  197 1    
   151   76  198 1    
   152   76  199 1    
   153   77   78 2    
   154   77   79 am   BACKBONE|DICT|INTERRES
   155   79   80 1    
   156   79  200 1    
   157   80   81 1    
   158   80   82 1    
   159   80  201 1    
   160   81  202 1    
   161   81  203 1    
   162   81  204 1    
   163   82   83 2    
   164   82   84 am   BACKBONE|DICT|INTERRES
   165   84   85 1    
   166   84  205 1    
   167   85   86 1    
   168   85   87 1    
   169   85  206 1    
   170   86  207 1    
   171   86  208 1    
   172   86  209 1    
   173   87   88 2    
   174   87   89 am   BACKBONE|DICT|INTERRES
   175   89   90 1    
   176   89  210 1    
   177   90   91 1    
   178   90   92 1    
   179   90  211 1    
   180   91  212 1    
   181   91  213 1    
   182   91  214 1    
   183   92   93 2    
   184   92   94 am   BACKBONE|DICT|INTERRES
   185   94   95 1    
   186   94  215 1    
   187   95   96 1    
   188   95   97 1    
   189   95  216 1    
   190   96  217 1    
   191   96  218 1    
   192   96  219 1    
   193   97   98 2    
   194   97   99 am   BACKBONE|DICT|INTERRES
   195   99  100 1    
   196   99  220 1    
   197  100  101 1    
   198  100  102 1    
   199  100  221 1    
   200  101  222 1    
   201  101  223 1    
   202  101  224 1    
   203  102  103 2    
   204  102  104 am   BACKBONE|DICT|INTERRES
   205  104  105 1    
   206  104  225 1    
   207  105  106 1    
   208  105  107 1    
   209  105  226 1    
   210  106  227 1    
   211  106  228 1    
   212  106  229 1    
   213  107  108 2    
   214  107  109 am   BACKBONE|DICT|INTERRES
   215  109  110 1    
   216  109  230 1    
   217  110  111 1    
   218  110  112 1    
   219  110  231 1    
   220  111  232 1    
   221  111  233 1    
   222  111  234 1    
   223  112  113 2    
   224  112  114 am   BACKBONE|DICT|INTERRES
   225  114  115 1    
   226  114  235 1    
   227  115  116 1    
   228  115  117 1    
   229  115  236 1    
   230  116  237 1    
   231  116  238 1    
   232  116  239 1    
   233  117  118 2    
   234  117  119 am   BACKBONE|DICT|INTERRES
   235  119  120 1    
   236  119  240 1    
   237  120  121 1    
   238  120  124 1    
   239  120  241 1    
   240  121  122 am   BACKBONE|DICT|INTERRES
   241  121  123 2    
   242  122  242 1    
   243  122  243 1    
   244  124  125 1    
   245  124  244 1    
   246  124  245 1    
   247  125  126 1    
   248  126  246 1    
   249  126  247 1    
@<TRIPOS>SUBSTRUCTURE
     1 UNK         1 GROUP             0       ****    0 ROOT    
