@<TRIPOS>MOLECULE
3R540
247   249    1
SMALL
USER_CHARGES


@<TRIPOS>ATOM
      1 CA          3.5446  -15.3392  -48.1690 C.3       0 UNK        -0.1800 
      2 C           2.2607  -14.6243  -47.7793 C.2       0 UNK         0.5000 
      3 O           2.0038  -14.4352  -46.5906 O.2       0 UNK        -0.5000 
      4 N           1.4625  -14.2188  -48.7750 N.am      1 UNK        -0.5000 
      5 CA          0.2717  -13.3795  -48.6173 C.3       1 UNK         0.1400 
      6 C6         -0.6495  -13.4348  -49.8592 C.3       23 UNK        -0.0398 
      7 S7         -1.5878  -14.9983  -49.9302 S.3       23 UNK        -0.2404 
      8 C8         -1.0635  -15.6999  -51.5303 C.3       23 UNK        -0.0205 
      9 C9          0.2657  -16.4552  -51.5085 C.ar      23 UNK        -0.0193 
     10 C10         1.0186  -16.5218  -52.6840 C.ar      23 UNK        -0.1150 
     11 C11         2.2079  -17.2533  -52.7352 C.ar      23 UNK        -0.0193 
     12 C12         2.6682  -17.8966  -51.5840 C.ar      23 UNK        -0.1150 
     13 C13         1.9388  -17.8278  -50.3949 C.ar      23 UNK        -0.0193 
     14 C14         0.7320  -17.1222  -50.3676 C.ar      23 UNK        -0.1150 
     15 C15         2.4822  -18.4772  -49.1310 C.3       23 UNK        -0.0205 
     16 S16         2.3218  -20.2860  -49.1407 S.3       23 UNK        -0.2404 
     17 C17         0.5205  -20.4974  -48.9926 C.3       23 UNK        -0.0398 
     18 CA          0.1568  -21.7647  -48.1875 C.3       11 UNK         0.1400 
     19 N           0.4019  -21.6244  -46.7484 N.am      11 UNK        -0.5000 
     20 C           0.3436  -22.6406  -45.8753 C.2       10 UNK         0.5000 
     21 O           0.1317  -23.8080  -46.2031 O.2       10 UNK        -0.5000 
     22 CA          0.4861  -22.2942  -44.3822 C.3       10 UNK         0.1400 
     23 CB          1.9588  -22.0874  -43.9989 C.3       10 UNK        -0.1800 
     24 N          -0.3026  -21.1217  -44.0011 N.am      10 UNK        -0.5000 
     25 C          -1.6411  -21.0602  -44.0596 C.2       9 UNK         0.5000 
     26 O          -2.3531  -22.0077  -44.3907 O.2       9 UNK        -0.5000 
     27 CA         -2.2956  -19.7025  -43.7454 C.3       9 UNK         0.1400 
     28 CB         -2.4326  -19.4938  -42.2302 C.3       9 UNK        -0.1800 
     29 N          -1.5710  -18.5764  -44.3319 N.am      9 UNK        -0.5000 
     30 C          -1.3856  -18.3840  -45.6459 C.2       8 UNK         0.5000 
     31 O          -1.8412  -19.1178  -46.5219 O.2       8 UNK        -0.5000 
     32 CA         -0.4849  -17.2021  -46.0389 C.3       8 UNK         0.1400 
     33 CB         -1.2517  -15.8747  -45.9287 C.3       8 UNK        -0.1800 
     34 N           0.7232  -17.1484  -45.2144 N.am      8 UNK        -0.5000 
     35 C           1.6739  -18.0938  -45.1926 C.2       7 UNK         0.5000 
     36 O           1.6478  -19.1030  -45.8952 O.2       7 UNK        -0.5000 
     37 CA          2.8118  -17.9106  -44.1723 C.3       7 UNK         0.1400 
     38 CB          3.9042  -16.9793  -44.7153 C.3       7 UNK        -0.1800 
     39 N           2.3250  -17.3981  -42.8922 N.am      7 UNK        -0.5000 
     40 C           1.5486  -18.0964  -42.0524 C.2       6 UNK         0.5000 
     41 O           1.1997  -19.2598  -42.2515 O.2       6 UNK        -0.5000 
     42 CA          1.0420  -17.3532  -40.8044 C.3       6 UNK         0.1400 
     43 CB          2.0842  -17.4115  -39.6781 C.3       6 UNK        -0.1800 
     44 N           0.6918  -15.9557  -41.0665 N.am      6 UNK        -0.5000 
     45 C          -0.2683  -15.5373  -41.8985 C.2       5 UNK         0.5000 
     46 O          -0.9440  -16.3068  -42.5815 O.2       5 UNK        -0.5000 
     47 CA         -0.5253  -14.0190  -42.0037 C.3       5 UNK         0.1400 
     48 CB         -1.5493  -13.5693  -40.9462 C.3       5 UNK        -0.1800 
     49 N           0.6609  -13.1491  -41.9809 N.am      5 UNK        -0.5000 
     50 C           1.5631  -12.9539  -41.0043 C.2       4 UNK         0.5000 
     51 O           1.5843  -13.5840  -39.9465 O.2       4 UNK        -0.5000 
     52 CA          2.6262  -11.8620  -41.2447 C.3       4 UNK         0.1400 
     53 CB          3.8804  -12.4746  -41.8869 C.3       4 UNK        -0.1800 
     54 N           2.1488  -10.7625  -42.0857 N.am      4 UNK        -0.5000 
     55 C           1.1465   -9.9282  -41.7730 C.2       3 UNK         0.5000 
     56 O           0.5922   -9.9152  -40.6732 O.2       3 UNK        -0.5000 
     57 CA          0.6608   -8.9552  -42.8700 C.3       3 UNK         0.1400 
     58 CB          1.0948   -7.5180  -42.5409 C.3       3 UNK        -0.1800 
     59 N           1.0903   -9.2718  -44.2391 N.am      3 UNK        -0.5000 
     60 C           0.8319  -10.4009  -44.9125 C.2       2 UNK         0.5000 
     61 O           0.2522  -11.3759  -44.4224 O.2       2 UNK        -0.5000 
     62 CA          1.3391  -10.4537  -46.3628 C.3       2 UNK         0.1400 
     63 CB          2.8773  -10.3901  -46.4269 C.3       2 UNK        -0.1800 
     64 N           0.8836  -11.6966  -46.9676 N.am      2 UNK        -0.5000 
     65 C           0.7012  -11.9402  -48.2672 C.2       1 UNK         0.5000 
     66 O           0.8915  -11.1111  -49.1592 O.2       1 UNK        -0.5000 
     67 C          -1.2888  -22.2032  -48.4899 C.2       11 UNK         0.5000 
     68 O          -1.4819  -23.0525  -49.3574 O.2       11 UNK        -0.5000 
     69 N          -2.2749  -21.6537  -47.7677 N.am      12 UNK        -0.5000 
     70 CA         -3.6824  -22.0379  -47.8834 C.3       12 UNK         0.1400 
     71 CB         -4.5659  -21.0510  -47.1077 C.3       12 UNK        -0.1800 
     72 C          -3.9399  -23.4893  -47.4467 C.2       12 UNK         0.5000 
     73 O          -4.6701  -24.2025  -48.1333 O.2       12 UNK        -0.5000 
     74 N          -3.2998  -23.9176  -46.3506 N.am      13 UNK        -0.5000 
     75 CA         -3.3278  -25.2975  -45.8647 C.3       13 UNK         0.1400 
     76 CB         -2.6709  -25.3681  -44.4779 C.3       13 UNK        -0.1800 
     77 C          -2.6614  -26.2874  -46.8394 C.2       13 UNK         0.5000 
     78 O          -3.1754  -27.3912  -47.0228 O.2       13 UNK        -0.5000 
     79 N          -1.5464  -25.8714  -47.4570 N.am      14 UNK        -0.5000 
     80 CA         -0.8277  -26.6367  -48.4756 C.3       14 UNK         0.1400 
     81 CB          0.5516  -26.0050  -48.7191 C.3       14 UNK        -0.1800 
     82 C          -1.6152  -26.7573  -49.7935 C.2       14 UNK         0.5000 
     83 O          -1.6631  -27.8450  -50.3696 O.2       14 UNK        -0.5000 
     84 N          -2.2179  -25.6469  -50.2427 N.am      15 UNK        -0.5000 
     85 CA         -3.0519  -25.5773  -51.4427 C.3       15 UNK         0.1400 
     86 CB         -3.3301  -24.1073  -51.7955 C.3       15 UNK        -0.1800 
     87 C          -4.3642  -26.3654  -51.2897 C.2       15 UNK         0.5000 
     88 O          -4.7223  -27.1216  -52.1939 O.2       15 UNK        -0.5000 
     89 N          -5.0389  -26.1827  -50.1446 N.am      16 UNK        -0.5000 
     90 CA         -6.2643  -26.8324  -49.6617 C.3       16 UNK         0.1400 
     91 CB         -6.0549  -28.3476  -49.4826 C.3       16 UNK        -0.1800 
     92 C          -7.5291  -26.5378  -50.4923 C.2       16 UNK         0.5000 
     93 O          -8.5545  -26.1584  -49.9260 O.2       16 UNK        -0.5000 
     94 N          -7.4387  -26.7128  -51.8142 N.am      17 UNK        -0.5000 
     95 CA         -8.5073  -26.4808  -52.7860 C.3       17 UNK         0.1400 
     96 CB         -8.2176  -27.3273  -54.0358 C.3       17 UNK        -0.1800 
     97 C          -8.6726  -24.9960  -53.1664 C.2       17 UNK         0.5000 
     98 O          -9.6640  -24.6482  -53.8099 O.2       17 UNK        -0.5000 
     99 N          -7.7096  -24.1519  -52.7804 N.am      18 UNK        -0.5000 
    100 CA        -7.6922  -22.7149  -53.0204 C.3       18 UNK         0.1400 
    101 CB        -6.8397  -22.4184  -54.2653 C.3       18 UNK        -0.1800 
    102 C         -7.1152  -22.0111  -51.7870 C.2       18 UNK         0.5000 
    103 O         -6.3319  -22.6096  -51.0440 O.2       18 UNK        -0.5000 
    104 N         -7.4868  -20.7390  -51.6074 N.am      19 UNK        -0.5000 
    105 CA        -6.9948  -19.8579  -50.5493 C.3       19 UNK         0.1400 
    106 CB        -8.0211  -18.7333  -50.3229 C.3       19 UNK        -0.1800 
    107 C         -5.5900  -19.3234  -50.8924 C.2       19 UNK         0.5000 
    108 O         -5.4356  -18.1418  -51.2064 O.2       19 UNK        -0.5000 
    109 N         -4.6050  -20.2295  -50.8484 N.am      20 UNK        -0.5000 
    110 CA        -3.1943  -20.0318  -51.1897 C.3       20 UNK         0.1400 
    111 CB        -2.5436  -18.9819  -50.2582 C.3       20 UNK        -0.1800 
    112 C         -3.0001  -19.7540  -52.6966 C.2       20 UNK         0.5000 
    113 O         -3.7759  -20.2646  -53.5070 O.2       20 UNK        -0.5000 
    114 N         -1.9579  -18.9808  -53.0365 N.am      21 UNK        -0.5000 
    115 CA        -1.5364  -18.5829  -54.3853 C.3       21 UNK         0.1400 
    116 CB        -2.5596  -17.6001  -54.9920 C.3       21 UNK        -0.1800 
    117 C         -1.2386  -19.7902  -55.3071 C.2       21 UNK         0.5000 
    118 O         -1.9822  -20.0220  -56.2606 O.2       21 UNK        -0.5000 
    119 N         -0.1875  -20.5811  -55.0547 N.am      22 UNK        -0.5000 
    120 CA         0.8255  -20.4873  -53.9892 C.3       22 UNK         0.1400 
    121 C          0.9704  -21.8570  -53.2701 C.2       22 UNK         0.5000 
    122 N          1.5758  -21.8865  -52.0918 N.am      22 UNK        -0.7600 
    123 O          0.5657  -22.9019  -53.7761 O.2       22 UNK        -0.5000 
    124 C124        2.1993  -20.0178  -54.5418 C.3       23 UNK        -0.0398 
    125 S125        2.1519  -18.3515  -55.2893 S.3       23 UNK        -0.2404 
    126 C126        2.9976  -17.3375  -54.0330 C.3       23 UNK        -0.0205 
    127 H127        3.6289  -16.2780  -47.6258 H         1 UNK         0.0600 
    128 H128        4.4060  -14.7221  -47.9143 H         1 UNK         0.0600 
    129 H129        3.5821  -15.5544  -49.2372 H         1 UNK         0.0600 
    130 H130        1.7289  -14.4150  -49.7288 H         1 UNK         0.3000 
    131 H131       -0.3066  -13.7503  -47.7714 H         1 UNK         0.0600 
    132 H132       -0.0772  -13.2842  -50.7759 H         1 UNK         0.0800 
    133 H133       -1.3871  -12.6308  -49.8280 H         1 UNK         0.0800 
    134 H134       -1.0342  -14.9004  -52.2722 H         1 UNK         0.0800 
    135 H135       -1.8405  -16.3858  -51.8656 H         1 UNK         0.0800 
    136 H136        0.6684  -16.0202  -53.5756 H         1 UNK         0.1150 
    137 H137        3.5990  -18.4459  -51.6075 H         1 UNK         0.1150 
    138 H138        0.1641  -17.0844  -49.4499 H         1 UNK         0.1150 
    139 H139        3.5401  -18.2324  -49.0312 H         1 UNK         0.0800 
    140 H140        1.9902  -18.0681  -48.2493 H         1 UNK         0.0800 
    141 H141        0.1306  -20.5564  -50.0096 H         1 UNK         0.0800 
    142 H142        0.0732  -19.6136  -48.5351 H         1 UNK         0.0800 
    143 H143        0.7968  -22.5760  -48.5411 H         1 UNK         0.0600 
    144 H144        0.6396  -20.6954  -46.4116 H         1 UNK         0.3000 
    145 H145        0.1084  -23.1440  -43.8098 H         1 UNK         0.0600 
    146 H146        2.0656  -21.9027  -42.9299 H         1 UNK         0.0600 
    147 H147        2.5503  -22.9722  -44.2372 H         1 UNK         0.0600 
    148 H148        2.4024  -21.2455  -44.5294 H         1 UNK         0.0600 
    149 H149        0.2118  -20.3139  -43.6658 H         1 UNK         0.3000 
    150 H150       -3.2979  -19.7096  -44.1781 H         1 UNK         0.0600 
    151 H151       -3.0094  -20.3006  -41.7763 H         1 UNK         0.0600 
    152 H152       -2.9466  -18.5589  -42.0061 H         1 UNK         0.0600 
    153 H153       -1.4614  -19.4668  -41.7364 H         1 UNK         0.0600 
    154 H154       -1.1887  -17.8914  -43.6859 H         1 UNK         0.3000 
    155 H155       -0.1715  -17.3337  -47.0759 H         1 UNK         0.0600 
    156 H156       -1.8151  -15.7988  -44.9988 H         1 UNK         0.0600 
    157 H157       -1.9643  -15.7734  -46.7479 H         1 UNK         0.0600 
    158 H158       -0.5781  -15.0212  -45.9666 H         1 UNK         0.0600 
    159 H159        0.8094  -16.3611  -44.5901 H         1 UNK         0.3000 
    160 H160        3.2614  -18.8903  -43.9967 H         1 UNK         0.0600 
    161 H161        3.5206  -15.9791  -44.9189 H         1 UNK         0.0600 
    162 H162        4.3207  -17.3722  -45.6431 H         1 UNK         0.0600 
    163 H163        4.7281  -16.8842  -44.0079 H         1 UNK         0.0600 
    164 H164        2.5585  -16.4453  -42.6556 H         1 UNK         0.3000 
    165 H165        0.1390  -17.8624  -40.4617 H         1 UNK         0.0600 
    166 H166        1.6983  -16.9648  -38.7616 H         1 UNK         0.0600 
    167 H167        2.3543  -18.4431  -39.4481 H         1 UNK         0.0600 
    168 H168        2.9994  -16.8832  -39.9483 H         1 UNK         0.0600 
    169 H169        1.1742  -15.2428  -40.5233 H         1 UNK         0.3000 
    170 H170       -0.9787  -13.8563  -42.9830 H         1 UNK         0.0600 
    171 H171       -2.4712  -14.1468  -41.0255 H         1 UNK         0.0600 
    172 H172       -1.1698  -13.6981  -39.9321 H         1 UNK         0.0600 
    173 H173       -1.8113  -12.5190  -41.0750 H         1 UNK         0.0600 
    174 H174        0.7488  -12.5625  -42.8048 H         1 UNK         0.3000 
    175 H175        2.9021  -11.4480  -40.2728 H         1 UNK         0.0600 
    176 H176        3.6681  -12.8844  -42.8754 H         1 UNK         0.0600 
    177 H177        4.6718  -11.7325  -41.9936 H         1 UNK         0.0600 
    178 H178        4.2773  -13.2850  -41.2738 H         1 UNK         0.0600 
    179 H179        2.5496  -10.6908  -43.0086 H         1 UNK         0.3000 
    180 H180       -0.4303   -8.9915  -42.8586 H         1 UNK         0.0600 
    181 H181        2.1798   -7.4105  -42.5693 H         1 UNK         0.0600 
    182 H182        0.7622   -7.2251  -41.5441 H         1 UNK         0.0600 
    183 H183        0.6667   -6.8042  -43.2449 H         1 UNK         0.0600 
    184 H184        1.5892   -8.5356  -44.7176 H         1 UNK         0.3000 
    185 H185        0.9094   -9.6077  -46.9030 H         1 UNK         0.0600 
    186 H186        3.2582   -9.4612  -46.0015 H         1 UNK         0.0600 
    187 H187        3.3343  -11.2165  -45.8807 H         1 UNK         0.0600 
    188 H188        3.2317  -10.4377  -47.4567 H         1 UNK         0.0600 
    189 H189        0.7160  -12.4394  -46.2982 H         1 UNK         0.3000 
    190 H190       -2.0546  -20.9076  -47.1126 H         1 UNK         0.3000 
    191 H191       -3.9563  -21.9760  -48.9360 H         1 UNK         0.0600 
    192 H192       -4.3313  -21.0510  -46.0434 H         1 UNK         0.0600 
    193 H193       -5.6208  -21.3071  -47.2128 H         1 UNK         0.0600 
    194 H194       -4.4393  -20.0338  -47.4787 H         1 UNK         0.0600 
    195 H195       -2.7597  -23.2513  -45.8050 H         1 UNK         0.3000 
    196 H196       -4.3741  -25.5919  -45.7588 H         1 UNK         0.0600 
    197 H197       -2.7006  -26.3842  -44.0826 H         1 UNK         0.0600 
    198 H198       -3.1876  -24.7257  -43.7646 H         1 UNK         0.0600 
    199 H199       -1.6263  -25.0578  -44.5101 H         1 UNK         0.0600 
    200 H200       -1.1488  -24.9750  -47.1943 H         1 UNK         0.3000 
    201 H201       -0.6707  -27.6456  -48.0885 H         1 UNK         0.0600 
    202 H202        1.1395  -25.9765  -47.8015 H         1 UNK         0.0600 
    203 H203        0.4683  -24.9851  -49.0942 H         1 UNK         0.0600 
    204 H204        1.1196  -26.5789  -49.4522 H         1 UNK         0.0600 
    205 H205       -2.0691  -24.7723  -49.7448 H         1 UNK         0.3000 
    206 H206       -2.4925  -26.0214  -52.2686 H         1 UNK         0.0600 
    207 H207       -2.4064  -23.5780  -52.0312 H         1 UNK         0.0600 
    208 H208       -3.9834  -24.0256  -52.6651 H         1 UNK         0.0600 
    209 H209       -3.8123  -23.5824  -50.9707 H         1 UNK         0.0600 
    210 H210       -4.6783  -25.4830  -49.4991 H         1 UNK         0.3000 
    211 H211       -6.4396  -26.4115  -48.6703 H         1 UNK         0.0600 
    212 H212       -5.8682  -28.8505  -50.4318 H         1 UNK         0.0600 
    213 H213       -6.9345  -28.8118  -49.0351 H         1 UNK         0.0600 
    214 H214       -5.2095  -28.5506  -48.8247 H         1 UNK         0.0600 
    215 H215       -6.5340  -27.0013  -52.1817 H         1 UNK         0.3000 
    216 H216       -9.4535  -26.8167  -52.3568 H         1 UNK         0.0600 
    217 H217       -9.0069  -27.2131  -54.7799 H         1 UNK         0.0600 
    218 H218       -8.1571  -28.3873  -53.7884 H         1 UNK         0.0600 
    219 H219       -7.2768  -27.0384  -54.5063 H         1 UNK         0.0600 
    220 H220       -6.9647  -24.4932  -52.1877 H         1 UNK         0.3000 
    221 H221       -8.7086  -22.3478  -53.1786 H         1 UNK         0.0600 
    222 H222       -5.8112  -22.7595  -54.1380 H         1 UNK         0.0600 
    223 H223       -7.2484  -22.9080  -55.1493 H         1 UNK         0.0600 
    224 H224       -6.8047  -21.3481  -54.4724 H         1 UNK         0.0600 
    225 H225       -8.1019  -20.3122  -52.2850 H         1 UNK         0.3000 
    226 H226       -6.9154  -20.4248  -49.6188 H         1 UNK         0.0600 
    227 H227       -8.9872  -19.1373  -50.0200 H         1 UNK         0.0600 
    228 H228       -7.6907  -18.0575  -49.5330 H         1 UNK         0.0600 
    229 H229       -8.1747  -18.1371  -51.2233 H         1 UNK         0.0600 
    230 H230       -4.8914  -21.1922  -50.7064 H         1 UNK         0.3000 
    231 H231       -2.7034  -20.9874  -51.0015 H         1 UNK         0.0600 
    232 H232       -1.4676  -18.9250  -50.4056 H         1 UNK         0.0600 
    233 H233       -2.7078  -19.2304  -49.2104 H         1 UNK         0.0600 
    234 H234       -2.9461  -17.9824  -50.4210 H         1 UNK         0.0600 
    235 H235       -1.3838  -18.6232  -52.2877 H         1 UNK         0.3000 
    236 H236       -0.6049  -18.0311  -54.2816 H         1 UNK         0.0600 
    237 H237       -3.5383  -18.0612  -55.1281 H         1 UNK         0.0600 
    238 H238       -2.6891  -16.7249  -54.3555 H         1 UNK         0.0600 
    239 H239       -2.2263  -17.2449  -55.9677 H         1 UNK         0.0600 
    240 H240       -0.0781  -21.4060  -55.6268 H         1 UNK         0.3000 
    241 H241        0.5141  -19.7812  -53.2218 H         1 UNK         0.0600 
    242 H242        1.6872  -22.7786  -51.6371 H         1 UNK         0.3800 
    243 H243        1.9492  -21.0603  -51.6512 H         1 UNK         0.3800 
    244 H244        2.9568  -20.0275  -53.7565 H         1 UNK         0.0800 
    245 H245        2.5545  -20.7135  -55.3038 H         1 UNK         0.0800 
    246 H246        3.1375  -16.3311  -54.4297 H         1 UNK         0.0800 
    247 H247        3.9980  -17.7366  -53.8578 H         1 UNK         0.0800 
@<TRIPOS>BOND
     1    1    2 1    
     2    1  127 1    
     3    1  128 1    
     4    1  129 1    
     5    2    3 2    
     6    2    4 am   BACKBONE|DICT|INTERRES
     7    4    5 1    
     8    4  130 1    
     9    5    6 1    
    10    5   65 1    
    11    5  131 1    
    12    6    7 1    
    13    6  132 1    
    14    6  133 1    
    15    7    8 1    
    16    8    9 1    
    17    8  134 1    
    18    8  135 1    
    19    9   10 ar   
    20    9   14 ar   
    21   10   11 ar   
    22   10  136 1    
    23   11   12 ar   
    24   11  126 1    
    25   12   13 ar   
    26   12  137 1    
    27   13   14 ar   
    28   13   15 1    
    29   14  138 1    
    30   15   16 1    
    31   15  139 1    
    32   15  140 1    
    33   16   17 1    
    34   17   18 1    
    35   17  141 1    
    36   17  142 1    
    37   18   19 1    
    38   18   67 1    
    39   18  143 1    
    40   19   20 am   BACKBONE|DICT|INTERRES
    41   19  144 1    
    42   20   21 2    
    43   20   22 1    
    44   22   23 1    
    45   22   24 1    
    46   22  145 1    
    47   23  146 1    
    48   23  147 1    
    49   23  148 1    
    50   24   25 am   BACKBONE|DICT|INTERRES
    51   24  149 1    
    52   25   26 2    
    53   25   27 1    
    54   27   28 1    
    55   27   29 1    
    56   27  150 1    
    57   28  151 1    
    58   28  152 1    
    59   28  153 1    
    60   29   30 am   BACKBONE|DICT|INTERRES
    61   29  154 1    
    62   30   31 2    
    63   30   32 1    
    64   32   33 1    
    65   32   34 1    
    66   32  155 1    
    67   33  156 1    
    68   33  157 1    
    69   33  158 1    
    70   34   35 am   BACKBONE|DICT|INTERRES
    71   34  159 1    
    72   35   36 2    
    73   35   37 1    
    74   37   38 1    
    75   37   39 1    
    76   37  160 1    
    77   38  161 1    
    78   38  162 1    
    79   38  163 1    
    80   39   40 am   BACKBONE|DICT|INTERRES
    81   39  164 1    
    82   40   41 2    
    83   40   42 1    
    84   42   43 1    
    85   42   44 1    
    86   42  165 1    
    87   43  166 1    
    88   43  167 1    
    89   43  168 1    
    90   44   45 am   BACKBONE|DICT|INTERRES
    91   44  169 1    
    92   45   46 2    
    93   45   47 1    
    94   47   48 1    
    95   47   49 1    
    96   47  170 1    
    97   48  171 1    
    98   48  172 1    
    99   48  173 1    
   100   49   50 am   BACKBONE|DICT|INTERRES
   101   49  174 1    
   102   50   51 2    
   103   50   52 1    
   104   52   53 1    
   105   52   54 1    
   106   52  175 1    
   107   53  176 1    
   108   53  177 1    
   109   53  178 1    
   110   54   55 am   BACKBONE|DICT|INTERRES
   111   54  179 1    
   112   55   56 2    
   113   55   57 1    
   114   57   58 1    
   115   57   59 1    
   116   57  180 1    
   117   58  181 1    
   118   58  182 1    
   119   58  183 1    
   120   59   60 am   BACKBONE|DICT|INTERRES
   121   59  184 1    
   122   60   61 2    
   123   60   62 1    
   124   62   63 1    
   125   62   64 1    
   126   62  185 1    
   127   63  186 1    
   128   63  187 1    
   129   63  188 1    
   130   64   65 am   BACKBONE|DICT|INTERRES
   131   64  189 1    
   132   65   66 2    
   133   67   68 2    
   134   67   69 am   BACKBONE|DICT|INTERRES
   135   69   70 1    
   136   69  190 1    
   137   70   71 1    
   138   70   72 1    
   139   70  191 1    
   140   71  192 1    
   141   71  193 1    
   142   71  194 1    
   143   72   73 2    
   144   72   74 am   BACKBONE|DICT|INTERRES
   145   74   75 1    
   146   74  195 1    
   147   75   76 1    
   148   75   77 1    
   149   75  196 1    
   150   76  197 1    
   151   76  198 1    
   152   76  199 1    
   153   77   78 2    
   154   77   79 am   BACKBONE|DICT|INTERRES
   155   79   80 1    
   156   79  200 1    
   157   80   81 1    
   158   80   82 1    
   159   80  201 1    
   160   81  202 1    
   161   81  203 1    
   162   81  204 1    
   163   82   83 2    
   164   82   84 am   BACKBONE|DICT|INTERRES
   165   84   85 1    
   166   84  205 1    
   167   85   86 1    
   168   85   87 1    
   169   85  206 1    
   170   86  207 1    
   171   86  208 1    
   172   86  209 1    
   173   87   88 2    
   174   87   89 am   BACKBONE|DICT|INTERRES
   175   89   90 1    
   176   89  210 1    
   177   90   91 1    
   178   90   92 1    
   179   90  211 1    
   180   91  212 1    
   181   91  213 1    
   182   91  214 1    
   183   92   93 2    
   184   92   94 am   BACKBONE|DICT|INTERRES
   185   94   95 1    
   186   94  215 1    
   187   95   96 1    
   188   95   97 1    
   189   95  216 1    
   190   96  217 1    
   191   96  218 1    
   192   96  219 1    
   193   97   98 2    
   194   97   99 am   BACKBONE|DICT|INTERRES
   195   99  100 1    
   196   99  220 1    
   197  100  101 1    
   198  100  102 1    
   199  100  221 1    
   200  101  222 1    
   201  101  223 1    
   202  101  224 1    
   203  102  103 2    
   204  102  104 am   BACKBONE|DICT|INTERRES
   205  104  105 1    
   206  104  225 1    
   207  105  106 1    
   208  105  107 1    
   209  105  226 1    
   210  106  227 1    
   211  106  228 1    
   212  106  229 1    
   213  107  108 2    
   214  107  109 am   BACKBONE|DICT|INTERRES
   215  109  110 1    
   216  109  230 1    
   217  110  111 1    
   218  110  112 1    
   219  110  231 1    
   220  111  232 1    
   221  111  233 1    
   222  111  234 1    
   223  112  113 2    
   224  112  114 am   BACKBONE|DICT|INTERRES
   225  114  115 1    
   226  114  235 1    
   227  115  116 1    
   228  115  117 1    
   229  115  236 1    
   230  116  237 1    
   231  116  238 1    
   232  116  239 1    
   233  117  118 2    
   234  117  119 am   BACKBONE|DICT|INTERRES
   235  119  120 1    
   236  119  240 1    
   237  120  121 1    
   238  120  124 1    
   239  120  241 1    
   240  121  122 am   BACKBONE|DICT|INTERRES
   241  121  123 2    
   242  122  242 1    
   243  122  243 1    
   244  124  125 1    
   245  124  244 1    
   246  124  245 1    
   247  125  126 1    
   248  126  246 1    
   249  126  247 1    
@<TRIPOS>SUBSTRUCTURE
     1 UNK         1 GROUP             0       ****    0 ROOT    
