@<TRIPOS>MOLECULE
3R540
247   249    1
SMALL
USER_CHARGES


@<TRIPOS>ATOM
      1 CA          0.4444  -16.3433  -48.9067 C.3       0 UNK        -0.1800 
      2 C           1.3092  -15.1527  -49.2931 C.2       0 UNK         0.5000 
      3 O           0.9205  -14.3568  -50.1471 O.2       0 UNK        -0.5000 
      4 N           2.4739  -15.0169  -48.6557 N.am      1 UNK        -0.5000 
      5 CA          3.4514  -13.9569  -48.8911 C.3       1 UNK         0.1400 
      6 C6          4.4536  -14.3232  -50.0170 C.3       23 UNK        -0.0398 
      7 S7          5.4105  -15.8530  -49.7122 S.3       23 UNK        -0.2404 
      8 C8          5.2320  -16.7369  -51.2938 C.3       23 UNK        -0.0205 
      9 C9          3.8931  -17.4502  -51.4271 C.ar      23 UNK        -0.0193 
     10 C10         2.9006  -16.9506  -52.2756 C.ar      23 UNK        -0.1150 
     11 C11         1.7020  -17.6491  -52.4602 C.ar      23 UNK        -0.0193 
     12 C12         1.4943  -18.8502  -51.7736 C.ar      23 UNK        -0.1150 
     13 C13         2.4757  -19.3548  -50.9156 C.ar      23 UNK        -0.0193 
     14 C14         3.6712  -18.6503  -50.7467 C.ar      23 UNK        -0.1150 
     15 C15         2.2654  -20.6752  -50.1923 C.3       23 UNK        -0.0205 
     16 S16         1.5795  -20.4098  -48.5279 S.3       23 UNK        -0.2404 
     17 C17        -0.0818  -21.1611  -48.6411 C.3       23 UNK        -0.0398 
     18 CA         -0.2274  -22.3557  -47.6696 C.3       11 UNK         0.1400 
     19 N          -0.2441  -21.9241  -46.2696 N.am      11 UNK        -0.5000 
     20 C          -0.2014  -22.7325  -45.2033 C.2       10 UNK         0.5000 
     21 O          -0.0953  -23.9554  -45.2769 O.2       10 UNK        -0.5000 
     22 CA         -0.3717  -22.0666  -43.8258 C.3       10 UNK         0.1400 
     23 CB          0.9394  -21.4203  -43.3538 C.3       10 UNK        -0.1800 
     24 N          -1.4472  -21.0727  -43.8257 N.am      10 UNK        -0.5000 
     25 C          -2.7439  -21.3691  -43.9942 C.2       9 UNK         0.5000 
     26 O          -3.1673  -22.5179  -44.1174 O.2       9 UNK        -0.5000 
     27 CA         -3.7279  -20.1899  -44.0764 C.3       9 UNK         0.1400 
     28 CB         -4.1565  -19.7363  -42.6733 C.3       9 UNK        -0.1800 
     29 N          -3.1615  -19.0572  -44.8050 N.am      9 UNK        -0.5000 
     30 C          -3.0241  -19.0073  -46.1377 C.2       8 UNK         0.5000 
     31 O          -3.4131  -19.8890  -46.9056 O.2       8 UNK        -0.5000 
     32 CA         -2.2991  -17.7748  -46.7081 C.3       8 UNK         0.1400 
     33 CB         -3.3010  -16.6396  -46.9682 C.3       8 UNK        -0.1800 
     34 N          -1.2069  -17.2867  -45.8617 N.am      8 UNK        -0.5000 
     35 C          -0.1380  -18.0183  -45.5143 C.2       7 UNK         0.5000 
     36 O           0.0284  -19.1816  -45.8676 O.2       7 UNK        -0.5000 
     37 CA          0.8951  -17.3821  -44.5717 C.3       7 UNK         0.1400 
     38 CB          1.9678  -16.6315  -45.3687 C.3       7 UNK        -0.1800 
     39 N           0.3061  -16.4927  -43.5735 N.am      7 UNK        -0.5000 
     40 C          -0.5620  -16.8743  -42.6259 C.2       6 UNK         0.5000 
     41 O          -1.0072  -18.0188  -42.5251 O.2       6 UNK        -0.5000 
     42 CA         -1.0199  -15.7863  -41.6430 C.3       6 UNK         0.1400 
     43 CB          0.0605  -15.5215  -40.5824 C.3       6 UNK        -0.1800 
     44 N          -1.3187  -14.5433  -42.3511 N.am      6 UNK        -0.5000 
     45 C          -2.5205  -14.2322  -42.8543 C.2       5 UNK         0.5000 
     46 O          -3.5261  -14.9270  -42.7049 O.2       5 UNK        -0.5000 
     47 CA         -2.6180  -12.9309  -43.6757 C.3       5 UNK         0.1400 
     48 CB         -2.9888  -11.7482  -42.7682 C.3       5 UNK        -0.1800 
     49 N          -1.3937  -12.6048  -44.4108 N.am      5 UNK        -0.5000 
     50 C          -0.8821  -13.3474  -45.4016 C.2       4 UNK         0.5000 
     51 O          -1.3820  -14.3976  -45.7987 O.2       4 UNK        -0.5000 
     52 CA          0.4366  -12.8638  -46.0259 C.3       4 UNK         0.1400 
     53 CB          0.1690  -11.8694  -47.1641 C.3       4 UNK        -0.1800 
     54 N           1.3920  -12.2758  -45.0847 N.am      4 UNK        -0.5000 
     55 C           1.8589  -12.8382  -43.9610 C.2       3 UNK         0.5000 
     56 O           1.3905  -13.8629  -43.4611 O.2       3 UNK        -0.5000 
     57 CA          3.0933  -12.1576  -43.3315 C.3       3 UNK         0.1400 
     58 CB          3.5056  -12.8030  -41.9964 C.3       3 UNK        -0.1800 
     59 N           4.2270  -12.2192  -44.2572 N.am      3 UNK        -0.5000 
     60 C           4.3874  -11.4382  -45.3331 C.2       2 UNK         0.5000 
     61 O           3.6648  -10.4705  -45.5806 O.2       2 UNK        -0.5000 
     62 CA          5.4690  -11.8401  -46.3543 C.3       2 UNK         0.1400 
     63 CB          6.5987  -12.7211  -45.7737 C.3       2 UNK        -0.1800 
     64 N           4.8466  -12.4647  -47.5292 N.am      2 UNK        -0.5000 
     65 C           4.1342  -13.6028  -47.5557 C.2       1 UNK         0.5000 
     66 O           3.9893  -14.3472  -46.5823 O.2       1 UNK        -0.5000 
     67 C          -1.4593  -23.2128  -48.0214 C.2       11 UNK         0.5000 
     68 O          -1.3112  -24.1951  -48.7489 O.2       11 UNK        -0.5000 
     69 N          -2.6323  -22.8673  -47.4699 N.am      12 UNK        -0.5000 
     70 CA         -3.8574  -23.6571  -47.5943 C.3       12 UNK         0.1400 
     71 CB         -5.0577  -22.8529  -47.0791 C.3       12 UNK        -0.1800 
     72 C          -3.7570  -25.0134  -46.8754 C.2       12 UNK         0.5000 
     73 O          -4.1076  -26.0357  -47.4642 O.2       12 UNK        -0.5000 
     74 N          -3.2480  -25.0063  -45.6347 N.am      13 UNK        -0.5000 
     75 CA         -3.0276  -26.2007  -44.8141 C.3       13 UNK         0.1400 
     76 CB         -2.6226  -25.7786  -43.3938 C.3       13 UNK        -0.1800 
     77 C          -1.9869  -27.1643  -45.4160 C.2       13 UNK         0.5000 
     78 O          -2.1785  -28.3796  -45.3624 O.2       13 UNK        -0.5000 
     79 N          -0.9246  -26.6035  -46.0084 N.am      14 UNK        -0.5000 
     80 CA          0.1145  -27.3310  -46.7395 C.3       14 UNK         0.1400 
     81 CB          1.3385  -26.4138  -46.8934 C.3       14 UNK        -0.1800 
     82 C          -0.3419  -27.8360  -48.1238 C.2       14 UNK         0.5000 
     83 O           0.3554  -28.6602  -48.7165 O.2       14 UNK        -0.5000 
     84 N          -1.4745  -27.3164  -48.6227 N.am      15 UNK        -0.5000 
     85 CA         -2.0409  -27.5193  -49.9605 C.3       15 UNK         0.1400 
     86 CB         -2.4817  -28.9838  -50.1626 C.3       15 UNK        -0.1800 
     87 C          -1.1164  -26.9984  -51.0828 C.2       15 UNK         0.5000 
     88 O          -1.0832  -27.5633  -52.1775 O.2       15 UNK        -0.5000 
     89 N          -0.3850  -25.9165  -50.7861 N.am      16 UNK        -0.5000 
     90 CA          0.4942  -25.2085  -51.7150 C.3       16 UNK         0.1400 
     91 CB          1.5439  -24.4320  -50.9046 C.3       16 UNK        -0.1800 
     92 C          -0.2907  -24.2581  -52.6382 C.2       16 UNK         0.5000 
     93 O           0.1777  -23.9497  -53.7345 O.2       16 UNK        -0.5000 
     94 N          -1.4711  -23.8253  -52.1846 N.am      17 UNK        -0.5000 
     95 CA         -2.4260  -22.9953  -52.9049 C.3       17 UNK         0.1400 
     96 CB         -2.0243  -21.5148  -52.7790 C.3       17 UNK        -0.1800 
     97 C          -3.8179  -23.2388  -52.3061 C.2       17 UNK         0.5000 
     98 O          -3.9238  -23.7898  -51.2072 O.2       17 UNK        -0.5000 
     99 N          -4.8613  -22.8035  -53.0210 N.am      18 UNK        -0.5000 
    100 CA        -6.2186  -22.7016  -52.4851 C.3       18 UNK         0.1400 
    101 CB        -7.2161  -22.5813  -53.6470 C.3       18 UNK        -0.1800 
    102 C         -6.3137  -21.4735  -51.5650 C.2       18 UNK         0.5000 
    103 O         -5.7142  -20.4430  -51.8814 O.2       18 UNK        -0.5000 
    104 N         -7.0777  -21.5870  -50.4702 N.am      19 UNK        -0.5000 
    105 CA        -7.2032  -20.5666  -49.4222 C.3       19 UNK         0.1400 
    106 CB        -8.1621  -21.0670  -48.3307 C.3       19 UNK        -0.1800 
    107 C         -7.6489  -19.1871  -49.9374 C.2       19 UNK         0.5000 
    108 O         -7.0560  -18.1757  -49.5609 O.2       19 UNK        -0.5000 
    109 N         -8.6477  -19.1853  -50.8290 N.am      20 UNK        -0.5000 
    110 CA        -9.1875  -17.9850  -51.4681 C.3       20 UNK         0.1400 
    111 CB       -10.5390  -18.3341  -52.1108 C.3       20 UNK        -0.1800 
    112 C         -8.2415  -17.3605  -52.5131 C.2       20 UNK         0.5000 
    113 O         -8.3870  -16.1757  -52.8173 O.2       20 UNK        -0.5000 
    114 N         -7.3095  -18.1567  -53.0541 N.am      21 UNK        -0.5000 
    115 CA        -6.3347  -17.7211  -54.0497 C.3       21 UNK         0.1400 
    116 CB        -5.9968  -18.8904  -54.9900 C.3       21 UNK        -0.1800 
    117 C         -5.0659  -17.1701  -53.3828 C.2       21 UNK         0.5000 
    118 O         -4.6310  -16.0712  -53.7291 O.2       21 UNK        -0.5000 
    119 N         -4.4880  -17.9430  -52.4550 N.am      22 UNK        -0.5000 
    120 CA        -3.2013  -17.6501  -51.8086 C.3       22 UNK         0.1400 
    121 C         -2.9981  -18.4527  -50.4916 C.2       22 UNK         0.5000 
    122 N         -4.0434  -18.7507  -49.7300 N.am      22 UNK        -0.7600 
    123 O         -1.8817  -18.8215  -50.1474 O.2       22 UNK        -0.5000 
    124 C124       -2.0039  -17.7655  -52.8033 C.3       23 UNK        -0.0398 
    125 S125       -0.7914  -16.4179  -52.6077 S.3       23 UNK        -0.2404 
    126 C126        0.6616  -17.1276  -53.4424 C.3       23 UNK        -0.0205 
    127 H127        0.1674  -16.9130  -49.7930 H         1 UNK         0.0600 
    128 H128       -0.4685  -16.0003  -48.4212 H         1 UNK         0.0600 
    129 H129        0.9632  -17.0215  -48.2294 H         1 UNK         0.0600 
    130 H130        2.7435  -15.6568  -47.9201 H         1 UNK         0.3000 
    131 H131        2.9153  -13.0556  -49.1960 H         1 UNK         0.0600 
    132 H132        3.9046  -14.4250  -50.9537 H         1 UNK         0.0800 
    133 H133        5.1586  -13.5078  -50.1840 H         1 UNK         0.0800 
    134 H134        5.3889  -16.0436  -52.1217 H         1 UNK         0.0800 
    135 H135        6.0320  -17.4749  -51.3680 H         1 UNK         0.0800 
    136 H136        3.0716  -16.0288  -52.8134 H         1 UNK         0.1150 
    137 H137        0.5721  -19.3966  -51.9089 H         1 UNK         0.1150 
    138 H138        4.4375  -19.0433  -50.0932 H         1 UNK         0.1150 
    139 H139        1.6287  -21.3293  -50.7879 H         1 UNK         0.0800 
    140 H140        3.2184  -21.1974  -50.0959 H         1 UNK         0.0800 
    141 H141       -0.2853  -21.4578  -49.6710 H         1 UNK         0.0800 
    142 H142       -0.8193  -20.3942  -48.4010 H         1 UNK         0.0800 
    143 H143        0.6432  -23.0028  -47.7957 H         1 UNK         0.0600 
    144 H144       -0.2632  -20.9162  -46.1150 H         1 UNK         0.3000 
    145 H145       -0.6385  -22.8464  -43.1094 H         1 UNK         0.0600 
    146 H146        0.8203  -20.9521  -42.3765 H         1 UNK         0.0600 
    147 H147        1.7279  -22.1683  -43.2636 H         1 UNK         0.0600 
    148 H148        1.2920  -20.6597  -44.0496 H         1 UNK         0.0600 
    149 H149       -1.1765  -20.1021  -43.7402 H         1 UNK         0.3000 
    150 H150       -4.6188  -20.5327  -44.6071 H         1 UNK         0.0600 
    151 H151       -4.6189  -20.5574  -42.1240 H         1 UNK         0.0600 
    152 H152       -4.8864  -18.9284  -42.7260 H         1 UNK         0.0600 
    153 H153       -3.3092  -19.3845  -42.0841 H         1 UNK         0.0600 
    154 H154       -2.7738  -18.3065  -44.2502 H         1 UNK         0.3000 
    155 H155       -1.8589  -18.0710  -47.6602 H         1 UNK         0.0600 
    156 H156       -3.6693  -16.2079  -46.0367 H         1 UNK         0.0600 
    157 H157       -2.8455  -15.8404  -47.5524 H         1 UNK         0.0600 
    158 H158       -4.1662  -16.9932  -47.5301 H         1 UNK         0.0600 
    159 H159       -1.2586  -16.3131  -45.5749 H         1 UNK         0.3000 
    160 H160        1.3878  -18.1922  -44.0307 H         1 UNK         0.0600 
    161 H161        2.7335  -16.2160  -44.7132 H         1 UNK         0.0600 
    162 H162        1.5356  -15.8117  -45.9381 H         1 UNK         0.0600 
    163 H163        2.4677  -17.2960  -46.0746 H         1 UNK         0.0600 
    164 H164        0.6407  -15.5319  -43.5706 H         1 UNK         0.3000 
    165 H165       -1.9136  -16.1474  -41.1296 H         1 UNK         0.0600 
    166 H166       -0.2765  -14.7830  -39.8550 H         1 UNK         0.0600 
    167 H167        0.2991  -16.4335  -40.0338 H         1 UNK         0.0600 
    168 H168        0.9862  -15.1538  -41.0269 H         1 UNK         0.0600 
    169 H169       -0.5275  -13.9531  -42.5787 H         1 UNK         0.3000 
    170 H170       -3.4187  -13.0650  -44.4061 H         1 UNK         0.0600 
    171 H171       -2.2099  -11.5464  -42.0318 H         1 UNK         0.0600 
    172 H172       -3.1469  -10.8392  -43.3489 H         1 UNK         0.0600 
    173 H173       -3.9121  -11.9487  -42.2231 H         1 UNK         0.0600 
    174 H174       -0.9034  -11.7661  -44.1367 H         1 UNK         0.3000 
    175 H175        0.9232  -13.7343  -46.4642 H         1 UNK         0.0600 
    176 H176        1.0903  -11.6121  -47.6871 H         1 UNK         0.0600 
    177 H177       -0.2783  -10.9458  -46.7951 H         1 UNK         0.0600 
    178 H178       -0.5121  -12.2953  -47.9026 H         1 UNK         0.0600 
    179 H179        1.8757  -11.4439  -45.4054 H         1 UNK         0.3000 
    180 H180        2.8374  -11.1140  -43.1373 H         1 UNK         0.0600 
    181 H181        3.7824  -13.8506  -42.1225 H         1 UNK         0.0600 
    182 H182        2.6885  -12.7637  -41.2748 H         1 UNK         0.0600 
    183 H183        4.3551  -12.2830  -41.5534 H         1 UNK         0.0600 
    184 H184        4.8151  -13.0367  -44.1818 H         1 UNK         0.3000 
    185 H185        5.9254  -10.9109  -46.6990 H         1 UNK         0.0600 
    186 H186        6.2464  -13.6957  -45.4361 H         1 UNK         0.0600 
    187 H187        7.3737  -12.8956  -46.5200 H         1 UNK         0.0600 
    188 H188        7.0758  -12.2312  -44.9240 H         1 UNK         0.0600 
    189 H189        4.8878  -11.9078  -48.3713 H         1 UNK         0.3000 
    190 H190       -2.6888  -22.0216  -46.9169 H         1 UNK         0.3000 
    191 H191       -4.0210  -23.8562  -48.6534 H         1 UNK         0.0600 
    192 H192       -5.1465  -21.9058  -47.6072 H         1 UNK         0.0600 
    193 H193       -5.9851  -23.4051  -47.2319 H         1 UNK         0.0600 
    194 H194       -4.9795  -22.6339  -46.0151 H         1 UNK         0.0600 
    195 H195       -3.0251  -24.1136  -45.2028 H         1 UNK         0.3000 
    196 H196       -3.9762  -26.7377  -44.7504 H         1 UNK         0.0600 
    197 H197       -2.4784  -26.6493  -42.7531 H         1 UNK         0.0600 
    198 H198       -3.3917  -25.1587  -42.9327 H         1 UNK         0.0600 
    199 H199       -1.6916  -25.2112  -43.3923 H         1 UNK         0.0600 
    200 H200       -0.8013  -25.5968  -45.9308 H         1 UNK         0.3000 
    201 H201        0.4086  -28.2021  -46.1505 H         1 UNK         0.0600 
    202 H202        1.7135  -26.0895  -45.9225 H         1 UNK         0.0600 
    203 H203        1.0998  -25.5225  -47.4750 H         1 UNK         0.0600 
    204 H204        2.1552  -26.9284  -47.4013 H         1 UNK         0.0600 
    205 H205       -1.9706  -26.6464  -48.0491 H         1 UNK         0.3000 
    206 H206       -2.9374  -26.8988  -50.0015 H         1 UNK         0.0600 
    207 H207       -3.1322  -29.3136  -49.3526 H         1 UNK         0.0600 
    208 H208       -3.0396  -29.0982  -51.0926 H         1 UNK         0.0600 
    209 H209       -1.6301  -29.6629  -50.2081 H         1 UNK         0.0600 
    210 H210       -0.5436  -25.4688  -49.8866 H         1 UNK         0.3000 
    211 H211        1.0123  -25.9368  -52.3424 H         1 UNK         0.0600 
    212 H212        1.0801  -23.6962  -50.2478 H         1 UNK         0.0600 
    213 H213        2.2319  -23.8997  -51.5626 H         1 UNK         0.0600 
    214 H214        2.1389  -25.1036  -50.2854 H         1 UNK         0.0600 
    215 H215       -1.8079  -24.1514  -51.2856 H         1 UNK         0.3000 
    216 H216       -2.4453  -23.2892  -53.9563 H         1 UNK         0.0600 
    217 H217       -2.7360  -20.8680  -53.2935 H         1 UNK         0.0600 
    218 H218       -1.0427  -21.3299  -53.2155 H         1 UNK         0.0600 
    219 H219       -1.9905  -21.1994  -51.7353 H         1 UNK         0.0600 
    220 H220       -4.6926  -22.3335  -53.8979 H         1 UNK         0.3000 
    221 H221       -6.4515  -23.6027  -51.9135 H         1 UNK         0.0600 
    222 H222       -7.0328  -21.6917  -54.2501 H         1 UNK         0.0600 
    223 H223       -7.1596  -23.4486  -54.3049 H         1 UNK         0.0600 
    224 H224       -8.2406  -22.5210  -53.2775 H         1 UNK         0.0600 
    225 H225       -7.5531  -22.4610  -50.2987 H         1 UNK         0.3000 
    226 H226       -6.2164  -20.4376  -48.9765 H         1 UNK         0.0600 
    227 H227       -7.8210  -22.0074  -47.9001 H         1 UNK         0.0600 
    228 H228       -8.2345  -20.3460  -47.5152 H         1 UNK         0.0600 
    229 H229       -9.1688  -21.2253  -48.7194 H         1 UNK         0.0600 
    230 H230       -9.0608  -20.0678  -51.0931 H         1 UNK         0.3000 
    231 H231       -9.3616  -17.2341  -50.6944 H         1 UNK         0.0600 
    232 H232      -10.4314  -19.0934  -52.8865 H         1 UNK         0.0600 
    233 H233      -10.9914  -17.4554  -52.5725 H         1 UNK         0.0600 
    234 H234      -11.2445  -18.7083  -51.3687 H         1 UNK         0.0600 
    235 H235       -7.1988  -19.0950  -52.6936 H         1 UNK         0.3000 
    236 H236       -6.7680  -16.9257  -54.6602 H         1 UNK         0.0600 
    237 H237       -6.8917  -19.2702  -55.4831 H         1 UNK         0.0600 
    238 H238       -5.3060  -18.5714  -55.7714 H         1 UNK         0.0600 
    239 H239       -5.5277  -19.7200  -54.4611 H         1 UNK         0.0600 
    240 H240       -4.9073  -18.8399  -52.2131 H         1 UNK         0.3000 
    241 H241       -3.2673  -16.6133  -51.4739 H         1 UNK         0.0600 
    242 H242       -3.8813  -19.2769  -48.8815 H         1 UNK         0.3800 
    243 H243       -4.9764  -18.4320  -49.9550 H         1 UNK         0.3800 
    244 H244       -1.5040  -18.7292  -52.7142 H         1 UNK         0.0800 
    245 H245       -2.3444  -17.7212  -53.8380 H         1 UNK         0.0800 
    246 H246        0.3600  -17.9292  -54.1182 H         1 UNK         0.0800 
    247 H247        1.0989  -16.3549  -54.0765 H         1 UNK         0.0800 
@<TRIPOS>BOND
     1    1    2 1    
     2    1  127 1    
     3    1  128 1    
     4    1  129 1    
     5    2    3 2    
     6    2    4 am   BACKBONE|DICT|INTERRES
     7    4    5 1    
     8    4  130 1    
     9    5    6 1    
    10    5   65 1    
    11    5  131 1    
    12    6    7 1    
    13    6  132 1    
    14    6  133 1    
    15    7    8 1    
    16    8    9 1    
    17    8  134 1    
    18    8  135 1    
    19    9   10 ar   
    20    9   14 ar   
    21   10   11 ar   
    22   10  136 1    
    23   11   12 ar   
    24   11  126 1    
    25   12   13 ar   
    26   12  137 1    
    27   13   14 ar   
    28   13   15 1    
    29   14  138 1    
    30   15   16 1    
    31   15  139 1    
    32   15  140 1    
    33   16   17 1    
    34   17   18 1    
    35   17  141 1    
    36   17  142 1    
    37   18   19 1    
    38   18   67 1    
    39   18  143 1    
    40   19   20 am   BACKBONE|DICT|INTERRES
    41   19  144 1    
    42   20   21 2    
    43   20   22 1    
    44   22   23 1    
    45   22   24 1    
    46   22  145 1    
    47   23  146 1    
    48   23  147 1    
    49   23  148 1    
    50   24   25 am   BACKBONE|DICT|INTERRES
    51   24  149 1    
    52   25   26 2    
    53   25   27 1    
    54   27   28 1    
    55   27   29 1    
    56   27  150 1    
    57   28  151 1    
    58   28  152 1    
    59   28  153 1    
    60   29   30 am   BACKBONE|DICT|INTERRES
    61   29  154 1    
    62   30   31 2    
    63   30   32 1    
    64   32   33 1    
    65   32   34 1    
    66   32  155 1    
    67   33  156 1    
    68   33  157 1    
    69   33  158 1    
    70   34   35 am   BACKBONE|DICT|INTERRES
    71   34  159 1    
    72   35   36 2    
    73   35   37 1    
    74   37   38 1    
    75   37   39 1    
    76   37  160 1    
    77   38  161 1    
    78   38  162 1    
    79   38  163 1    
    80   39   40 am   BACKBONE|DICT|INTERRES
    81   39  164 1    
    82   40   41 2    
    83   40   42 1    
    84   42   43 1    
    85   42   44 1    
    86   42  165 1    
    87   43  166 1    
    88   43  167 1    
    89   43  168 1    
    90   44   45 am   BACKBONE|DICT|INTERRES
    91   44  169 1    
    92   45   46 2    
    93   45   47 1    
    94   47   48 1    
    95   47   49 1    
    96   47  170 1    
    97   48  171 1    
    98   48  172 1    
    99   48  173 1    
   100   49   50 am   BACKBONE|DICT|INTERRES
   101   49  174 1    
   102   50   51 2    
   103   50   52 1    
   104   52   53 1    
   105   52   54 1    
   106   52  175 1    
   107   53  176 1    
   108   53  177 1    
   109   53  178 1    
   110   54   55 am   BACKBONE|DICT|INTERRES
   111   54  179 1    
   112   55   56 2    
   113   55   57 1    
   114   57   58 1    
   115   57   59 1    
   116   57  180 1    
   117   58  181 1    
   118   58  182 1    
   119   58  183 1    
   120   59   60 am   BACKBONE|DICT|INTERRES
   121   59  184 1    
   122   60   61 2    
   123   60   62 1    
   124   62   63 1    
   125   62   64 1    
   126   62  185 1    
   127   63  186 1    
   128   63  187 1    
   129   63  188 1    
   130   64   65 am   BACKBONE|DICT|INTERRES
   131   64  189 1    
   132   65   66 2    
   133   67   68 2    
   134   67   69 am   BACKBONE|DICT|INTERRES
   135   69   70 1    
   136   69  190 1    
   137   70   71 1    
   138   70   72 1    
   139   70  191 1    
   140   71  192 1    
   141   71  193 1    
   142   71  194 1    
   143   72   73 2    
   144   72   74 am   BACKBONE|DICT|INTERRES
   145   74   75 1    
   146   74  195 1    
   147   75   76 1    
   148   75   77 1    
   149   75  196 1    
   150   76  197 1    
   151   76  198 1    
   152   76  199 1    
   153   77   78 2    
   154   77   79 am   BACKBONE|DICT|INTERRES
   155   79   80 1    
   156   79  200 1    
   157   80   81 1    
   158   80   82 1    
   159   80  201 1    
   160   81  202 1    
   161   81  203 1    
   162   81  204 1    
   163   82   83 2    
   164   82   84 am   BACKBONE|DICT|INTERRES
   165   84   85 1    
   166   84  205 1    
   167   85   86 1    
   168   85   87 1    
   169   85  206 1    
   170   86  207 1    
   171   86  208 1    
   172   86  209 1    
   173   87   88 2    
   174   87   89 am   BACKBONE|DICT|INTERRES
   175   89   90 1    
   176   89  210 1    
   177   90   91 1    
   178   90   92 1    
   179   90  211 1    
   180   91  212 1    
   181   91  213 1    
   182   91  214 1    
   183   92   93 2    
   184   92   94 am   BACKBONE|DICT|INTERRES
   185   94   95 1    
   186   94  215 1    
   187   95   96 1    
   188   95   97 1    
   189   95  216 1    
   190   96  217 1    
   191   96  218 1    
   192   96  219 1    
   193   97   98 2    
   194   97   99 am   BACKBONE|DICT|INTERRES
   195   99  100 1    
   196   99  220 1    
   197  100  101 1    
   198  100  102 1    
   199  100  221 1    
   200  101  222 1    
   201  101  223 1    
   202  101  224 1    
   203  102  103 2    
   204  102  104 am   BACKBONE|DICT|INTERRES
   205  104  105 1    
   206  104  225 1    
   207  105  106 1    
   208  105  107 1    
   209  105  226 1    
   210  106  227 1    
   211  106  228 1    
   212  106  229 1    
   213  107  108 2    
   214  107  109 am   BACKBONE|DICT|INTERRES
   215  109  110 1    
   216  109  230 1    
   217  110  111 1    
   218  110  112 1    
   219  110  231 1    
   220  111  232 1    
   221  111  233 1    
   222  111  234 1    
   223  112  113 2    
   224  112  114 am   BACKBONE|DICT|INTERRES
   225  114  115 1    
   226  114  235 1    
   227  115  116 1    
   228  115  117 1    
   229  115  236 1    
   230  116  237 1    
   231  116  238 1    
   232  116  239 1    
   233  117  118 2    
   234  117  119 am   BACKBONE|DICT|INTERRES
   235  119  120 1    
   236  119  240 1    
   237  120  121 1    
   238  120  124 1    
   239  120  241 1    
   240  121  122 am   BACKBONE|DICT|INTERRES
   241  121  123 2    
   242  122  242 1    
   243  122  243 1    
   244  124  125 1    
   245  124  244 1    
   246  124  245 1    
   247  125  126 1    
   248  126  246 1    
   249  126  247 1    
@<TRIPOS>SUBSTRUCTURE
     1 UNK         1 GROUP             0       ****    0 ROOT    
