@<TRIPOS>MOLECULE
3R540
247   249    1
SMALL
USER_CHARGES


@<TRIPOS>ATOM
      1 CA          0.4597  -10.1043  -45.9583 C.3       0 UNK        -0.1800 
      2 C          -1.0207  -10.4112  -46.1818 C.2       0 UNK         0.5000 
      3 O          -1.8491   -9.5128  -46.0520 O.2       0 UNK        -0.5000 
      4 N          -1.4034  -11.6482  -46.5278 N.am      1 UNK        -0.5000 
      5 CA         -0.5398  -12.8293  -46.6600 C.3       1 UNK         0.1400 
      6 C6         -1.1704  -13.9362  -47.5415 C.3       23 UNK        -0.0398 
      7 S7         -1.6524  -13.3178  -49.1890 S.3       23 UNK        -0.2404 
      8 C8         -0.3031  -13.9389  -50.2441 C.3       23 UNK        -0.0205 
      9 C9         -0.5637  -15.3302  -50.8125 C.ar      23 UNK        -0.0193 
     10 C10        -1.7347  -15.5933  -51.5314 C.ar      23 UNK        -0.1150 
     11 C11        -1.9292  -16.8301  -52.1531 C.ar      23 UNK        -0.0193 
     12 C12        -0.9402  -17.8112  -52.0498 C.ar      23 UNK        -0.1150 
     13 C13         0.2298  -17.5711  -51.3231 C.ar      23 UNK        -0.0193 
     14 C14         0.4075  -16.3307  -50.7002 C.ar      23 UNK        -0.1150 
     15 C15         1.3331  -18.6223  -51.2652 C.3       23 UNK        -0.0205 
     16 S16         0.7477  -20.2709  -50.7529 S.3       23 UNK        -0.2404 
     17 C17         0.2811  -19.9660  -49.0200 C.3       23 UNK        -0.0398 
     18 CA         -1.0808  -20.5921  -48.6388 C.3       11 UNK         0.1400 
     19 N          -1.2028  -20.7713  -47.1898 N.am      11 UNK        -0.5000 
     20 C          -2.2212  -21.3765  -46.5652 C.2       10 UNK         0.5000 
     21 O          -3.1570  -21.9182  -47.1540 O.2       10 UNK        -0.5000 
     22 CA         -2.2145  -21.3402  -45.0267 C.3       10 UNK         0.1400 
     23 CB         -1.3617  -22.4847  -44.4612 C.3       10 UNK        -0.1800 
     24 N          -1.7432  -20.0623  -44.4888 N.am      10 UNK        -0.5000 
     25 C          -2.3616  -18.8858  -44.6713 C.2       9 UNK         0.5000 
     26 O          -3.4106  -18.7509  -45.2977 O.2       9 UNK        -0.5000 
     27 CA         -1.6545  -17.6411  -44.1104 C.3       9 UNK         0.1400 
     28 CB         -1.7623  -17.6123  -42.5739 C.3       9 UNK        -0.1800 
     29 N          -0.2540  -17.5822  -44.5368 N.am      9 UNK        -0.5000 
     30 C           0.1507  -17.5255  -45.8162 C.2       8 UNK         0.5000 
     31 O          -0.6182  -17.4078  -46.7705 O.2       8 UNK        -0.5000 
     32 CA          1.6572  -17.7015  -46.0860 C.3       8 UNK         0.1400 
     33 CB          2.3958  -16.3573  -46.0909 C.3       8 UNK        -0.1800 
     34 N           2.2921  -18.6090  -45.1306 N.am      8 UNK        -0.5000 
     35 C           2.0871  -19.9334  -45.0948 C.2       7 UNK         0.5000 
     36 O           1.3664  -20.5336  -45.8895 O.2       7 UNK        -0.5000 
     37 CA          2.7548  -20.7051  -43.9428 C.3       7 UNK         0.1400 
     38 CB          4.2311  -20.9866  -44.2594 C.3       7 UNK        -0.1800 
     39 N           2.6570  -19.9842  -42.6738 N.am      7 UNK        -0.5000 
     40 C           1.5055  -19.7295  -42.0355 C.2       6 UNK         0.5000 
     41 O           0.4147  -20.1634  -42.4057 O.2       6 UNK        -0.5000 
     42 CA          1.5834  -18.7880  -40.8163 C.3       6 UNK         0.1400 
     43 CB          1.7762  -19.5943  -39.5239 C.3       6 UNK        -0.1800 
     44 N           2.6571  -17.7947  -40.9357 N.am      6 UNK        -0.5000 
     45 C           2.6852  -16.8190  -41.8533 C.2       5 UNK         0.5000 
     46 O           1.7725  -16.6091  -42.6554 O.2       5 UNK        -0.5000 
     47 CA          3.9883  -16.0159  -41.9526 C.3       5 UNK         0.1400 
     48 CB          5.0408  -16.8396  -42.7262 C.3       5 UNK        -0.1800 
     49 N           3.7293  -14.7493  -42.6330 N.am      5 UNK        -0.5000 
     50 C           4.5998  -13.7390  -42.7595 C.2       4 UNK         0.5000 
     51 O           5.7357  -13.7469  -42.2832 O.2       4 UNK        -0.5000 
     52 CA          4.1188  -12.5004  -43.5339 C.3       4 UNK         0.1400 
     53 CB          4.1603  -12.7481  -45.0503 C.3       4 UNK        -0.1800 
     54 N           2.7723  -12.0976  -43.1296 N.am      4 UNK        -0.5000 
     55 C           2.5068  -11.4105  -42.0066 C.2       3 UNK         0.5000 
     56 O           3.3781  -11.0240  -41.2264 O.2       3 UNK        -0.5000 
     57 CA          1.0322  -11.0837  -41.6916 C.3       3 UNK         0.1400 
     58 CB          0.7153   -9.6201  -42.0361 C.3       3 UNK        -0.1800 
     59 N           0.0851  -11.9530  -42.3879 N.am      3 UNK        -0.5000 
     60 C          -0.1127  -13.2448  -42.0958 C.2       2 UNK         0.5000 
     61 O           0.4257  -13.8210  -41.1507 O.2       2 UNK        -0.5000 
     62 CA         -1.0473  -14.0318  -43.0322 C.3       2 UNK         0.1400 
     63 CB         -2.4440  -14.1762  -42.4094 C.3       2 UNK        -0.1800 
     64 N          -1.1801  -13.4665  -44.3777 N.am      2 UNK        -0.5000 
     65 C          -0.1839  -13.3906  -45.2718 C.2       1 UNK         0.5000 
     66 O           0.9808  -13.6847  -45.0133 O.2       1 UNK        -0.5000 
     67 C          -2.2688  -19.8077  -49.2338 C.2       11 UNK         0.5000 
     68 O          -2.8037  -20.2080  -50.2671 O.2       11 UNK        -0.5000 
     69 N          -2.6848  -18.7365  -48.5486 N.am      12 UNK        -0.5000 
     70 CA         -3.8176  -17.9106  -48.9465 C.3       12 UNK         0.1400 
     71 CB         -3.6675  -16.5198  -48.3181 C.3       12 UNK        -0.1800 
     72 C          -5.1735  -18.5406  -48.5840 C.2       12 UNK         0.5000 
     73 O          -6.0373  -18.6609  -49.4532 O.2       12 UNK        -0.5000 
     74 N          -5.3544  -18.8958  -47.3053 N.am      13 UNK        -0.5000 
     75 CA         -6.6533  -19.2584  -46.7357 C.3       13 UNK         0.1400 
     76 CB         -6.6292  -19.0068  -45.2199 C.3       13 UNK        -0.1800 
     77 C          -7.0798  -20.7064  -47.0221 C.2       13 UNK         0.5000 
     78 O          -8.2738  -20.9534  -47.1973 O.2       13 UNK        -0.5000 
     79 N          -6.1159  -21.6346  -47.0431 N.am      14 UNK        -0.5000 
     80 CA         -6.3526  -23.0736  -47.1890 C.3       14 UNK         0.1400 
     81 CB         -5.7521  -23.7988  -45.9706 C.3       14 UNK        -0.1800 
     82 C          -5.7725  -23.6273  -48.5012 C.2       14 UNK         0.5000 
     83 O          -5.7565  -24.8463  -48.6818 O.2       14 UNK        -0.5000 
     84 N          -5.2657  -22.7455  -49.3779 N.am      15 UNK        -0.5000 
     85 CA         -4.6005  -23.0608  -50.6485 C.3       15 UNK         0.1400 
     86 CB         -5.6194  -23.6516  -51.6468 C.3       15 UNK        -0.1800 
     87 C          -3.3512  -23.9522  -50.4633 C.2       15 UNK         0.5000 
     88 O          -3.0613  -24.7853  -51.3214 O.2       15 UNK        -0.5000 
     89 N          -2.6729  -23.8130  -49.3124 N.am      16 UNK        -0.5000 
     90 CA         -1.5741  -24.6565  -48.8217 C.3       16 UNK         0.1400 
     91 CB         -0.3157  -24.5002  -49.7020 C.3       16 UNK        -0.1800 
     92 C          -1.9902  -26.1341  -48.6376 C.2       16 UNK         0.5000 
     93 O          -1.1824  -27.0324  -48.8734 O.2       16 UNK        -0.5000 
     94 N          -3.2533  -26.3501  -48.2380 N.am      17 UNK        -0.5000 
     95 CA         -3.9615  -27.6335  -48.1802 C.3       17 UNK         0.1400 
     96 CB         -3.2942  -28.6170  -47.1952 C.3       17 UNK        -0.1800 
     97 C          -4.1813  -28.2148  -49.5926 C.2       17 UNK         0.5000 
     98 O          -3.9154  -29.3941  -49.8314 O.2       17 UNK        -0.5000 
     99 N          -4.6649  -27.3490  -50.4971 N.am      18 UNK        -0.5000 
    100 CA        -4.9384  -27.5922  -51.9183 C.3       18 UNK         0.1400 
    101 CB        -6.1255  -28.5638  -52.0835 C.3       18 UNK        -0.1800 
    102 C         -3.6835  -28.0200  -52.7101 C.2       18 UNK         0.5000 
    103 O         -3.7208  -29.0063  -53.4492 O.2       18 UNK        -0.5000 
    104 N         -2.5932  -27.2655  -52.5315 N.am      19 UNK        -0.5000 
    105 CA        -1.2937  -27.4941  -53.1663 C.3       19 UNK         0.1400 
    106 CB        -0.3202  -28.0545  -52.1169 C.3       19 UNK        -0.1800 
    107 C         -0.7118  -26.2279  -53.8248 C.2       19 UNK         0.5000 
    108 O          0.2646  -26.3457  -54.5671 O.2       19 UNK        -0.5000 
    109 N         -1.2920  -25.0513  -53.5588 N.am      20 UNK        -0.5000 
    110 CA        -0.8629  -23.7575  -54.0847 C.3       20 UNK         0.1400 
    111 CB        -0.1071  -22.9992  -52.9814 C.3       20 UNK        -0.1800 
    112 C         -2.0776  -22.9482  -54.5627 C.2       20 UNK         0.5000 
    113 O         -3.2201  -23.2997  -54.2626 O.2       20 UNK        -0.5000 
    114 N         -1.8029  -21.8634  -55.2902 N.am      21 UNK        -0.5000 
    115 CA        -2.7729  -20.9012  -55.7999 C.3       21 UNK         0.1400 
    116 CB        -3.4767  -21.4693  -57.0473 C.3       21 UNK        -0.1800 
    117 C         -2.0311  -19.5959  -56.1248 C.2       21 UNK         0.5000 
    118 O         -0.7979  -19.5937  -56.1919 O.2       21 UNK        -0.5000 
    119 N         -2.7907  -18.5170  -56.3323 N.am      22 UNK        -0.5000 
    120 CA        -2.2712  -17.1799  -56.6650 C.3       22 UNK         0.1400 
    121 C         -3.1181  -16.4181  -57.7271 C.2       22 UNK         0.5000 
    122 N         -4.0607  -17.0583  -58.4098 N.am      22 UNK        -0.7600 
    123 O         -2.9029  -15.2319  -57.9615 O.2       22 UNK        -0.5000 
    124 C124       -1.9535  -16.3452  -55.3954 C.3       23 UNK        -0.0398 
    125 S125       -3.4136  -15.9717  -54.3577 S.3       23 UNK        -0.2404 
    126 C126       -3.1988  -17.1073  -52.9479 C.3       23 UNK        -0.0205 
    127 H127        0.8881  -10.7340  -45.1804 H         1 UNK         0.0600 
    128 H128        0.5918   -9.0661  -45.6530 H         1 UNK         0.0600 
    129 H129        1.0252  -10.2517  -46.8783 H         1 UNK         0.0600 
    130 H130       -2.3813  -11.8075  -46.7234 H         1 UNK         0.3000 
    131 H131        0.3929  -12.5300  -47.1417 H         1 UNK         0.0600 
    132 H132       -0.4851  -14.7778  -47.6593 H         1 UNK         0.0800 
    133 H133       -2.0647  -14.3410  -47.0650 H         1 UNK         0.0800 
    134 H134       -0.1834  -13.2516  -51.0824 H         1 UNK         0.0800 
    135 H135        0.6372  -13.9064  -49.6917 H         1 UNK         0.0800 
    136 H136       -2.4866  -14.8232  -51.6317 H         1 UNK         0.1150 
    137 H137       -1.0767  -18.7651  -52.5400 H         1 UNK         0.1150 
    138 H138        1.3222  -16.1293  -50.1606 H         1 UNK         0.1150 
    139 H139        1.7799  -18.7063  -52.2566 H         1 UNK         0.0800 
    140 H140        2.1344  -18.3102  -50.5935 H         1 UNK         0.0800 
    141 H141        0.2908  -18.8970  -48.8061 H         1 UNK         0.0800 
    142 H142        1.0764  -20.4034  -48.4176 H         1 UNK         0.0800 
    143 H143       -1.1169  -21.5918  -49.0687 H         1 UNK         0.0600 
    144 H144       -0.4315  -20.4265  -46.6264 H         1 UNK         0.3000 
    145 H145       -3.2435  -21.4837  -44.6906 H         1 UNK         0.0600 
    146 H146       -1.4097  -22.5097  -43.3724 H         1 UNK         0.0600 
    147 H147       -1.7133  -23.4510  -44.8256 H         1 UNK         0.0600 
    148 H148       -0.3137  -22.3865  -44.7458 H         1 UNK         0.0600 
    149 H149       -0.8937  -20.0847  -43.9327 H         1 UNK         0.3000 
    150 H150       -2.1508  -16.7535  -44.5081 H         1 UNK         0.0600 
    151 H151       -2.7682  -17.3219  -42.2698 H         1 UNK         0.0600 
    152 H152       -1.0673  -16.9091  -42.1191 H         1 UNK         0.0600 
    153 H153       -1.5697  -18.5857  -42.1252 H         1 UNK         0.0600 
    154 H154        0.4523  -17.5934  -43.8094 H         1 UNK         0.3000 
    155 H155        1.7622  -18.1348  -47.0820 H         1 UNK         0.0600 
    156 H156        2.3917  -15.8921  -45.1065 H         1 UNK         0.0600 
    157 H157        1.9328  -15.6582  -46.7884 H         1 UNK         0.0600 
    158 H158        3.4350  -16.4795  -46.3957 H         1 UNK         0.0600 
    159 H159        2.8561  -18.1846  -44.4110 H         1 UNK         0.3000 
    160 H160        2.2373  -21.6608  -43.8347 H         1 UNK         0.0600 
    161 H161        4.8086  -20.0661  -44.3533 H         1 UNK         0.0600 
    162 H162        4.3305  -21.5340  -45.1978 H         1 UNK         0.0600 
    163 H163        4.6919  -21.5939  -43.4802 H         1 UNK         0.0600 
    164 H164        3.5126  -19.6109  -42.2919 H         1 UNK         0.3000 
    165 H165        0.6335  -18.2543  -40.7477 H         1 UNK         0.0600 
    166 H166        1.7603  -18.9451  -38.6482 H         1 UNK         0.0600 
    167 H167        0.9772  -20.3264  -39.3985 H         1 UNK         0.0600 
    168 H168        2.7222  -20.1371  -39.5235 H         1 UNK         0.0600 
    169 H169        3.4440  -17.9067  -40.3123 H         1 UNK         0.3000 
    170 H170        4.3465  -15.8068  -40.9427 H         1 UNK         0.0600 
    171 H171        5.1966  -17.8175  -42.2695 H         1 UNK         0.0600 
    172 H172        4.7398  -17.0033  -43.7616 H         1 UNK         0.0600 
    173 H173        6.0112  -16.3443  -42.7390 H         1 UNK         0.0600 
    174 H174        2.7982  -14.6680  -43.0239 H         1 UNK         0.3000 
    175 H175        4.8069  -11.6800  -43.3178 H         1 UNK         0.0600 
    176 H176        3.5585  -13.6087  -45.3411 H         1 UNK         0.0600 
    177 H177        3.7968  -11.8820  -45.6034 H         1 UNK         0.0600 
    178 H178        5.1810  -12.9419  -45.3816 H         1 UNK         0.0600 
    179 H179        2.0092  -12.4327  -43.7057 H         1 UNK         0.3000 
    180 H180        0.8908  -11.2161  -40.6168 H         1 UNK         0.0600 
    181 H181        0.8537   -9.4136  -43.0970 H         1 UNK         0.0600 
    182 H182        1.3666   -8.9408  -41.4845 H         1 UNK         0.0600 
    183 H183       -0.3120   -9.3656  -41.7746 H         1 UNK         0.0600 
    184 H184       -0.4161  -11.5553  -43.1675 H         1 UNK         0.3000 
    185 H185       -0.6037  -15.0198  -43.1484 H         1 UNK         0.0600 
    186 H186       -2.3866  -14.6406  -41.4240 H         1 UNK         0.0600 
    187 H187       -2.9310  -13.2079  -42.2880 H         1 UNK         0.0600 
    188 H188       -3.0901  -14.8019  -43.0251 H         1 UNK         0.0600 
    189 H189       -2.1013  -13.1528  -44.6465 H         1 UNK         0.3000 
    190 H190       -2.1758  -18.4503  -47.7192 H         1 UNK         0.3000 
    191 H191       -3.7910  -17.7848  -50.0299 H         1 UNK         0.0600 
    192 H192       -2.7491  -16.0499  -48.6656 H         1 UNK         0.0600 
    193 H193       -4.4952  -15.8672  -48.5980 H         1 UNK         0.0600 
    194 H194       -3.6293  -16.5650  -47.2290 H         1 UNK         0.0600 
    195 H195       -4.5863  -18.7907  -46.6431 H         1 UNK         0.3000 
    196 H196       -7.4120  -18.6011  -47.1663 H         1 UNK         0.0600 
    197 H197       -7.6073  -19.1975  -44.7766 H         1 UNK         0.0600 
    198 H198       -6.3657  -17.9731  -44.9950 H         1 UNK         0.0600 
    199 H199       -5.9098  -19.6531  -44.7157 H         1 UNK         0.0600 
    200 H200       -5.1479  -21.3559  -46.9259 H         1 UNK         0.3000 
    201 H201       -7.4220  -23.2908  -47.2107 H         1 UNK         0.0600 
    202 H202       -6.1646  -23.4097  -45.0397 H         1 UNK         0.0600 
    203 H203       -4.6683  -23.6927  -45.9254 H         1 UNK         0.0600 
    204 H204       -5.9743  -24.8662  -45.9992 H         1 UNK         0.0600 
    205 H205       -5.3006  -21.7668  -49.1304 H         1 UNK         0.3000 
    206 H206       -4.2471  -22.1215  -51.0706 H         1 UNK         0.0600 
    207 H207       -6.4537  -22.9679  -51.8026 H         1 UNK         0.0600 
    208 H208       -5.1656  -23.8289  -52.6210 H         1 UNK         0.0600 
    209 H209       -6.0287  -24.6007  -51.3026 H         1 UNK         0.0600 
    210 H210       -3.0024  -23.1107  -48.6548 H         1 UNK         0.3000 
    211 H211       -1.3271  -24.2848  -47.8263 H         1 UNK         0.0600 
    212 H212       -0.4648  -24.9184  -50.6970 H         1 UNK         0.0600 
    213 H213        0.5365  -25.0167  -49.2593 H         1 UNK         0.0600 
    214 H214       -0.0296  -23.4562  -49.8173 H         1 UNK         0.0600 
    215 H215       -3.8533  -25.5422  -48.1246 H         1 UNK         0.3000 
    216 H216       -4.9549  -27.4117  -47.7873 H         1 UNK         0.0600 
    217 H217       -3.9181  -29.4994  -47.0493 H         1 UNK         0.0600 
    218 H218       -3.1480  -28.1576  -46.2177 H         1 UNK         0.0600 
    219 H219       -2.3246  -28.9639  -47.5526 H         1 UNK         0.0600 
    220 H220       -4.8389  -26.4041  -50.1791 H         1 UNK         0.3000 
    221 H221       -5.2427  -26.6341  -52.3407 H         1 UNK         0.0600 
    222 H222       -5.8879  -29.5624  -51.7157 H         1 UNK         0.0600 
    223 H223       -7.0032  -28.2078  -51.5440 H         1 UNK         0.0600 
    224 H224       -6.4078  -28.6604  -53.1325 H         1 UNK         0.0600 
    225 H225       -2.6686  -26.4521  -51.9240 H         1 UNK         0.3000 
    226 H226       -1.3928  -28.2318  -53.9648 H         1 UNK         0.0600 
    227 H227       -0.7159  -28.9582  -51.6528 H         1 UNK         0.0600 
    228 H228        0.6383  -28.3124  -52.5686 H         1 UNK         0.0600 
    229 H229       -0.1252  -27.3304  -51.3260 H         1 UNK         0.0600 
    230 H230       -2.1144  -25.0106  -52.9634 H         1 UNK         0.3000 
    231 H231       -0.2016  -23.8954  -54.9426 H         1 UNK         0.0600 
    232 H232       -0.7579  -22.7728  -52.1358 H         1 UNK         0.0600 
    233 H233        0.2884  -22.0528  -53.3515 H         1 UNK         0.0600 
    234 H234        0.7382  -23.5782  -52.6094 H         1 UNK         0.0600 
    235 H235       -0.8418  -21.5956  -55.4675 H         1 UNK         0.3000 
    236 H236       -3.5102  -20.6908  -55.0221 H         1 UNK         0.0600 
    237 H237       -4.0147  -22.3888  -56.8166 H         1 UNK         0.0600 
    238 H238       -4.2064  -20.7638  -57.4457 H         1 UNK         0.0600 
    239 H239       -2.7638  -21.6903  -57.8426 H         1 UNK         0.0600 
    240 H240       -3.7940  -18.5824  -56.2371 H         1 UNK         0.3000 
    241 H241       -1.3200  -17.3187  -57.1822 H         1 UNK         0.0600 
    242 H242       -4.5942  -16.5518  -59.0995 H         1 UNK         0.3800 
    243 H243       -4.2171  -18.0458  -58.2913 H         1 UNK         0.3800 
    244 H244       -1.2026  -16.8665  -54.8018 H         1 UNK         0.0800 
    245 H245       -1.4873  -15.3987  -55.6728 H         1 UNK         0.0800 
    246 H246       -4.0596  -17.0051  -52.2865 H         1 UNK         0.0800 
    247 H247       -3.2138  -18.1355  -53.3125 H         1 UNK         0.0800 
@<TRIPOS>BOND
     1    1    2 1    
     2    1  127 1    
     3    1  128 1    
     4    1  129 1    
     5    2    3 2    
     6    2    4 am   BACKBONE|DICT|INTERRES
     7    4    5 1    
     8    4  130 1    
     9    5    6 1    
    10    5   65 1    
    11    5  131 1    
    12    6    7 1    
    13    6  132 1    
    14    6  133 1    
    15    7    8 1    
    16    8    9 1    
    17    8  134 1    
    18    8  135 1    
    19    9   10 ar   
    20    9   14 ar   
    21   10   11 ar   
    22   10  136 1    
    23   11   12 ar   
    24   11  126 1    
    25   12   13 ar   
    26   12  137 1    
    27   13   14 ar   
    28   13   15 1    
    29   14  138 1    
    30   15   16 1    
    31   15  139 1    
    32   15  140 1    
    33   16   17 1    
    34   17   18 1    
    35   17  141 1    
    36   17  142 1    
    37   18   19 1    
    38   18   67 1    
    39   18  143 1    
    40   19   20 am   BACKBONE|DICT|INTERRES
    41   19  144 1    
    42   20   21 2    
    43   20   22 1    
    44   22   23 1    
    45   22   24 1    
    46   22  145 1    
    47   23  146 1    
    48   23  147 1    
    49   23  148 1    
    50   24   25 am   BACKBONE|DICT|INTERRES
    51   24  149 1    
    52   25   26 2    
    53   25   27 1    
    54   27   28 1    
    55   27   29 1    
    56   27  150 1    
    57   28  151 1    
    58   28  152 1    
    59   28  153 1    
    60   29   30 am   BACKBONE|DICT|INTERRES
    61   29  154 1    
    62   30   31 2    
    63   30   32 1    
    64   32   33 1    
    65   32   34 1    
    66   32  155 1    
    67   33  156 1    
    68   33  157 1    
    69   33  158 1    
    70   34   35 am   BACKBONE|DICT|INTERRES
    71   34  159 1    
    72   35   36 2    
    73   35   37 1    
    74   37   38 1    
    75   37   39 1    
    76   37  160 1    
    77   38  161 1    
    78   38  162 1    
    79   38  163 1    
    80   39   40 am   BACKBONE|DICT|INTERRES
    81   39  164 1    
    82   40   41 2    
    83   40   42 1    
    84   42   43 1    
    85   42   44 1    
    86   42  165 1    
    87   43  166 1    
    88   43  167 1    
    89   43  168 1    
    90   44   45 am   BACKBONE|DICT|INTERRES
    91   44  169 1    
    92   45   46 2    
    93   45   47 1    
    94   47   48 1    
    95   47   49 1    
    96   47  170 1    
    97   48  171 1    
    98   48  172 1    
    99   48  173 1    
   100   49   50 am   BACKBONE|DICT|INTERRES
   101   49  174 1    
   102   50   51 2    
   103   50   52 1    
   104   52   53 1    
   105   52   54 1    
   106   52  175 1    
   107   53  176 1    
   108   53  177 1    
   109   53  178 1    
   110   54   55 am   BACKBONE|DICT|INTERRES
   111   54  179 1    
   112   55   56 2    
   113   55   57 1    
   114   57   58 1    
   115   57   59 1    
   116   57  180 1    
   117   58  181 1    
   118   58  182 1    
   119   58  183 1    
   120   59   60 am   BACKBONE|DICT|INTERRES
   121   59  184 1    
   122   60   61 2    
   123   60   62 1    
   124   62   63 1    
   125   62   64 1    
   126   62  185 1    
   127   63  186 1    
   128   63  187 1    
   129   63  188 1    
   130   64   65 am   BACKBONE|DICT|INTERRES
   131   64  189 1    
   132   65   66 2    
   133   67   68 2    
   134   67   69 am   BACKBONE|DICT|INTERRES
   135   69   70 1    
   136   69  190 1    
   137   70   71 1    
   138   70   72 1    
   139   70  191 1    
   140   71  192 1    
   141   71  193 1    
   142   71  194 1    
   143   72   73 2    
   144   72   74 am   BACKBONE|DICT|INTERRES
   145   74   75 1    
   146   74  195 1    
   147   75   76 1    
   148   75   77 1    
   149   75  196 1    
   150   76  197 1    
   151   76  198 1    
   152   76  199 1    
   153   77   78 2    
   154   77   79 am   BACKBONE|DICT|INTERRES
   155   79   80 1    
   156   79  200 1    
   157   80   81 1    
   158   80   82 1    
   159   80  201 1    
   160   81  202 1    
   161   81  203 1    
   162   81  204 1    
   163   82   83 2    
   164   82   84 am   BACKBONE|DICT|INTERRES
   165   84   85 1    
   166   84  205 1    
   167   85   86 1    
   168   85   87 1    
   169   85  206 1    
   170   86  207 1    
   171   86  208 1    
   172   86  209 1    
   173   87   88 2    
   174   87   89 am   BACKBONE|DICT|INTERRES
   175   89   90 1    
   176   89  210 1    
   177   90   91 1    
   178   90   92 1    
   179   90  211 1    
   180   91  212 1    
   181   91  213 1    
   182   91  214 1    
   183   92   93 2    
   184   92   94 am   BACKBONE|DICT|INTERRES
   185   94   95 1    
   186   94  215 1    
   187   95   96 1    
   188   95   97 1    
   189   95  216 1    
   190   96  217 1    
   191   96  218 1    
   192   96  219 1    
   193   97   98 2    
   194   97   99 am   BACKBONE|DICT|INTERRES
   195   99  100 1    
   196   99  220 1    
   197  100  101 1    
   198  100  102 1    
   199  100  221 1    
   200  101  222 1    
   201  101  223 1    
   202  101  224 1    
   203  102  103 2    
   204  102  104 am   BACKBONE|DICT|INTERRES
   205  104  105 1    
   206  104  225 1    
   207  105  106 1    
   208  105  107 1    
   209  105  226 1    
   210  106  227 1    
   211  106  228 1    
   212  106  229 1    
   213  107  108 2    
   214  107  109 am   BACKBONE|DICT|INTERRES
   215  109  110 1    
   216  109  230 1    
   217  110  111 1    
   218  110  112 1    
   219  110  231 1    
   220  111  232 1    
   221  111  233 1    
   222  111  234 1    
   223  112  113 2    
   224  112  114 am   BACKBONE|DICT|INTERRES
   225  114  115 1    
   226  114  235 1    
   227  115  116 1    
   228  115  117 1    
   229  115  236 1    
   230  116  237 1    
   231  116  238 1    
   232  116  239 1    
   233  117  118 2    
   234  117  119 am   BACKBONE|DICT|INTERRES
   235  119  120 1    
   236  119  240 1    
   237  120  121 1    
   238  120  124 1    
   239  120  241 1    
   240  121  122 am   BACKBONE|DICT|INTERRES
   241  121  123 2    
   242  122  242 1    
   243  122  243 1    
   244  124  125 1    
   245  124  244 1    
   246  124  245 1    
   247  125  126 1    
   248  126  246 1    
   249  126  247 1    
@<TRIPOS>SUBSTRUCTURE
     1 UNK         1 GROUP             0       ****    0 ROOT    
