@<TRIPOS>MOLECULE
3R540
247   249    1
SMALL
USER_CHARGES


@<TRIPOS>ATOM
      1 CA          3.0882  -14.0545  -43.1066 C.3       0 UNK        -0.1800 
      2 C           2.3169  -13.2675  -44.1553 C.2       0 UNK         0.5000 
      3 O           1.2764  -12.6829  -43.8494 O.2       0 UNK        -0.5000 
      4 N           2.8352  -13.2238  -45.3890 N.am      1 UNK        -0.5000 
      5 CA          2.3138  -12.3785  -46.4745 C.3       1 UNK         0.1400 
      6 C6          2.7580  -12.8657  -47.8725 C.3       23 UNK        -0.0398 
      7 S7          2.0960  -14.5177  -48.2742 S.3       23 UNK        -0.2404 
      8 C8          3.5087  -15.2257  -49.1758 C.3       23 UNK        -0.0205 
      9 C9          3.1369  -16.5059  -49.9089 C.ar      23 UNK        -0.0193 
     10 C10         2.5253  -16.4384  -51.1655 C.ar      23 UNK        -0.1150 
     11 C11         2.2254  -17.6053  -51.8751 C.ar      23 UNK        -0.0193 
     12 C12         2.5618  -18.8419  -51.3216 C.ar      23 UNK        -0.1150 
     13 C13         3.1134  -18.9305  -50.0418 C.ar      23 UNK        -0.0193 
     14 C14         3.4174  -17.7557  -49.3466 C.ar      23 UNK        -0.1150 
     15 C15         3.3412  -20.2977  -49.4090 C.3       23 UNK        -0.0205 
     16 S16         1.8124  -21.2957  -49.4309 S.3       23 UNK        -0.2404 
     17 C17         2.3122  -22.7891  -48.5177 C.3       23 UNK        -0.0398 
     18 CA          1.2057  -23.4053  -47.6257 C.3       11 UNK         0.1400 
     19 N           0.7902  -22.5444  -46.5121 N.am      11 UNK        -0.5000 
     20 C           0.1857  -23.0257  -45.4146 C.2       10 UNK         0.5000 
     21 O          -0.0501  -24.2230  -45.2401 O.2       10 UNK        -0.5000 
     22 CA         -0.2585  -22.0126  -44.3450 C.3       10 UNK         0.1400 
     23 CB          0.9419  -21.5063  -43.5313 C.3       10 UNK        -0.1800 
     24 N          -1.0053  -20.8827  -44.8978 N.am      10 UNK        -0.5000 
     25 C          -2.1938  -20.9898  -45.5092 C.2       9 UNK         0.5000 
     26 O          -2.7831  -22.0566  -45.6720 O.2       9 UNK        -0.5000 
     27 CA         -2.8230  -19.6983  -46.0607 C.3       9 UNK         0.1400 
     28 CB         -3.5369  -18.9156  -44.9490 C.3       9 UNK        -0.1800 
     29 N          -1.8538  -18.8324  -46.7268 N.am      9 UNK        -0.5000 
     30 C          -1.1494  -19.1755  -47.8143 C.2       8 UNK         0.5000 
     31 O          -1.2860  -20.2400  -48.4110 O.2       8 UNK        -0.5000 
     32 CA         -0.0612  -18.1927  -48.2663 C.3       8 UNK         0.1400 
     33 CB         -0.6618  -17.0382  -49.0807 C.3       8 UNK        -0.1800 
     34 N           0.7099  -17.6783  -47.1335 N.am      8 UNK        -0.5000 
     35 C           1.4789  -18.4327  -46.3319 C.2       7 UNK         0.5000 
     36 O           1.6627  -19.6403  -46.4838 O.2       7 UNK        -0.5000 
     37 CA          2.1018  -17.7284  -45.1152 C.3       7 UNK         0.1400 
     38 CB          3.4042  -17.0069  -45.4894 C.3       7 UNK        -0.1800 
     39 N           1.1671  -16.7863  -44.4997 N.am      7 UNK        -0.5000 
     40 C           0.1003  -17.1622  -43.7811 C.2       6 UNK         0.5000 
     41 O          -0.1775  -18.3354  -43.5363 O.2       6 UNK        -0.5000 
     42 CA         -0.8395  -16.0455  -43.2933 C.3       6 UNK         0.1400 
     43 CB         -0.4214  -15.5262  -41.9098 C.3       6 UNK        -0.1800 
     44 N          -0.9435  -14.9211  -44.2260 N.am      6 UNK        -0.5000 
     45 C          -1.5086  -15.0021  -45.4403 C.2       5 UNK         0.5000 
     46 O          -1.8968  -16.0627  -45.9293 O.2       5 UNK        -0.5000 
     47 CA         -1.6932  -13.6856  -46.2152 C.3       5 UNK         0.1400 
     48 CB         -2.8977  -13.7261  -47.1757 C.3       5 UNK        -0.1800 
     49 N          -1.8381  -12.5718  -45.2786 N.am      5 UNK        -0.5000 
     50 C          -1.4837  -11.3048  -45.5104 C.2       4 UNK         0.5000 
     51 O          -1.0177  -10.9079  -46.5773 O.2       4 UNK        -0.5000 
     52 CA         -1.6579  -10.3207  -44.3460 C.3       4 UNK         0.1400 
     53 CB         -2.8120  -10.6935  -43.3879 C.3       4 UNK        -0.1800 
     54 N          -0.3946  -10.2451  -43.6202 N.am      4 UNK        -0.5000 
     55 C          -0.0364   -9.2467  -42.8037 C.2       3 UNK         0.5000 
     56 O          -0.7391   -8.2622  -42.5708 O.2       3 UNK        -0.5000 
     57 CA          1.3489   -9.3606  -42.1476 C.3       3 UNK         0.1400 
     58 CB          1.3565  -10.4425  -41.0548 C.3       3 UNK        -0.1800 
     59 N           2.3812   -9.6580  -43.1381 N.am      3 UNK        -0.5000 
     60 C           2.9764   -8.7414  -43.9158 C.2       2 UNK         0.5000 
     61 O           2.7505   -7.5328  -43.8463 O.2       2 UNK        -0.5000 
     62 CA          3.9986   -9.2619  -44.9462 C.3       2 UNK         0.1400 
     63 CB          5.4127   -9.2706  -44.3456 C.3       2 UNK        -0.1800 
     64 N           3.6696  -10.6082  -45.4155 N.am      2 UNK        -0.5000 
     65 C           2.6732  -10.8885  -46.2689 C.2       1 UNK         0.5000 
     66 O           2.0347  -10.0214  -46.8643 O.2       1 UNK        -0.5000 
     67 C          -0.0018  -23.9437  -48.4259 C.2       11 UNK         0.5000 
     68 O           0.0371  -25.0934  -48.8657 O.2       11 UNK        -0.5000 
     69 N          -1.0741  -23.1462  -48.5539 N.am      12 UNK        -0.5000 
     70 CA         -2.3341  -23.5669  -49.1664 C.3       12 UNK         0.1400 
     71 CB         -3.2729  -22.3725  -49.3489 C.3       12 UNK        -0.1800 
     72 C          -3.0380  -24.6745  -48.3700 C.2       12 UNK         0.5000 
     73 O          -3.5293  -25.6207  -48.9786 O.2       12 UNK        -0.5000 
     74 N          -3.0389  -24.5769  -47.0331 N.am      13 UNK        -0.5000 
     75 CA         -3.5847  -25.5970  -46.1352 C.3       13 UNK         0.1400 
     76 CB         -3.5629  -25.0856  -44.6872 C.3       13 UNK        -0.1800 
     77 C          -2.8525  -26.9467  -46.2504 C.2       13 UNK         0.5000 
     78 O          -3.5039  -27.9910  -46.2210 O.2       13 UNK        -0.5000 
     79 N          -1.5245  -26.9010  -46.4301 N.am      14 UNK        -0.5000 
     80 CA         -0.6874  -28.0724  -46.6962 C.3       14 UNK         0.1400 
     81 CB          0.7918  -27.6918  -46.5306 C.3       14 UNK        -0.1800 
     82 C          -0.9488  -28.6852  -48.0874 C.2       14 UNK         0.5000 
     83 O          -0.9483  -29.9092  -48.2218 O.2       14 UNK        -0.5000 
     84 N          -1.1891  -27.8280  -49.0890 N.am      15 UNK        -0.5000 
     85 CA         -1.5195  -28.2099  -50.4652 C.3       15 UNK         0.1400 
     86 CB         -1.2228  -27.0170  -51.3887 C.3       15 UNK        -0.1800 
     87 C          -2.9791  -28.6781  -50.6534 C.2       15 UNK         0.5000 
     88 O          -3.2904  -29.2496  -51.6990 O.2       15 UNK        -0.5000 
     89 N          -3.8407  -28.4095  -49.6613 N.am      16 UNK        -0.5000 
     90 CA         -5.2979  -28.5820  -49.6593 C.3       16 UNK         0.1400 
     91 CB         -5.6904  -30.0686  -49.7917 C.3       16 UNK        -0.1800 
     92 C          -5.9968  -27.6628  -50.6868 C.2       16 UNK         0.5000 
     93 O          -6.9162  -28.0910  -51.3876 O.2       16 UNK        -0.5000 
     94 N          -5.5337  -26.4105  -50.7518 N.am      17 UNK        -0.5000 
     95 CA         -6.0250  -25.3387  -51.6127 C.3       17 UNK         0.1400 
     96 CB         -4.8487  -24.8541  -52.4783 C.3       17 UNK        -0.1800 
     97 C          -6.5799  -24.1810  -50.7615 C.2       17 UNK         0.5000 
     98 O          -6.4381  -24.1810  -49.5358 O.2       17 UNK        -0.5000 
     99 N          -7.1921  -23.1971  -51.4317 N.am      18 UNK        -0.5000 
    100 CA        -7.6066  -21.9260  -50.8356 C.3       18 UNK         0.1400 
    101 CB        -8.6609  -21.2728  -51.7426 C.3       18 UNK        -0.1800 
    102 C         -6.3988  -20.9865  -50.6711 C.2       18 UNK         0.5000 
    103 O         -5.4979  -21.0071  -51.5115 O.2       18 UNK        -0.5000 
    104 N         -6.4165  -20.1434  -49.6292 N.am      19 UNK        -0.5000 
    105 CA        -5.3404  -19.1995  -49.2941 C.3       19 UNK         0.1400 
    106 CB        -5.7085  -18.4450  -48.0077 C.3       19 UNK        -0.1800 
    107 C         -5.0021  -18.2033  -50.4192 C.2       19 UNK         0.5000 
    108 O         -3.8331  -17.8722  -50.6087 O.2       19 UNK        -0.5000 
    109 N         -6.0281  -17.7820  -51.1704 N.am      20 UNK        -0.5000 
    110 CA        -5.9042  -16.8998  -52.3314 C.3       20 UNK         0.1400 
    111 CB        -7.2970  -16.3576  -52.6886 C.3       20 UNK        -0.1800 
    112 C         -5.2609  -17.5779  -53.5586 C.2       20 UNK         0.5000 
    113 O         -4.7490  -16.8743  -54.4302 O.2       20 UNK        -0.5000 
    114 N         -5.3039  -18.9164  -53.6179 N.am      21 UNK        -0.5000 
    115 CA        -4.7242  -19.7167  -54.6971 C.3       21 UNK         0.1400 
    116 CB        -5.5890  -20.9710  -54.9083 C.3       21 UNK        -0.1800 
    117 C         -3.2588  -20.1072  -54.4242 C.2       21 UNK         0.5000 
    118 O         -2.5788  -20.5248  -55.3629 O.2       21 UNK        -0.5000 
    119 N         -2.8065  -19.9642  -53.1684 N.am      22 UNK        -0.5000 
    120 CA        -1.4928  -20.3771  -52.6415 C.3       22 UNK         0.1400 
    121 C         -1.3034  -21.9248  -52.5739 C.2       22 UNK         0.5000 
    122 N         -0.2746  -22.3965  -51.8823 N.am      22 UNK        -0.7600 
    123 O         -2.0666  -22.7136  -53.1250 O.2       22 UNK        -0.5000 
    124 C124       -0.2979  -19.6882  -53.3645 C.3       23 UNK        -0.0398 
    125 S125       -0.2486  -17.8767  -53.1268 S.3       23 UNK        -0.2404 
    126 C126        1.5418  -17.5309  -53.2342 C.3       23 UNK        -0.0205 
    127 H127        4.1222  -14.2181  -43.4104 H         1 UNK         0.0600 
    128 H128        2.6286  -15.0253  -42.9330 H         1 UNK         0.0600 
    129 H129        3.0984  -13.5093  -42.1628 H         1 UNK         0.0600 
    130 H130        3.6814  -13.7347  -45.5973 H         1 UNK         0.3000 
    131 H131        1.2254  -12.4307  -46.4452 H         1 UNK         0.0600 
    132 H132        2.4068  -12.1824  -48.6481 H         1 UNK         0.0800 
    133 H133        3.8471  -12.8731  -47.9413 H         1 UNK         0.0800 
    134 H134        4.3266  -15.4111  -48.4779 H         1 UNK         0.0800 
    135 H135        3.8799  -14.4964  -49.8975 H         1 UNK         0.0800 
    136 H136        2.2848  -15.4740  -51.5904 H         1 UNK         0.1150 
    137 H137        2.3657  -19.7520  -51.8646 H         1 UNK         0.1150 
    138 H138        3.8638  -17.8133  -48.3649 H         1 UNK         0.1150 
    139 H139        4.1286  -20.8217  -49.9520 H         1 UNK         0.0800 
    140 H140        3.6806  -20.1889  -48.3778 H         1 UNK         0.0800 
    141 H141        3.1762  -22.5509  -47.8962 H         1 UNK         0.0800 
    142 H142        2.6638  -23.5265  -49.2413 H         1 UNK         0.0800 
    143 H143        1.6664  -24.2874  -47.1747 H         1 UNK         0.0600 
    144 H144        0.9623  -21.5468  -46.6044 H         1 UNK         0.3000 
    145 H145       -0.9255  -22.5374  -43.6577 H         1 UNK         0.0600 
    146 H146        0.6194  -20.8650  -42.7111 H         1 UNK         0.0600 
    147 H147        1.4949  -22.3385  -43.0939 H         1 UNK         0.0600 
    148 H148        1.6389  -20.9380  -44.1465 H         1 UNK         0.0600 
    149 H149       -0.6028  -19.9620  -44.7639 H         1 UNK         0.3000 
    150 H150       -3.5668  -19.9908  -46.8023 H         1 UNK         0.0600 
    151 H151       -4.3086  -19.5254  -44.4777 H         1 UNK         0.0600 
    152 H152       -4.0217  -18.0219  -45.3418 H         1 UNK         0.0600 
    153 H153       -2.8439  -18.6021  -44.1684 H         1 UNK         0.0600 
    154 H154       -1.7159  -17.9066  -46.3299 H         1 UNK         0.3000 
    155 H155        0.6204  -18.7336  -48.9197 H         1 UNK         0.0600 
    156 H156       -1.3570  -16.4400  -48.4936 H         1 UNK         0.0600 
    157 H157       -1.2068  -17.4211  -49.9442 H         1 UNK         0.0600 
    158 H158        0.1144  -16.3779  -49.4637 H         1 UNK         0.0600 
    159 H159        0.6022  -16.6980  -46.9258 H         1 UNK         0.3000 
    160 H160        2.3495  -18.4970  -44.3797 H         1 UNK         0.0600 
    161 H161        3.2316  -16.1977  -46.1966 H         1 UNK         0.0600 
    162 H162        4.1135  -17.6983  -45.9457 H         1 UNK         0.0600 
    163 H163        3.8882  -16.5869  -44.6082 H         1 UNK         0.0600 
    164 H164        1.3013  -15.8061  -44.6899 H         1 UNK         0.3000 
    165 H165       -1.8337  -16.4865  -43.1943 H         1 UNK         0.0600 
    166 H166       -1.1715  -14.8470  -41.5042 H         1 UNK         0.0600 
    167 H167       -0.3111  -16.3470  -41.1999 H         1 UNK         0.0600 
    168 H168        0.5258  -14.9900  -41.9432 H         1 UNK         0.0600 
    169 H169       -0.5698  -14.0331  -43.9153 H         1 UNK         0.3000 
    170 H170       -0.7867  -13.5491  -46.8068 H         1 UNK         0.0600 
    171 H171       -2.7922  -14.5251  -47.9102 H         1 UNK         0.0600 
    172 H172       -3.8314  -13.8937  -46.6380 H         1 UNK         0.0600 
    173 H173       -2.9933  -12.7927  -47.7304 H         1 UNK         0.0600 
    174 H174       -2.2345  -12.8050  -44.3786 H         1 UNK         0.3000 
    175 H175       -1.8748   -9.3451  -44.7862 H         1 UNK         0.0600 
    176 H176       -2.5894  -11.5881  -42.8052 H         1 UNK         0.0600 
    177 H177       -3.0113   -9.8869  -42.6825 H         1 UNK         0.0600 
    178 H178       -3.7380  -10.8704  -43.9367 H         1 UNK         0.0600 
    179 H179        0.2448  -11.0223  -43.7646 H         1 UNK         0.3000 
    180 H180        1.5767   -8.4048  -41.6705 H         1 UNK         0.0600 
    181 H181        1.1434  -11.4335  -41.4564 H         1 UNK         0.0600 
    182 H182        0.6047  -10.2303  -40.2936 H         1 UNK         0.0600 
    183 H183        2.3229  -10.4868  -40.5526 H         1 UNK         0.0600 
    184 H184        2.5990  -10.6319  -43.2829 H         1 UNK         0.3000 
    185 H185        3.9940   -8.5794  -45.7989 H         1 UNK         0.0600 
    186 H186        5.6976   -8.2740  -44.0055 H         1 UNK         0.0600 
    187 H187        5.4842   -9.9423  -43.4892 H         1 UNK         0.0600 
    188 H188        6.1520   -9.5849  -45.0824 H         1 UNK         0.0600 
    189 H189        4.1733  -11.3734  -44.9924 H         1 UNK         0.3000 
    190 H190       -1.0275  -22.1844  -48.2295 H         1 UNK         0.3000 
    191 H191       -2.1065  -23.9638  -50.1571 H         1 UNK         0.0600 
    192 H192       -3.5211  -21.9058  -48.3962 H         1 UNK         0.0600 
    193 H193       -4.2042  -22.6910  -49.8115 H         1 UNK         0.0600 
    194 H194       -2.8377  -21.6163  -50.0004 H         1 UNK         0.0600 
    195 H195       -2.6754  -23.7336  -46.5970 H         1 UNK         0.3000 
    196 H196       -4.6259  -25.7625  -46.4198 H         1 UNK         0.0600 
    197 H197       -3.9626  -25.8337  -44.0016 H         1 UNK         0.0600 
    198 H198       -4.1720  -24.1882  -44.5783 H         1 UNK         0.0600 
    199 H199       -2.5515  -24.8450  -44.3592 H         1 UNK         0.0600 
    200 H200       -1.0652  -25.9990  -46.4178 H         1 UNK         0.3000 
    201 H201       -0.9247  -28.8327  -45.9491 H         1 UNK         0.0600 
    202 H202        0.9883  -27.2978  -45.5332 H         1 UNK         0.0600 
    203 H203        1.1002  -26.9374  -47.2541 H         1 UNK         0.0600 
    204 H204        1.4350  -28.5614  -46.6704 H         1 UNK         0.0600 
    205 H205       -1.1096  -26.8336  -48.9052 H         1 UNK         0.3000 
    206 H206       -0.8701  -29.0369  -50.7596 H         1 UNK         0.0600 
    207 H207       -0.1864  -26.6920  -51.2956 H         1 UNK         0.0600 
    208 H208       -1.3886  -27.2796  -52.4342 H         1 UNK         0.0600 
    209 H209       -1.8634  -26.1648  -51.1614 H         1 UNK         0.0600 
    210 H210       -3.4744  -27.8736  -48.8850 H         1 UNK         0.3000 
    211 H211       -5.6346  -28.2442  -48.6780 H         1 UNK         0.0600 
    212 H212       -5.4522  -30.4684  -50.7775 H         1 UNK         0.0600 
    213 H213       -6.7616  -30.2023  -49.6375 H         1 UNK         0.0600 
    214 H214       -5.1773  -30.6787  -49.0483 H         1 UNK         0.0600 
    215 H215       -4.8128  -26.1296  -50.0870 H         1 UNK         0.3000 
    216 H216       -6.8250  -25.6999  -52.2618 H         1 UNK         0.0600 
    217 H217       -5.1579  -24.0761  -53.1770 H         1 UNK         0.0600 
    218 H218       -4.4310  -25.6703  -53.0680 H         1 UNK         0.0600 
    219 H219       -4.0444  -24.4415  -51.8675 H         1 UNK         0.0600 
    220 H220       -7.2371  -23.2486  -52.4386 H         1 UNK         0.3000 
    221 H221       -8.0516  -22.1149  -49.8563 H         1 UNK         0.0600 
    222 H222       -8.2614  -21.0544  -52.7342 H         1 UNK         0.0600 
    223 H223       -9.5294  -21.9199  -51.8665 H         1 UNK         0.0600 
    224 H224       -9.0157  -20.3330  -51.3177 H         1 UNK         0.0600 
    225 H225       -7.2002  -20.1708  -48.9929 H         1 UNK         0.3000 
    226 H226       -4.4378  -19.7806  -49.1016 H         1 UNK         0.0600 
    227 H227       -5.8711  -19.1318  -47.1770 H         1 UNK         0.0600 
    228 H228       -4.9086  -17.7632  -47.7145 H         1 UNK         0.0600 
    229 H229       -6.6150  -17.8518  -48.1339 H         1 UNK         0.0600 
    230 H230       -6.9556  -18.1104  -50.9454 H         1 UNK         0.3000 
    231 H231       -5.2694  -16.0556  -52.0535 H         1 UNK         0.0600 
    232 H232       -7.7345  -15.8112  -51.8528 H         1 UNK         0.0600 
    233 H233       -7.9829  -17.1603  -52.9626 H         1 UNK         0.0600 
    234 H234       -7.2439  -15.6688  -53.5328 H         1 UNK         0.0600 
    235 H235       -5.6821  -19.4379  -52.8357 H         1 UNK         0.3000 
    236 H236       -4.7426  -19.1420  -55.6255 H         1 UNK         0.0600 
    237 H237       -5.2367  -21.5448  -55.7662 H         1 UNK         0.0600 
    238 H238       -5.5608  -21.6335  -54.0433 H         1 UNK         0.0600 
    239 H239       -6.6297  -20.7081  -55.0982 H         1 UNK         0.0600 
    240 H240       -3.4604  -19.6300  -52.4750 H         1 UNK         0.3000 
    241 H241       -1.4910  -20.0434  -51.6024 H         1 UNK         0.0600 
    242 H242       -0.1420  -23.3936  -51.8432 H         1 UNK         0.3800 
    243 H243        0.3416  -21.7947  -51.3564 H         1 UNK         0.3800 
    244 H244       -0.3096  -19.8948  -54.4343 H         1 UNK         0.0800 
    245 H245        0.6402  -20.1078  -53.0141 H         1 UNK         0.0800 
    246 H246        2.0169  -18.2212  -53.9329 H         1 UNK         0.0800 
    247 H247        1.6742  -16.5355  -53.6605 H         1 UNK         0.0800 
@<TRIPOS>BOND
     1    1    2 1    
     2    1  127 1    
     3    1  128 1    
     4    1  129 1    
     5    2    3 2    
     6    2    4 am   BACKBONE|DICT|INTERRES
     7    4    5 1    
     8    4  130 1    
     9    5    6 1    
    10    5   65 1    
    11    5  131 1    
    12    6    7 1    
    13    6  132 1    
    14    6  133 1    
    15    7    8 1    
    16    8    9 1    
    17    8  134 1    
    18    8  135 1    
    19    9   10 ar   
    20    9   14 ar   
    21   10   11 ar   
    22   10  136 1    
    23   11   12 ar   
    24   11  126 1    
    25   12   13 ar   
    26   12  137 1    
    27   13   14 ar   
    28   13   15 1    
    29   14  138 1    
    30   15   16 1    
    31   15  139 1    
    32   15  140 1    
    33   16   17 1    
    34   17   18 1    
    35   17  141 1    
    36   17  142 1    
    37   18   19 1    
    38   18   67 1    
    39   18  143 1    
    40   19   20 am   BACKBONE|DICT|INTERRES
    41   19  144 1    
    42   20   21 2    
    43   20   22 1    
    44   22   23 1    
    45   22   24 1    
    46   22  145 1    
    47   23  146 1    
    48   23  147 1    
    49   23  148 1    
    50   24   25 am   BACKBONE|DICT|INTERRES
    51   24  149 1    
    52   25   26 2    
    53   25   27 1    
    54   27   28 1    
    55   27   29 1    
    56   27  150 1    
    57   28  151 1    
    58   28  152 1    
    59   28  153 1    
    60   29   30 am   BACKBONE|DICT|INTERRES
    61   29  154 1    
    62   30   31 2    
    63   30   32 1    
    64   32   33 1    
    65   32   34 1    
    66   32  155 1    
    67   33  156 1    
    68   33  157 1    
    69   33  158 1    
    70   34   35 am   BACKBONE|DICT|INTERRES
    71   34  159 1    
    72   35   36 2    
    73   35   37 1    
    74   37   38 1    
    75   37   39 1    
    76   37  160 1    
    77   38  161 1    
    78   38  162 1    
    79   38  163 1    
    80   39   40 am   BACKBONE|DICT|INTERRES
    81   39  164 1    
    82   40   41 2    
    83   40   42 1    
    84   42   43 1    
    85   42   44 1    
    86   42  165 1    
    87   43  166 1    
    88   43  167 1    
    89   43  168 1    
    90   44   45 am   BACKBONE|DICT|INTERRES
    91   44  169 1    
    92   45   46 2    
    93   45   47 1    
    94   47   48 1    
    95   47   49 1    
    96   47  170 1    
    97   48  171 1    
    98   48  172 1    
    99   48  173 1    
   100   49   50 am   BACKBONE|DICT|INTERRES
   101   49  174 1    
   102   50   51 2    
   103   50   52 1    
   104   52   53 1    
   105   52   54 1    
   106   52  175 1    
   107   53  176 1    
   108   53  177 1    
   109   53  178 1    
   110   54   55 am   BACKBONE|DICT|INTERRES
   111   54  179 1    
   112   55   56 2    
   113   55   57 1    
   114   57   58 1    
   115   57   59 1    
   116   57  180 1    
   117   58  181 1    
   118   58  182 1    
   119   58  183 1    
   120   59   60 am   BACKBONE|DICT|INTERRES
   121   59  184 1    
   122   60   61 2    
   123   60   62 1    
   124   62   63 1    
   125   62   64 1    
   126   62  185 1    
   127   63  186 1    
   128   63  187 1    
   129   63  188 1    
   130   64   65 am   BACKBONE|DICT|INTERRES
   131   64  189 1    
   132   65   66 2    
   133   67   68 2    
   134   67   69 am   BACKBONE|DICT|INTERRES
   135   69   70 1    
   136   69  190 1    
   137   70   71 1    
   138   70   72 1    
   139   70  191 1    
   140   71  192 1    
   141   71  193 1    
   142   71  194 1    
   143   72   73 2    
   144   72   74 am   BACKBONE|DICT|INTERRES
   145   74   75 1    
   146   74  195 1    
   147   75   76 1    
   148   75   77 1    
   149   75  196 1    
   150   76  197 1    
   151   76  198 1    
   152   76  199 1    
   153   77   78 2    
   154   77   79 am   BACKBONE|DICT|INTERRES
   155   79   80 1    
   156   79  200 1    
   157   80   81 1    
   158   80   82 1    
   159   80  201 1    
   160   81  202 1    
   161   81  203 1    
   162   81  204 1    
   163   82   83 2    
   164   82   84 am   BACKBONE|DICT|INTERRES
   165   84   85 1    
   166   84  205 1    
   167   85   86 1    
   168   85   87 1    
   169   85  206 1    
   170   86  207 1    
   171   86  208 1    
   172   86  209 1    
   173   87   88 2    
   174   87   89 am   BACKBONE|DICT|INTERRES
   175   89   90 1    
   176   89  210 1    
   177   90   91 1    
   178   90   92 1    
   179   90  211 1    
   180   91  212 1    
   181   91  213 1    
   182   91  214 1    
   183   92   93 2    
   184   92   94 am   BACKBONE|DICT|INTERRES
   185   94   95 1    
   186   94  215 1    
   187   95   96 1    
   188   95   97 1    
   189   95  216 1    
   190   96  217 1    
   191   96  218 1    
   192   96  219 1    
   193   97   98 2    
   194   97   99 am   BACKBONE|DICT|INTERRES
   195   99  100 1    
   196   99  220 1    
   197  100  101 1    
   198  100  102 1    
   199  100  221 1    
   200  101  222 1    
   201  101  223 1    
   202  101  224 1    
   203  102  103 2    
   204  102  104 am   BACKBONE|DICT|INTERRES
   205  104  105 1    
   206  104  225 1    
   207  105  106 1    
   208  105  107 1    
   209  105  226 1    
   210  106  227 1    
   211  106  228 1    
   212  106  229 1    
   213  107  108 2    
   214  107  109 am   BACKBONE|DICT|INTERRES
   215  109  110 1    
   216  109  230 1    
   217  110  111 1    
   218  110  112 1    
   219  110  231 1    
   220  111  232 1    
   221  111  233 1    
   222  111  234 1    
   223  112  113 2    
   224  112  114 am   BACKBONE|DICT|INTERRES
   225  114  115 1    
   226  114  235 1    
   227  115  116 1    
   228  115  117 1    
   229  115  236 1    
   230  116  237 1    
   231  116  238 1    
   232  116  239 1    
   233  117  118 2    
   234  117  119 am   BACKBONE|DICT|INTERRES
   235  119  120 1    
   236  119  240 1    
   237  120  121 1    
   238  120  124 1    
   239  120  241 1    
   240  121  122 am   BACKBONE|DICT|INTERRES
   241  121  123 2    
   242  122  242 1    
   243  122  243 1    
   244  124  125 1    
   245  124  244 1    
   246  124  245 1    
   247  125  126 1    
   248  126  246 1    
   249  126  247 1    
@<TRIPOS>SUBSTRUCTURE
     1 UNK         1 GROUP             0       ****    0 ROOT    
