@<TRIPOS>MOLECULE
3R540
247   249    1
SMALL
USER_CHARGES


@<TRIPOS>ATOM
      1 CA         -0.8188  -10.6387  -52.0754 C.3       0 UNK        -0.1800 
      2 C           0.2819  -11.5203  -51.5028 C.2       0 UNK         0.5000 
      3 O           1.4038  -11.0529  -51.3087 O.2       0 UNK        -0.5000 
      4 N          -0.0361  -12.7906  -51.2245 N.am      1 UNK        -0.5000 
      5 CA          0.8879  -13.7962  -50.6823 C.3       1 UNK         0.1400 
      6 C6          0.4912  -15.2281  -51.1213 C.3       23 UNK        -0.0398 
      7 S7         -1.1799  -15.7510  -50.5897 S.3       23 UNK        -0.2404 
      8 C8         -0.7940  -16.9204  -49.2459 C.3       23 UNK        -0.0205 
      9 C9         -0.0097  -18.1331  -49.7257 C.ar      23 UNK        -0.0193 
     10 C10        -0.5521  -18.9843  -50.6876 C.ar      23 UNK        -0.1150 
     11 C11         0.1798  -20.0684  -51.1776 C.ar      23 UNK        -0.0193 
     12 C12         1.4428  -20.3408  -50.6429 C.ar      23 UNK        -0.1150 
     13 C13         1.9868  -19.5132  -49.6545 C.ar      23 UNK        -0.0193 
     14 C14         1.2639  -18.3993  -49.2194 C.ar      23 UNK        -0.1150 
     15 C15         3.3703  -19.7878  -49.0824 C.3       23 UNK        -0.0205 
     16 S16         3.2997  -20.5805  -47.4420 S.3       23 UNK        -0.2404 
     17 C17         2.8620  -22.3011  -47.8737 C.3       23 UNK        -0.0398 
     18 CA          1.6869  -22.8977  -47.0622 C.3       11 UNK         0.1400 
     19 N           1.9176  -22.8724  -45.6147 N.am      11 UNK        -0.5000 
     20 C           1.2240  -23.6010  -44.7309 C.2       10 UNK         0.5000 
     21 O           0.2776  -24.3171  -45.0553 O.2       10 UNK        -0.5000 
     22 CA          1.5921  -23.5106  -43.2392 C.3       10 UNK         0.1400 
     23 CB          2.0569  -24.8720  -42.6871 C.3       10 UNK        -0.1800 
     24 N           2.5287  -22.4400  -42.8905 N.am      10 UNK        -0.5000 
     25 C           3.8440  -22.3327  -43.1283 C.2       9 UNK         0.5000 
     26 O           4.4992  -23.1603  -43.7609 O.2       9 UNK        -0.5000 
     27 CA          4.5440  -21.0711  -42.5769 C.3       9 UNK         0.1400 
     28 CB          4.9997  -20.1573  -43.7265 C.3       9 UNK        -0.1800 
     29 N           3.6861  -20.3028  -41.6684 N.am      9 UNK        -0.5000 
     30 C           3.4446  -20.6184  -40.3872 C.2       8 UNK         0.5000 
     31 O           4.0198  -21.5264  -39.7871 O.2       8 UNK        -0.5000 
     32 CA          2.3428  -19.8124  -39.6722 C.3       8 UNK         0.1400 
     33 CB          2.9482  -18.6245  -38.9095 C.3       8 UNK        -0.1800 
     34 N           1.3158  -19.3309  -40.6024 N.am      8 UNK        -0.5000 
     35 C           0.3619  -20.1094  -41.1402 C.2       7 UNK         0.5000 
     36 O           0.2244  -21.3001  -40.8639 O.2       7 UNK        -0.5000 
     37 CA         -0.5585  -19.4792  -42.2053 C.3       7 UNK         0.1400 
     38 CB         -1.8181  -18.8929  -41.5529 C.3       7 UNK        -0.1800 
     39 N           0.1159  -18.4424  -42.9845 N.am      7 UNK        -0.5000 
     40 C           1.1525  -18.6600  -43.8038 C.2       6 UNK         0.5000 
     41 O           1.5191  -19.7885  -44.1331 O.2       6 UNK        -0.5000 
     42 CA          1.9427  -17.4326  -44.3016 C.3       6 UNK         0.1400 
     43 CB          1.8063  -17.2560  -45.8153 C.3       6 UNK        -0.1800 
     44 N           1.5973  -16.1715  -43.6436 N.am      6 UNK        -0.5000 
     45 C           1.8423  -15.8719  -42.3613 C.2       5 UNK         0.5000 
     46 O           2.3404  -16.6643  -41.5621 O.2       5 UNK        -0.5000 
     47 CA          1.4140  -14.4743  -41.8910 C.3       5 UNK         0.1400 
     48 CB          2.4090  -13.4079  -42.3756 C.3       5 UNK        -0.1800 
     49 N           0.0770  -14.1527  -42.3875 N.am      5 UNK        -0.5000 
     50 C          -1.0606  -14.4178  -41.7312 C.2       4 UNK         0.5000 
     51 O          -1.1007  -14.9115  -40.6040 O.2       4 UNK        -0.5000 
     52 CA         -2.3804  -14.0865  -42.4572 C.3       4 UNK         0.1400 
     53 CB         -2.8302  -12.6549  -42.1283 C.3       4 UNK        -0.1800 
     54 N          -2.3001  -14.2405  -43.9113 N.am      4 UNK        -0.5000 
     55 C          -2.1325  -15.4116  -44.5404 C.2       3 UNK         0.5000 
     56 O          -2.0606  -16.4925  -43.9595 O.2       3 UNK        -0.5000 
     57 CA         -1.9830  -15.3725  -46.0730 C.3       3 UNK         0.1400 
     58 CB         -3.3525  -15.5404  -46.7481 C.3       3 UNK        -0.1800 
     59 N          -1.3259  -14.1763  -46.6128 N.am      3 UNK        -0.5000 
     60 C          -0.1343  -13.6859  -46.2401 C.2       2 UNK         0.5000 
     61 O           0.5355  -14.1440  -45.3129 O.2       2 UNK        -0.5000 
     62 CA          0.3776  -12.4823  -47.0540 C.3       2 UNK         0.1400 
     63 CB          1.7561  -11.9747  -46.5804 C.3       2 UNK        -0.1800 
     64 N           0.3793  -12.7570  -48.4959 N.am      2 UNK        -0.5000 
     65 C           1.0917  -13.6896  -49.1511 C.2       1 UNK         0.5000 
     66 O           1.8849  -14.4553  -48.6025 O.2       1 UNK        -0.5000 
     67 C           0.3174  -22.3053  -47.4509 C.2       11 UNK         0.5000 
     68 O          -0.3804  -22.8962  -48.2754 O.2       11 UNK        -0.5000 
     69 N          -0.0814  -21.2021  -46.7997 N.am      12 UNK        -0.5000 
     70 CA         -1.3963  -20.5868  -46.9965 C.3       12 UNK         0.1400 
     71 CB         -1.4043  -19.1738  -46.4041 C.3       12 UNK        -0.1800 
     72 C          -2.5327  -21.4232  -46.3839 C.2       12 UNK         0.5000 
     73 O          -3.6374  -21.4319  -46.9257 O.2       12 UNK        -0.5000 
     74 N          -2.2333  -22.1207  -45.2781 N.am      13 UNK        -0.5000 
     75 CA         -3.1582  -23.0173  -44.5867 C.3       13 UNK         0.1400 
     76 CB         -2.6131  -23.3499  -43.1890 C.3       13 UNK        -0.1800 
     77 C          -3.4269  -24.2937  -45.4017 C.2       13 UNK         0.5000 
     78 O          -4.5844  -24.6836  -45.5507 O.2       13 UNK        -0.5000 
     79 N          -2.3629  -24.8878  -45.9618 N.am      14 UNK        -0.5000 
     80 CA         -2.4223  -26.0409  -46.8633 C.3       14 UNK         0.1400 
     81 CB         -0.9969  -26.5431  -47.1387 C.3       14 UNK        -0.1800 
     82 C          -3.1503  -25.7283  -48.1841 C.2       14 UNK         0.5000 
     83 O          -3.8722  -26.5818  -48.7001 O.2       14 UNK        -0.5000 
     84 N          -2.9757  -24.4977  -48.6839 N.am      15 UNK        -0.5000 
     85 CA         -3.6601  -23.9634  -49.8615 C.3       15 UNK         0.1400 
     86 CB         -2.8504  -22.7723  -50.3889 C.3       15 UNK        -0.1800 
     87 C          -5.1273  -23.5573  -49.5991 C.2       15 UNK         0.5000 
     88 O          -5.8381  -23.2424  -50.5558 O.2       15 UNK        -0.5000 
     89 N          -5.5483  -23.5510  -48.3246 N.am      16 UNK        -0.5000 
     90 CA         -6.8773  -23.2668  -47.7654 C.3       16 UNK         0.1400 
     91 CB         -7.9187  -24.2834  -48.2700 C.3       16 UNK        -0.1800 
     92 C          -7.3728  -21.8205  -47.9596 C.2       16 UNK         0.5000 
     93 O          -7.7779  -21.1785  -46.9900 O.2       16 UNK        -0.5000 
     94 N          -7.3352  -21.3408  -49.2033 N.am      17 UNK        -0.5000 
     95 CA         -7.7404  -20.0071  -49.6375 C.3       17 UNK         0.1400 
     96 CB         -9.2307  -20.0177  -50.0266 C.3       17 UNK        -0.1800 
     97 C          -6.8142  -19.5499  -50.7770 C.2       17 UNK         0.5000 
     98 O          -7.2821  -19.0504  -51.8012 O.2       17 UNK        -0.5000 
     99 N          -5.5064  -19.7876  -50.5903 N.am      18 UNK        -0.5000 
    100 CA        -4.3996  -19.4962  -51.5122 C.3       18 UNK         0.1400 
    101 CB        -4.2688  -17.9759  -51.7466 C.3       18 UNK        -0.1800 
    102 C         -4.4314  -20.2952  -52.8356 C.2       18 UNK         0.5000 
    103 O         -3.6821  -19.9705  -53.7575 O.2       18 UNK        -0.5000 
    104 N         -5.2846  -21.3309  -52.9062 N.am      19 UNK        -0.5000 
    105 CA        -5.4834  -22.2775  -54.0133 C.3       19 UNK         0.1400 
    106 CB        -4.2704  -23.2262  -54.1087 C.3       19 UNK        -0.1800 
    107 C         -5.8115  -21.6249  -55.3760 C.2       19 UNK         0.5000 
    108 O         -5.6315  -22.2642  -56.4140 O.2       19 UNK        -0.5000 
    109 N         -6.2292  -20.3496  -55.3569 N.am      20 UNK        -0.5000 
    110 CA        -6.3440  -19.3905  -56.4643 C.3       20 UNK         0.1400 
    111 CB        -7.3817  -19.8461  -57.5073 C.3       20 UNK        -0.1800 
    112 C         -4.9946  -19.0378  -57.1304 C.2       20 UNK         0.5000 
    113 O         -4.7179  -17.8582  -57.3520 O.2       20 UNK        -0.5000 
    114 N         -4.1774  -20.0572  -57.4222 N.am      21 UNK        -0.5000 
    115 CA        -2.8929  -19.9959  -58.1187 C.3       21 UNK         0.1400 
    116 CB        -2.3493  -21.4245  -58.2740 C.3       21 UNK        -0.1800 
    117 C         -1.8351  -19.0910  -57.4604 C.2       21 UNK         0.5000 
    118 O         -1.0362  -18.4922  -58.1825 O.2       21 UNK        -0.5000 
    119 N         -1.8457  -18.9918  -56.1244 N.am      22 UNK        -0.5000 
    120 CA        -0.9572  -18.0914  -55.3696 C.3       22 UNK         0.1400 
    121 C         -1.4632  -16.6182  -55.3024 C.2       22 UNK         0.5000 
    122 N         -2.6347  -16.2786  -55.8298 N.am      22 UNK        -0.7600 
    123 O         -0.7677  -15.7558  -54.7734 O.2       22 UNK        -0.5000 
    124 C124       -0.6332  -18.6299  -53.9545 C.3       23 UNK        -0.0398 
    125 S125        0.1280  -20.2917  -53.9439 S.3       23 UNK        -0.2404 
    126 C126       -0.3839  -20.9167  -52.3085 C.3       23 UNK        -0.0205 
    127 H127       -0.9973   -9.7867  -51.4194 H         1 UNK         0.0600 
    128 H128       -0.5250  -10.2607  -53.0547 H         1 UNK         0.0600 
    129 H129       -1.7567  -11.1831  -52.1890 H         1 UNK         0.0600 
    130 H130       -0.9735  -13.1235  -51.4047 H         1 UNK         0.3000 
    131 H131        1.8716  -13.6058  -51.1169 H         1 UNK         0.0600 
    132 H132        1.2390  -15.9477  -50.7865 H         1 UNK         0.0800 
    133 H133        0.5145  -15.2858  -52.2104 H         1 UNK         0.0800 
    134 H134       -1.7282  -17.2629  -48.8009 H         1 UNK         0.0800 
    135 H135       -0.2480  -16.3926  -48.4634 H         1 UNK         0.0800 
    136 H136       -1.5275  -18.7636  -51.0888 H         1 UNK         0.1150 
    137 H137        2.0097  -21.1824  -51.0146 H         1 UNK         0.1150 
    138 H138        1.7004  -17.7306  -48.4939 H         1 UNK         0.1150 
    139 H139        3.9575  -20.4043  -49.7646 H         1 UNK         0.0800 
    140 H140        3.9110  -18.8449  -48.9884 H         1 UNK         0.0800 
    141 H141        3.7519  -22.9100  -47.7095 H         1 UNK         0.0800 
    142 H142        2.6549  -22.3794  -48.9415 H         1 UNK         0.0800 
    143 H143        1.6379  -23.9527  -47.3420 H         1 UNK         0.0600 
    144 H144        2.6617  -22.2765  -45.2812 H         1 UNK         0.3000 
    145 H145        0.6652  -23.2564  -42.7245 H         1 UNK         0.0600 
    146 H146        2.2747  -24.8115  -41.6208 H         1 UNK         0.0600 
    147 H147        1.2825  -25.6289  -42.8171 H         1 UNK         0.0600 
    148 H148        2.9510  -25.2348  -43.1945 H         1 UNK         0.0600 
    149 H149        2.1027  -21.6649  -42.4027 H         1 UNK         0.3000 
    150 H150        5.4308  -21.3991  -42.0308 H         1 UNK         0.0600 
    151 H151        5.7110  -20.6720  -44.3736 H         1 UNK         0.0600 
    152 H152        5.4943  -19.2621  -43.3494 H         1 UNK         0.0600 
    153 H153        4.1647  -19.8431  -44.3523 H         1 UNK         0.0600 
    154 H154        3.1693  -19.5381  -42.0764 H         1 UNK         0.3000 
    155 H155        1.8667  -20.4720  -38.9434 H         1 UNK         0.0600 
    156 H156        3.5008  -17.9570  -39.5709 H         1 UNK         0.0600 
    157 H157        3.6428  -18.9700  -38.1428 H         1 UNK         0.0600 
    158 H158        2.1760  -18.0397  -38.4094 H         1 UNK         0.0600 
    159 H159        1.3989  -18.3644  -40.9004 H         1 UNK         0.3000 
    160 H160       -0.8657  -20.2730  -42.8894 H         1 UNK         0.0600 
    161 H161       -2.5325  -18.5619  -42.3065 H         1 UNK         0.0600 
    162 H162       -1.5823  -18.0394  -40.9157 H         1 UNK         0.0600 
    163 H163       -2.3232  -19.6372  -40.9360 H         1 UNK         0.0600 
    164 H164       -0.1863  -17.4899  -42.8329 H         1 UNK         0.3000 
    165 H165        2.9930  -17.6381  -44.0871 H         1 UNK         0.0600 
    166 H166        2.5238  -16.5278  -46.1943 H         1 UNK         0.0600 
    167 H167        1.9930  -18.1977  -46.3292 H         1 UNK         0.0600 
    168 H168        0.8122  -16.9120  -46.0921 H         1 UNK         0.0600 
    169 H169        1.1897  -15.4532  -44.2393 H         1 UNK         0.3000 
    170 H170        1.4186  -14.4672  -40.7988 H         1 UNK         0.0600 
    171 H171        3.4149  -13.6197  -42.0110 H         1 UNK         0.0600 
    172 H172        2.4577  -13.3603  -43.4642 H         1 UNK         0.0600 
    173 H173        2.1324  -12.4187  -42.0106 H         1 UNK         0.0600 
    174 H174        0.0228  -13.8156  -43.3414 H         1 UNK         0.3000 
    175 H175       -3.1414  -14.7768  -42.0868 H         1 UNK         0.0600 
    176 H176       -3.8026  -12.4354  -42.5694 H         1 UNK         0.0600 
    177 H177       -2.9242  -12.5131  -41.0508 H         1 UNK         0.0600 
    178 H178       -2.1185  -11.9146  -42.4960 H         1 UNK         0.0600 
    179 H179       -2.3472  -13.3981  -44.4651 H         1 UNK         0.3000 
    180 H180       -1.3670  -16.2271  -46.3486 H         1 UNK         0.0600 
    181 H181       -4.0166  -14.7058  -46.5199 H         1 UNK         0.0600 
    182 H182       -3.8453  -16.4536  -46.4115 H         1 UNK         0.0600 
    183 H183       -3.2581  -15.6046  -47.8321 H         1 UNK         0.0600 
    184 H184       -1.7973  -13.7275  -47.3845 H         1 UNK         0.3000 
    185 H185       -0.3386  -11.6754  -46.8929 H         1 UNK         0.0600 
    186 H186        2.5244  -12.7447  -46.6567 H         1 UNK         0.0600 
    187 H187        2.0826  -11.1160  -47.1668 H         1 UNK         0.0600 
    188 H188        1.7164  -11.6598  -45.5370 H         1 UNK         0.0600 
    189 H189       -0.2410  -12.1862  -49.0520 H         1 UNK         0.3000 
    190 H190        0.5432  -20.7762  -46.1266 H         1 UNK         0.3000 
    191 H191       -1.5765  -20.5030  -48.0705 H         1 UNK         0.0600 
    192 H192       -0.5912  -18.5787  -46.8127 H         1 UNK         0.0600 
    193 H193       -1.3066  -19.1879  -45.3192 H         1 UNK         0.0600 
    194 H194       -2.3373  -18.6602  -46.6386 H         1 UNK         0.0600 
    195 H195       -1.2868  -22.0846  -44.9331 H         1 UNK         0.3000 
    196 H196       -4.1083  -22.4931  -44.4617 H         1 UNK         0.0600 
    197 H197       -3.3253  -23.9599  -42.6321 H         1 UNK         0.0600 
    198 H198       -2.4359  -22.4455  -42.6065 H         1 UNK         0.0600 
    199 H199       -1.6780  -23.9071  -43.2374 H         1 UNK         0.0600 
    200 H200       -1.4327  -24.5381  -45.7432 H         1 UNK         0.3000 
    201 H201       -2.9750  -26.8352  -46.3576 H         1 UNK         0.0600 
    202 H202       -0.4994  -26.8410  -46.2156 H         1 UNK         0.0600 
    203 H203       -0.3857  -25.7749  -47.6143 H         1 UNK         0.0600 
    204 H204       -1.0077  -27.4119  -47.7981 H         1 UNK         0.0600 
    205 H205       -2.3074  -23.8821  -48.2346 H         1 UNK         0.3000 
    206 H206       -3.6710  -24.7340  -50.6348 H         1 UNK         0.0600 
    207 H207       -1.8164  -23.0558  -50.5847 H         1 UNK         0.0600 
    208 H208       -3.2613  -22.4106  -51.3277 H         1 UNK         0.0600 
    209 H209       -2.8431  -21.9423  -49.6822 H         1 UNK         0.0600 
    210 H210       -4.8567  -23.7836  -47.6237 H         1 UNK         0.3000 
    211 H211       -6.7763  -23.4151  -46.6893 H         1 UNK         0.0600 
    212 H212       -8.0751  -24.2101  -49.3465 H         1 UNK         0.0600 
    213 H213       -8.8842  -24.1223  -47.7891 H         1 UNK         0.0600 
    214 H214       -7.6100  -25.3045  -48.0454 H         1 UNK         0.0600 
    215 H215       -6.9510  -21.9566  -49.9173 H         1 UNK         0.3000 
    216 H216       -7.6002  -19.2975  -48.8195 H         1 UNK         0.0600 
    217 H217       -9.5637  -19.0253  -50.3329 H         1 UNK         0.0600 
    218 H218       -9.8550  -20.3233  -49.1870 H         1 UNK         0.0600 
    219 H219       -9.4233  -20.7020  -50.8537 H         1 UNK         0.0600 
    220 H220       -5.2398  -20.2186  -49.7155 H         1 UNK         0.3000 
    221 H221       -3.5009  -19.8288  -50.9945 H         1 UNK         0.0600 
    222 H222       -5.1217  -17.5738  -52.2933 H         1 UNK         0.0600 
    223 H223       -4.1913  -17.4375  -50.8019 H         1 UNK         0.0600 
    224 H224       -3.3782  -17.7327  -52.3248 H         1 UNK         0.0600 
    225 H225       -5.8308  -21.5337  -52.0802 H         1 UNK         0.3000 
    226 H226       -6.3551  -22.8778  -53.7496 H         1 UNK         0.0600 
    227 H227       -4.0980  -23.7388  -53.1628 H         1 UNK         0.0600 
    228 H228       -4.4272  -23.9983  -54.8627 H         1 UNK         0.0600 
    229 H229       -3.3583  -22.6896  -54.3729 H         1 UNK         0.0600 
    230 H230       -6.3234  -19.9364  -54.4391 H         1 UNK         0.3000 
    231 H231       -6.7179  -18.4697  -56.0139 H         1 UNK         0.0600 
    232 H232       -8.3465  -20.0461  -57.0414 H         1 UNK         0.0600 
    233 H233       -7.0688  -20.7489  -58.0322 H         1 UNK         0.0600 
    234 H234       -7.5381  -19.0725  -58.2601 H         1 UNK         0.0600 
    235 H235       -4.5148  -20.9856  -57.1825 H         1 UNK         0.3000 
    236 H236       -3.0873  -19.5945  -59.1151 H         1 UNK         0.0600 
    237 H237       -1.4016  -21.4276  -58.8141 H         1 UNK         0.0600 
    238 H238       -2.1777  -21.8943  -57.3045 H         1 UNK         0.0600 
    239 H239       -3.0434  -22.0528  -58.8327 H         1 UNK         0.0600 
    240 H240       -2.5371  -19.4971  -55.5820 H         1 UNK         0.3000 
    241 H241       -0.0043  -18.0397  -55.8994 H         1 UNK         0.0600 
    242 H242       -2.9340  -15.3182  -55.7800 H         1 UNK         0.3800 
    243 H243       -3.2205  -16.9585  -56.3013 H         1 UNK         0.3800 
    244 H244        0.0510  -17.9561  -53.4354 H         1 UNK         0.0800 
    245 H245       -1.5436  -18.6518  -53.3613 H         1 UNK         0.0800 
    246 H246       -0.0480  -21.9490  -52.2004 H         1 UNK         0.0800 
    247 H247       -1.4720  -20.9432  -52.2597 H         1 UNK         0.0800 
@<TRIPOS>BOND
     1    1    2 1    
     2    1  127 1    
     3    1  128 1    
     4    1  129 1    
     5    2    3 2    
     6    2    4 am   BACKBONE|DICT|INTERRES
     7    4    5 1    
     8    4  130 1    
     9    5    6 1    
    10    5   65 1    
    11    5  131 1    
    12    6    7 1    
    13    6  132 1    
    14    6  133 1    
    15    7    8 1    
    16    8    9 1    
    17    8  134 1    
    18    8  135 1    
    19    9   10 ar   
    20    9   14 ar   
    21   10   11 ar   
    22   10  136 1    
    23   11   12 ar   
    24   11  126 1    
    25   12   13 ar   
    26   12  137 1    
    27   13   14 ar   
    28   13   15 1    
    29   14  138 1    
    30   15   16 1    
    31   15  139 1    
    32   15  140 1    
    33   16   17 1    
    34   17   18 1    
    35   17  141 1    
    36   17  142 1    
    37   18   19 1    
    38   18   67 1    
    39   18  143 1    
    40   19   20 am   BACKBONE|DICT|INTERRES
    41   19  144 1    
    42   20   21 2    
    43   20   22 1    
    44   22   23 1    
    45   22   24 1    
    46   22  145 1    
    47   23  146 1    
    48   23  147 1    
    49   23  148 1    
    50   24   25 am   BACKBONE|DICT|INTERRES
    51   24  149 1    
    52   25   26 2    
    53   25   27 1    
    54   27   28 1    
    55   27   29 1    
    56   27  150 1    
    57   28  151 1    
    58   28  152 1    
    59   28  153 1    
    60   29   30 am   BACKBONE|DICT|INTERRES
    61   29  154 1    
    62   30   31 2    
    63   30   32 1    
    64   32   33 1    
    65   32   34 1    
    66   32  155 1    
    67   33  156 1    
    68   33  157 1    
    69   33  158 1    
    70   34   35 am   BACKBONE|DICT|INTERRES
    71   34  159 1    
    72   35   36 2    
    73   35   37 1    
    74   37   38 1    
    75   37   39 1    
    76   37  160 1    
    77   38  161 1    
    78   38  162 1    
    79   38  163 1    
    80   39   40 am   BACKBONE|DICT|INTERRES
    81   39  164 1    
    82   40   41 2    
    83   40   42 1    
    84   42   43 1    
    85   42   44 1    
    86   42  165 1    
    87   43  166 1    
    88   43  167 1    
    89   43  168 1    
    90   44   45 am   BACKBONE|DICT|INTERRES
    91   44  169 1    
    92   45   46 2    
    93   45   47 1    
    94   47   48 1    
    95   47   49 1    
    96   47  170 1    
    97   48  171 1    
    98   48  172 1    
    99   48  173 1    
   100   49   50 am   BACKBONE|DICT|INTERRES
   101   49  174 1    
   102   50   51 2    
   103   50   52 1    
   104   52   53 1    
   105   52   54 1    
   106   52  175 1    
   107   53  176 1    
   108   53  177 1    
   109   53  178 1    
   110   54   55 am   BACKBONE|DICT|INTERRES
   111   54  179 1    
   112   55   56 2    
   113   55   57 1    
   114   57   58 1    
   115   57   59 1    
   116   57  180 1    
   117   58  181 1    
   118   58  182 1    
   119   58  183 1    
   120   59   60 am   BACKBONE|DICT|INTERRES
   121   59  184 1    
   122   60   61 2    
   123   60   62 1    
   124   62   63 1    
   125   62   64 1    
   126   62  185 1    
   127   63  186 1    
   128   63  187 1    
   129   63  188 1    
   130   64   65 am   BACKBONE|DICT|INTERRES
   131   64  189 1    
   132   65   66 2    
   133   67   68 2    
   134   67   69 am   BACKBONE|DICT|INTERRES
   135   69   70 1    
   136   69  190 1    
   137   70   71 1    
   138   70   72 1    
   139   70  191 1    
   140   71  192 1    
   141   71  193 1    
   142   71  194 1    
   143   72   73 2    
   144   72   74 am   BACKBONE|DICT|INTERRES
   145   74   75 1    
   146   74  195 1    
   147   75   76 1    
   148   75   77 1    
   149   75  196 1    
   150   76  197 1    
   151   76  198 1    
   152   76  199 1    
   153   77   78 2    
   154   77   79 am   BACKBONE|DICT|INTERRES
   155   79   80 1    
   156   79  200 1    
   157   80   81 1    
   158   80   82 1    
   159   80  201 1    
   160   81  202 1    
   161   81  203 1    
   162   81  204 1    
   163   82   83 2    
   164   82   84 am   BACKBONE|DICT|INTERRES
   165   84   85 1    
   166   84  205 1    
   167   85   86 1    
   168   85   87 1    
   169   85  206 1    
   170   86  207 1    
   171   86  208 1    
   172   86  209 1    
   173   87   88 2    
   174   87   89 am   BACKBONE|DICT|INTERRES
   175   89   90 1    
   176   89  210 1    
   177   90   91 1    
   178   90   92 1    
   179   90  211 1    
   180   91  212 1    
   181   91  213 1    
   182   91  214 1    
   183   92   93 2    
   184   92   94 am   BACKBONE|DICT|INTERRES
   185   94   95 1    
   186   94  215 1    
   187   95   96 1    
   188   95   97 1    
   189   95  216 1    
   190   96  217 1    
   191   96  218 1    
   192   96  219 1    
   193   97   98 2    
   194   97   99 am   BACKBONE|DICT|INTERRES
   195   99  100 1    
   196   99  220 1    
   197  100  101 1    
   198  100  102 1    
   199  100  221 1    
   200  101  222 1    
   201  101  223 1    
   202  101  224 1    
   203  102  103 2    
   204  102  104 am   BACKBONE|DICT|INTERRES
   205  104  105 1    
   206  104  225 1    
   207  105  106 1    
   208  105  107 1    
   209  105  226 1    
   210  106  227 1    
   211  106  228 1    
   212  106  229 1    
   213  107  108 2    
   214  107  109 am   BACKBONE|DICT|INTERRES
   215  109  110 1    
   216  109  230 1    
   217  110  111 1    
   218  110  112 1    
   219  110  231 1    
   220  111  232 1    
   221  111  233 1    
   222  111  234 1    
   223  112  113 2    
   224  112  114 am   BACKBONE|DICT|INTERRES
   225  114  115 1    
   226  114  235 1    
   227  115  116 1    
   228  115  117 1    
   229  115  236 1    
   230  116  237 1    
   231  116  238 1    
   232  116  239 1    
   233  117  118 2    
   234  117  119 am   BACKBONE|DICT|INTERRES
   235  119  120 1    
   236  119  240 1    
   237  120  121 1    
   238  120  124 1    
   239  120  241 1    
   240  121  122 am   BACKBONE|DICT|INTERRES
   241  121  123 2    
   242  122  242 1    
   243  122  243 1    
   244  124  125 1    
   245  124  244 1    
   246  124  245 1    
   247  125  126 1    
   248  126  246 1    
   249  126  247 1    
@<TRIPOS>SUBSTRUCTURE
     1 UNK         1 GROUP             0       ****    0 ROOT    
