@<TRIPOS>MOLECULE
3R540
247   249    1
SMALL
USER_CHARGES


@<TRIPOS>ATOM
      1 CA          6.9603  -18.4708  -47.5275 C.3       0 UNK        -0.1800 
      2 C           5.6046  -17.7806  -47.5167 C.2       0 UNK         0.5000 
      3 O           4.7161  -18.1886  -46.7715 O.2       0 UNK        -0.5000 
      4 N           5.4496  -16.7217  -48.3226 N.am      1 UNK        -0.5000 
      5 CA          4.2019  -15.9682  -48.5301 C.3       1 UNK         0.1400 
      6 C6          4.3468  -14.9009  -49.6468 C.3       23 UNK        -0.0398 
      7 S7          5.0187  -15.5647  -51.2110 S.3       23 UNK        -0.2404 
      8 C8          3.5762  -15.4742  -52.3271 C.3       23 UNK        -0.0205 
      9 C9          2.4213  -16.3871  -51.9258 C.ar      23 UNK        -0.0193 
     10 C10         1.1051  -15.9229  -52.0112 C.ar      23 UNK        -0.1150 
     11 C11         0.0313  -16.7514  -51.6700 C.ar      23 UNK        -0.0193 
     12 C12         0.2796  -18.0507  -51.2200 C.ar      23 UNK        -0.1150 
     13 C13         1.5911  -18.5254  -51.1274 C.ar      23 UNK        -0.0193 
     14 C14         2.6528  -17.6984  -51.4997 C.ar      23 UNK        -0.1150 
     15 C15         1.8735  -19.9272  -50.6157 C.3       23 UNK        -0.0205 
     16 S16         2.5767  -19.8979  -48.9349 S.3       23 UNK        -0.2404 
     17 C17         1.1735  -19.2880  -47.9360 C.3       23 UNK        -0.0398 
     18 CA          0.4147  -20.4320  -47.2257 C.3       11 UNK         0.1400 
     19 N          -0.4394  -19.9395  -46.1468 N.am      11 UNK        -0.5000 
     20 C          -1.0680  -20.7246  -45.2621 C.2       10 UNK         0.5000 
     21 O          -0.9694  -21.9509  -45.2375 O.2       10 UNK        -0.5000 
     22 CA         -2.0039  -20.0266  -44.2665 C.3       10 UNK         0.1400 
     23 CB         -1.2198  -19.4539  -43.0798 C.3       10 UNK        -0.1800 
     24 N          -2.7973  -18.9718  -44.8960 N.am      10 UNK        -0.5000 
     25 C          -3.7693  -19.2004  -45.7891 C.2       9 UNK         0.5000 
     26 O          -4.0924  -20.3231  -46.1751 O.2       9 UNK        -0.5000 
     27 CA         -4.4744  -17.9629  -46.3676 C.3       9 UNK         0.1400 
     28 CB         -5.4752  -17.3781  -45.3602 C.3       9 UNK        -0.1800 
     29 N          -3.5385  -16.9193  -46.7837 N.am      9 UNK        -0.5000 
     30 C          -2.6598  -17.0439  -47.7872 C.2       8 UNK         0.5000 
     31 O          -2.5245  -18.0593  -48.4687 O.2       8 UNK        -0.5000 
     32 CA         -1.7575  -15.8304  -48.0597 C.3       8 UNK         0.1400 
     33 CB         -2.5447  -14.7360  -48.7978 C.3       8 UNK        -0.1800 
     34 N          -1.1421  -15.2396  -46.8711 N.am      8 UNK        -0.5000 
     35 C          -0.4936  -15.8809  -45.8897 C.2       7 UNK         0.5000 
     36 O          -0.4283  -17.1070  -45.7863 O.2       7 UNK        -0.5000 
     37 CA          0.2455  -15.0082  -44.8620 C.3       7 UNK         0.1400 
     38 CB          0.2337  -13.4901  -45.1597 C.3       7 UNK        -0.1800 
     39 N          -0.1855  -15.2645  -43.4934 N.am      7 UNK        -0.5000 
     40 C          -1.3809  -15.0072  -42.9460 C.2       6 UNK         0.5000 
     41 O          -2.3678  -14.6345  -43.5813 O.2       6 UNK        -0.5000 
     42 CA         -1.4660  -15.1396  -41.4129 C.3       6 UNK         0.1400 
     43 CB         -2.0479  -16.4978  -41.0012 C.3       6 UNK        -0.1800 
     44 N          -0.1504  -14.9861  -40.7910 N.am      6 UNK        -0.5000 
     45 C           0.4475  -13.8220  -40.5040 C.2       5 UNK         0.5000 
     46 O          -0.1141  -12.7314  -40.6154 O.2       5 UNK        -0.5000 
     47 CA          1.9309  -13.8659  -40.0650 C.3       5 UNK         0.1400 
     48 CB          2.1667  -13.1157  -38.7382 C.3       5 UNK        -0.1800 
     49 N           2.5151  -15.2150  -40.0386 N.am      5 UNK        -0.5000 
     50 C           2.2203  -16.2309  -39.2114 C.2       4 UNK         0.5000 
     51 O           1.4751  -16.1186  -38.2375 O.2       4 UNK        -0.5000 
     52 CA          2.8167  -17.6175  -39.5513 C.3       4 UNK         0.1400 
     53 CB          1.8404  -18.7615  -39.2039 C.3       4 UNK        -0.1800 
     54 N           3.2856  -17.7726  -40.9367 N.am      4 UNK        -0.5000 
     55 C           2.5723  -17.6261  -42.0634 C.2       3 UNK         0.5000 
     56 O           1.4006  -17.2439  -42.0958 O.2       3 UNK        -0.5000 
     57 CA          3.3189  -17.9216  -43.3797 C.3       3 UNK         0.1400 
     58 CB          2.5196  -18.9403  -44.2106 C.3       3 UNK        -0.1800 
     59 N           3.6050  -16.7472  -44.2169 N.am      3 UNK        -0.5000 
     60 C           3.9139  -15.4948  -43.8372 C.2       2 UNK         0.5000 
     61 O           3.9715  -15.1250  -42.6629 O.2       2 UNK        -0.5000 
     62 CA          4.2158  -14.4692  -44.9542 C.3       2 UNK         0.1400 
     63 CB          5.3941  -13.5554  -44.5742 C.3       2 UNK        -0.1800 
     64 N           4.5173  -15.0935  -46.2443 N.am      2 UNK        -0.5000 
     65 C           3.6527  -15.3013  -47.2474 C.2       1 UNK         0.5000 
     66 O           2.4653  -14.9886  -47.1979 O.2       1 UNK        -0.5000 
     67 C          -0.3824  -21.3015  -48.2182 C.2       11 UNK         0.5000 
     68 O           0.0474  -22.4140  -48.5225 O.2       11 UNK        -0.5000 
     69 N          -1.5423  -20.8058  -48.6760 N.am      12 UNK        -0.5000 
     70 CA         -2.4301  -21.5286  -49.5866 C.3       12 UNK         0.1400 
     71 CB         -3.5622  -20.6076  -50.0545 C.3       12 UNK        -0.1800 
     72 C          -2.9916  -22.8239  -48.9763 C.2       12 UNK         0.5000 
     73 O          -3.0470  -23.8358  -49.6742 O.2       12 UNK        -0.5000 
     74 N          -3.3487  -22.7889  -47.6841 N.am      13 UNK        -0.5000 
     75 CA         -3.7871  -23.9573  -46.9204 C.3       13 UNK         0.1400 
     76 CB         -4.3191  -23.5165  -45.5487 C.3       13 UNK        -0.1800 
     77 C          -2.6793  -25.0150  -46.7637 C.2       13 UNK         0.5000 
     78 O          -2.9460  -26.1991  -46.9699 O.2       13 UNK        -0.5000 
     79 N          -1.4561  -24.5727  -46.4367 N.am      14 UNK        -0.5000 
     80 CA         -0.2721  -25.4249  -46.3008 C.3       14 UNK         0.1400 
     81 CB          0.8786  -24.6142  -45.6851 C.3       14 UNK        -0.1800 
     82 C           0.1646  -26.0626  -47.6326 C.2       14 UNK         0.5000 
     83 O           0.5307  -27.2383  -47.6536 O.2       14 UNK        -0.5000 
     84 N           0.0955  -25.2844  -48.7205 N.am      15 UNK        -0.5000 
     85 CA          0.3902  -25.7260  -50.0844 C.3       15 UNK         0.1400 
     86 CB          0.6029  -24.4852  -50.9670 C.3       15 UNK        -0.1800 
     87 C          -0.7057  -26.6242  -50.6928 C.2       15 UNK         0.5000 
     88 O          -0.4345  -27.3080  -51.6806 O.2       15 UNK        -0.5000 
     89 N          -1.9183  -26.5798  -50.1186 N.am      16 UNK        -0.5000 
     90 CA         -3.1672  -27.1674  -50.6178 C.3       16 UNK         0.1400 
     91 CB         -3.1048  -28.7087  -50.6021 C.3       16 UNK        -0.1800 
     92 C          -3.5641  -26.5791  -51.9898 C.2       16 UNK         0.5000 
     93 O          -3.9784  -27.3082  -52.8936 O.2       16 UNK        -0.5000 
     94 N          -3.3876  -25.2597  -52.1195 N.am      17 UNK        -0.5000 
     95 CA         -3.6365  -24.4825  -53.3276 C.3       17 UNK         0.1400 
     96 CB         -2.7396  -23.2327  -53.2862 C.3       17 UNK        -0.1800 
     97 C          -5.1148  -24.0759  -53.4537 C.2       17 UNK         0.5000 
     98 O          -5.8729  -24.1473  -52.4828 O.2       17 UNK        -0.5000 
     99 N          -5.4735  -23.6106  -54.6532 N.am      18 UNK        -0.5000 
    100 CA        -6.7128  -22.9028  -54.9504 C.3       18 UNK         0.1400 
    101 CB        -7.5272  -23.7107  -55.9729 C.3       18 UNK        -0.1800 
    102 C         -6.3117  -21.5317  -55.5329 C.2       18 UNK         0.5000 
    103 O         -5.3709  -21.4904  -56.3281 O.2       18 UNK        -0.5000 
    104 N         -6.9818  -20.4191  -55.2023 N.am      19 UNK        -0.5000 
    105 CA        -8.0522  -20.2524  -54.2144 C.3       19 UNK         0.1400 
    106 CB        -8.6842  -18.8670  -54.4365 C.3       19 UNK        -0.1800 
    107 C         -7.5571  -20.4013  -52.7582 C.2       19 UNK         0.5000 
    108 O         -6.3654  -20.6134  -52.5247 O.2       19 UNK        -0.5000 
    109 N         -8.4844  -20.2679  -51.7998 N.am      20 UNK        -0.5000 
    110 CA        -8.2623  -20.4241  -50.3552 C.3       20 UNK         0.1400 
    111 CB        -9.6119  -20.2922  -49.6323 C.3       20 UNK        -0.1800 
    112 C         -7.2246  -19.4629  -49.7348 C.2       20 UNK         0.5000 
    113 O         -6.7264  -19.7437  -48.6462 O.2       20 UNK        -0.5000 
    114 N         -6.9070  -18.3698  -50.4372 N.am      21 UNK        -0.5000 
    115 CA        -5.8035  -17.4597  -50.1418 C.3       21 UNK         0.1400 
    116 CB        -6.3268  -16.2327  -49.3732 C.3       21 UNK        -0.1800 
    117 C         -5.0758  -17.1108  -51.4520 C.2       21 UNK         0.5000 
    118 O         -4.8190  -15.9387  -51.7230 O.2       21 UNK        -0.5000 
    119 N         -4.8225  -18.1467  -52.2638 N.am      22 UNK        -0.5000 
    120 CA        -4.1965  -18.1850  -53.6001 C.3       22 UNK         0.1400 
    121 C         -4.8957  -17.3762  -54.7346 C.2       22 UNK         0.5000 
    122 N         -5.6497  -16.3278  -54.4388 N.am      22 UNK        -0.7600 
    123 O         -4.7893  -17.7410  -55.9016 O.2       22 UNK        -0.5000 
    124 C124       -2.6491  -18.0164  -53.5800 C.3       23 UNK        -0.0398 
    125 S125       -2.0284  -16.2994  -53.4724 S.3       23 UNK        -0.2404 
    126 C126       -1.3919  -16.2280  -51.7708 C.3       23 UNK        -0.0205 
    127 H127        6.8454  -19.5134  -47.8241 H         1 UNK         0.0600 
    128 H128        7.4023  -18.4450  -46.5315 H         1 UNK         0.0600 
    129 H129        7.6531  -17.9938  -48.2211 H         1 UNK         0.0600 
    130 H130        6.2185  -16.4402  -48.9145 H         1 UNK         0.3000 
    131 H131        3.4478  -16.6902  -48.8503 H         1 UNK         0.0600 
    132 H132        3.3830  -14.4281  -49.8460 H         1 UNK         0.0800 
    133 H133        5.0124  -14.0995  -49.3209 H         1 UNK         0.0800 
    134 H134        3.2452  -14.4361  -52.3856 H         1 UNK         0.0800 
    135 H135        3.8974  -15.7508  -53.3320 H         1 UNK         0.0800 
    136 H136        0.9108  -14.9163  -52.3544 H         1 UNK         0.1150 
    137 H137       -0.5457  -18.6880  -50.9342 H         1 UNK         0.1150 
    138 H138        3.6643  -18.0740  -51.4344 H         1 UNK         0.1150 
    139 H139        0.9720  -20.5402  -50.6368 H         1 UNK         0.0800 
    140 H140        2.5846  -20.4154  -51.2836 H         1 UNK         0.0800 
    141 H141        1.5966  -18.6125  -47.1909 H         1 UNK         0.0800 
    142 H142        0.4986  -18.6742  -48.5326 H         1 UNK         0.0800 
    143 H143        1.1584  -21.0788  -46.7545 H         1 UNK         0.0600 
    144 H144       -0.5580  -18.9307  -46.0759 H         1 UNK         0.3000 
    145 H145       -2.6890  -20.7840  -43.8796 H         1 UNK         0.0600 
    146 H146       -0.5196  -20.1858  -42.6748 H         1 UNK         0.0600 
    147 H147       -0.6466  -18.5695  -43.3599 H         1 UNK         0.0600 
    148 H148       -1.9004  -19.1822  -42.2748 H         1 UNK         0.0600 
    149 H149       -2.5346  -18.0181  -44.6940 H         1 UNK         0.3000 
    150 H150       -5.0328  -18.2870  -47.2453 H         1 UNK         0.0600 
    151 H151       -6.1913  -18.1356  -45.0388 H         1 UNK         0.0600 
    152 H152       -6.0455  -16.5609  -45.8023 H         1 UNK         0.0600 
    153 H153       -4.9764  -16.9959  -44.4686 H         1 UNK         0.0600 
    154 H154       -3.5493  -16.0573  -46.2575 H         1 UNK         0.3000 
    155 H155       -0.9457  -16.1694  -48.7064 H         1 UNK         0.0600 
    156 H156       -1.8802  -13.9575  -49.1729 H         1 UNK         0.0600 
    157 H157       -3.2811  -14.2621  -48.1477 H         1 UNK         0.0600 
    158 H158       -3.0862  -15.1403  -49.6530 H         1 UNK         0.0600 
    159 H159       -1.1320  -14.2309  -46.8418 H         1 UNK         0.3000 
    160 H160        1.2792  -15.3405  -44.9039 H         1 UNK         0.0600 
    161 H161       -0.7719  -13.0694  -45.1324 H         1 UNK         0.0600 
    162 H162        0.6591  -13.2736  -46.1402 H         1 UNK         0.0600 
    163 H163        0.8346  -12.9490  -44.4285 H         1 UNK         0.0600 
    164 H164        0.5040  -15.7182  -42.9020 H         1 UNK         0.3000 
    165 H165       -2.1348  -14.3559  -41.0512 H         1 UNK         0.0600 
    166 H166       -1.3320  -17.2996  -41.1761 H         1 UNK         0.0600 
    167 H167       -2.2992  -16.5081  -39.9406 H         1 UNK         0.0600 
    168 H168       -2.9583  -16.7289  -41.5560 H         1 UNK         0.0600 
    169 H169        0.4036  -15.8297  -40.7166 H         1 UNK         0.3000 
    170 H170        2.4815  -13.3316  -40.8406 H         1 UNK         0.0600 
    171 H171        1.8941  -12.0641  -38.8334 H         1 UNK         0.0600 
    172 H172        1.5731  -13.5289  -37.9227 H         1 UNK         0.0600 
    173 H173        3.2158  -13.1524  -38.4446 H         1 UNK         0.0600 
    174 H174        3.1221  -15.4172  -40.8282 H         1 UNK         0.3000 
    175 H175        3.6970  -17.7279  -38.9168 H         1 UNK         0.0600 
    176 H176        0.9057  -18.6769  -39.7597 H         1 UNK         0.0600 
    177 H177        2.2766  -19.7346  -39.4293 H         1 UNK         0.0600 
    178 H178        1.5911  -18.7604  -38.1421 H         1 UNK         0.0600 
    179 H179        4.2576  -18.0342  -41.0267 H         1 UNK         0.3000 
    180 H180        4.2807  -18.3751  -43.1347 H         1 UNK         0.0600 
    181 H181        1.5999  -18.5015  -44.5976 H         1 UNK         0.0600 
    182 H182        2.2398  -19.8083  -43.6121 H         1 UNK         0.0600 
    183 H183        3.0961  -19.3094  -45.0577 H         1 UNK         0.0600 
    184 H184        3.6464  -16.9437  -45.2090 H         1 UNK         0.3000 
    185 H185        3.3294  -13.8401  -45.0532 H         1 UNK         0.0600 
    186 H186        5.5931  -12.8234  -45.3571 H         1 UNK         0.0600 
    187 H187        5.1841  -12.9973  -43.6608 H         1 UNK         0.0600 
    188 H188        6.3083  -14.1266  -44.4083 H         1 UNK         0.0600 
    189 H189        5.4669  -15.4130  -46.3728 H         1 UNK         0.3000 
    190 H190       -1.8451  -19.8775  -48.3931 H         1 UNK         0.3000 
    191 H191       -1.8409  -21.8082  -50.4621 H         1 UNK         0.0600 
    192 H192       -4.2443  -21.1281  -50.7281 H         1 UNK         0.0600 
    193 H193       -3.1667  -19.7442  -50.5884 H         1 UNK         0.0600 
    194 H194       -4.1462  -20.2427  -49.2096 H         1 UNK         0.0600 
    195 H195       -3.3260  -21.9036  -47.1878 H         1 UNK         0.3000 
    196 H196       -4.6112  -24.4203  -47.4673 H         1 UNK         0.0600 
    197 H197       -4.6536  -24.3744  -44.9642 H         1 UNK         0.0600 
    198 H198       -5.1708  -22.8444  -45.6553 H         1 UNK         0.0600 
    199 H199       -3.5558  -22.9990  -44.9671 H         1 UNK         0.0600 
    200 H200       -1.3240  -23.5835  -46.2440 H         1 UNK         0.3000 
    201 H201       -0.5212  -26.2350  -45.6123 H         1 UNK         0.0600 
    202 H202        0.6101  -24.2373  -44.6981 H         1 UNK         0.0600 
    203 H203        1.1468  -23.7594  -46.3071 H         1 UNK         0.0600 
    204 H204        1.7717  -25.2288  -45.5667 H         1 UNK         0.0600 
    205 H205       -0.1448  -24.3024  -48.6049 H         1 UNK         0.3000 
    206 H206        1.3186  -26.3004  -50.0701 H         1 UNK         0.0600 
    207 H207        1.4204  -23.8690  -50.5919 H         1 UNK         0.0600 
    208 H208        0.8513  -24.7674  -51.9908 H         1 UNK         0.0600 
    209 H209       -0.2929  -23.8641  -51.0050 H         1 UNK         0.0600 
    210 H210       -2.0277  -25.9557  -49.3299 H         1 UNK         0.3000 
    211 H211       -3.9464  -26.8617  -49.9179 H         1 UNK         0.0600 
    212 H212       -2.3872  -29.0959  -51.3257 H         1 UNK         0.0600 
    213 H213       -4.0768  -29.1393  -50.8451 H         1 UNK         0.0600 
    214 H214       -2.8225  -29.0802  -49.6170 H         1 UNK         0.0600 
    215 H215       -3.1392  -24.7310  -51.2862 H         1 UNK         0.3000 
    216 H216       -3.3634  -25.0816  -54.1989 H         1 UNK         0.0600 
    217 H217       -2.8233  -22.6540  -54.2069 H         1 UNK         0.0600 
    218 H218       -3.0119  -22.5735  -52.4619 H         1 UNK         0.0600 
    219 H219       -1.6898  -23.5023  -53.1689 H         1 UNK         0.0600 
    220 H220       -4.7705  -23.5280  -55.3759 H         1 UNK         0.3000 
    221 H221       -7.3104  -22.7945  -54.0473 H         1 UNK         0.0600 
    222 H222       -6.9810  -23.8508  -56.9067 H         1 UNK         0.0600 
    223 H223       -7.7797  -24.6967  -55.5825 H         1 UNK         0.0600 
    224 H224       -8.4633  -23.2045  -56.2113 H         1 UNK         0.0600 
    225 H225       -6.6615  -19.5591  -55.6226 H         1 UNK         0.3000 
    226 H226       -8.8153  -21.0115  -54.3957 H         1 UNK         0.0600 
    227 H227       -9.0104  -18.7440  -55.4697 H         1 UNK         0.0600 
    228 H228       -9.5635  -18.7195  -53.8087 H         1 UNK         0.0600 
    229 H229       -7.9821  -18.0633  -54.2119 H         1 UNK         0.0600 
    230 H230       -9.4387  -20.0842  -52.0749 H         1 UNK         0.3000 
    231 H231       -7.8870  -21.4368  -50.1938 H         1 UNK         0.0600 
    232 H232       -9.4970  -20.4369  -48.5571 H         1 UNK         0.0600 
    233 H233      -10.3237  -21.0396  -49.9832 H         1 UNK         0.0600 
    234 H234      -10.0541  -19.3069  -49.7850 H         1 UNK         0.0600 
    235 H235       -7.3798  -18.2182  -51.3167 H         1 UNK         0.3000 
    236 H236       -5.0642  -17.9657  -49.5210 H         1 UNK         0.0600 
    237 H237       -5.5137  -15.5539  -49.1153 H         1 UNK         0.0600 
    238 H238       -7.0539  -15.6716  -49.9610 H         1 UNK         0.0600 
    239 H239       -6.8064  -16.5300  -48.4406 H         1 UNK         0.0600 
    240 H240       -5.1771  -19.0512  -51.9710 H         1 UNK         0.3000 
    241 H241       -4.3608  -19.2223  -53.8961 H         1 UNK         0.0600 
    242 H242       -5.6318  -15.9732  -53.4886 H         1 UNK         0.3800 
    243 H243       -6.1070  -15.8086  -55.1708 H         1 UNK         0.3800 
    244 H244       -2.2235  -18.6132  -52.7734 H         1 UNK         0.0800 
    245 H245       -2.2347  -18.4420  -54.4952 H         1 UNK         0.0800 
    246 H246       -2.0553  -16.7798  -51.1036 H         1 UNK         0.0800 
    247 H247       -1.4154  -15.1890  -51.4412 H         1 UNK         0.0800 
@<TRIPOS>BOND
     1    1    2 1    
     2    1  127 1    
     3    1  128 1    
     4    1  129 1    
     5    2    3 2    
     6    2    4 am   BACKBONE|DICT|INTERRES
     7    4    5 1    
     8    4  130 1    
     9    5    6 1    
    10    5   65 1    
    11    5  131 1    
    12    6    7 1    
    13    6  132 1    
    14    6  133 1    
    15    7    8 1    
    16    8    9 1    
    17    8  134 1    
    18    8  135 1    
    19    9   10 ar   
    20    9   14 ar   
    21   10   11 ar   
    22   10  136 1    
    23   11   12 ar   
    24   11  126 1    
    25   12   13 ar   
    26   12  137 1    
    27   13   14 ar   
    28   13   15 1    
    29   14  138 1    
    30   15   16 1    
    31   15  139 1    
    32   15  140 1    
    33   16   17 1    
    34   17   18 1    
    35   17  141 1    
    36   17  142 1    
    37   18   19 1    
    38   18   67 1    
    39   18  143 1    
    40   19   20 am   BACKBONE|DICT|INTERRES
    41   19  144 1    
    42   20   21 2    
    43   20   22 1    
    44   22   23 1    
    45   22   24 1    
    46   22  145 1    
    47   23  146 1    
    48   23  147 1    
    49   23  148 1    
    50   24   25 am   BACKBONE|DICT|INTERRES
    51   24  149 1    
    52   25   26 2    
    53   25   27 1    
    54   27   28 1    
    55   27   29 1    
    56   27  150 1    
    57   28  151 1    
    58   28  152 1    
    59   28  153 1    
    60   29   30 am   BACKBONE|DICT|INTERRES
    61   29  154 1    
    62   30   31 2    
    63   30   32 1    
    64   32   33 1    
    65   32   34 1    
    66   32  155 1    
    67   33  156 1    
    68   33  157 1    
    69   33  158 1    
    70   34   35 am   BACKBONE|DICT|INTERRES
    71   34  159 1    
    72   35   36 2    
    73   35   37 1    
    74   37   38 1    
    75   37   39 1    
    76   37  160 1    
    77   38  161 1    
    78   38  162 1    
    79   38  163 1    
    80   39   40 am   BACKBONE|DICT|INTERRES
    81   39  164 1    
    82   40   41 2    
    83   40   42 1    
    84   42   43 1    
    85   42   44 1    
    86   42  165 1    
    87   43  166 1    
    88   43  167 1    
    89   43  168 1    
    90   44   45 am   BACKBONE|DICT|INTERRES
    91   44  169 1    
    92   45   46 2    
    93   45   47 1    
    94   47   48 1    
    95   47   49 1    
    96   47  170 1    
    97   48  171 1    
    98   48  172 1    
    99   48  173 1    
   100   49   50 am   BACKBONE|DICT|INTERRES
   101   49  174 1    
   102   50   51 2    
   103   50   52 1    
   104   52   53 1    
   105   52   54 1    
   106   52  175 1    
   107   53  176 1    
   108   53  177 1    
   109   53  178 1    
   110   54   55 am   BACKBONE|DICT|INTERRES
   111   54  179 1    
   112   55   56 2    
   113   55   57 1    
   114   57   58 1    
   115   57   59 1    
   116   57  180 1    
   117   58  181 1    
   118   58  182 1    
   119   58  183 1    
   120   59   60 am   BACKBONE|DICT|INTERRES
   121   59  184 1    
   122   60   61 2    
   123   60   62 1    
   124   62   63 1    
   125   62   64 1    
   126   62  185 1    
   127   63  186 1    
   128   63  187 1    
   129   63  188 1    
   130   64   65 am   BACKBONE|DICT|INTERRES
   131   64  189 1    
   132   65   66 2    
   133   67   68 2    
   134   67   69 am   BACKBONE|DICT|INTERRES
   135   69   70 1    
   136   69  190 1    
   137   70   71 1    
   138   70   72 1    
   139   70  191 1    
   140   71  192 1    
   141   71  193 1    
   142   71  194 1    
   143   72   73 2    
   144   72   74 am   BACKBONE|DICT|INTERRES
   145   74   75 1    
   146   74  195 1    
   147   75   76 1    
   148   75   77 1    
   149   75  196 1    
   150   76  197 1    
   151   76  198 1    
   152   76  199 1    
   153   77   78 2    
   154   77   79 am   BACKBONE|DICT|INTERRES
   155   79   80 1    
   156   79  200 1    
   157   80   81 1    
   158   80   82 1    
   159   80  201 1    
   160   81  202 1    
   161   81  203 1    
   162   81  204 1    
   163   82   83 2    
   164   82   84 am   BACKBONE|DICT|INTERRES
   165   84   85 1    
   166   84  205 1    
   167   85   86 1    
   168   85   87 1    
   169   85  206 1    
   170   86  207 1    
   171   86  208 1    
   172   86  209 1    
   173   87   88 2    
   174   87   89 am   BACKBONE|DICT|INTERRES
   175   89   90 1    
   176   89  210 1    
   177   90   91 1    
   178   90   92 1    
   179   90  211 1    
   180   91  212 1    
   181   91  213 1    
   182   91  214 1    
   183   92   93 2    
   184   92   94 am   BACKBONE|DICT|INTERRES
   185   94   95 1    
   186   94  215 1    
   187   95   96 1    
   188   95   97 1    
   189   95  216 1    
   190   96  217 1    
   191   96  218 1    
   192   96  219 1    
   193   97   98 2    
   194   97   99 am   BACKBONE|DICT|INTERRES
   195   99  100 1    
   196   99  220 1    
   197  100  101 1    
   198  100  102 1    
   199  100  221 1    
   200  101  222 1    
   201  101  223 1    
   202  101  224 1    
   203  102  103 2    
   204  102  104 am   BACKBONE|DICT|INTERRES
   205  104  105 1    
   206  104  225 1    
   207  105  106 1    
   208  105  107 1    
   209  105  226 1    
   210  106  227 1    
   211  106  228 1    
   212  106  229 1    
   213  107  108 2    
   214  107  109 am   BACKBONE|DICT|INTERRES
   215  109  110 1    
   216  109  230 1    
   217  110  111 1    
   218  110  112 1    
   219  110  231 1    
   220  111  232 1    
   221  111  233 1    
   222  111  234 1    
   223  112  113 2    
   224  112  114 am   BACKBONE|DICT|INTERRES
   225  114  115 1    
   226  114  235 1    
   227  115  116 1    
   228  115  117 1    
   229  115  236 1    
   230  116  237 1    
   231  116  238 1    
   232  116  239 1    
   233  117  118 2    
   234  117  119 am   BACKBONE|DICT|INTERRES
   235  119  120 1    
   236  119  240 1    
   237  120  121 1    
   238  120  124 1    
   239  120  241 1    
   240  121  122 am   BACKBONE|DICT|INTERRES
   241  121  123 2    
   242  122  242 1    
   243  122  243 1    
   244  124  125 1    
   245  124  244 1    
   246  124  245 1    
   247  125  126 1    
   248  126  246 1    
   249  126  247 1    
@<TRIPOS>SUBSTRUCTURE
     1 UNK         1 GROUP             0       ****    0 ROOT    
