@<TRIPOS>MOLECULE
3R540
247   249    1
SMALL
USER_CHARGES


@<TRIPOS>ATOM
      1 CA          1.3325  -10.5480  -51.6888 C.3       0 UNK        -0.1800 
      2 C           2.4744  -10.9673  -50.7734 C.2       0 UNK         0.5000 
      3 O           3.5560  -10.3815  -50.8341 O.2       0 UNK        -0.5000 
      4 N           2.2403  -11.9839  -49.9352 N.am      1 UNK        -0.5000 
      5 CA          3.1946  -12.5016  -48.9491 C.3       1 UNK         0.1400 
      6 C6          2.7264  -13.8488  -48.3486 C.3       23 UNK        -0.0398 
      7 S7          2.5403  -15.1520  -49.6087 S.3       23 UNK        -0.2404 
      8 C8          0.8908  -15.8126  -49.1947 C.3       23 UNK        -0.0205 
      9 C9          0.6173  -17.1714  -49.8288 C.ar      23 UNK        -0.0193 
     10 C10        -0.6398  -17.4473  -50.3764 C.ar      23 UNK        -0.1150 
     11 C11        -0.9279  -18.7129  -50.8976 C.ar      23 UNK        -0.0193 
     12 C12         0.0665  -19.6931  -50.9086 C.ar      23 UNK        -0.1150 
     13 C13         1.3180  -19.4404  -50.3413 C.ar      23 UNK        -0.0193 
     14 C14         1.5857  -18.1811  -49.8022 C.ar      23 UNK        -0.1150 
     15 C15         2.3628  -20.5428  -50.2617 C.3       23 UNK        -0.0205 
     16 S16         2.3184  -21.3873  -48.6473 S.3       23 UNK        -0.2404 
     17 C17         0.6319  -22.0754  -48.6837 C.3       23 UNK        -0.0398 
     18 CA          0.3675  -23.1002  -47.5635 C.3       11 UNK         0.1400 
     19 N           0.3567  -22.4840  -46.2329 N.am      11 UNK        -0.5000 
     20 C           0.3332  -23.1707  -45.0830 C.2       10 UNK         0.5000 
     21 O           0.3267  -24.3995  -45.0238 O.2       10 UNK        -0.5000 
     22 CA          0.2476  -22.3568  -43.7803 C.3       10 UNK         0.1400 
     23 CB          1.5986  -21.7130  -43.4346 C.3       10 UNK        -0.1800 
     24 N          -0.7985  -21.3365  -43.8315 N.am      10 UNK        -0.5000 
     25 C          -2.1067  -21.6075  -43.9519 C.2       9 UNK         0.5000 
     26 O          -2.5699  -22.7477  -43.9820 O.2       9 UNK        -0.5000 
     27 CA         -3.0571  -20.4069  -44.1036 C.3       9 UNK         0.1400 
     28 CB         -3.3968  -19.8112  -42.7294 C.3       9 UNK        -0.1800 
     29 N          -2.5269  -19.3606  -44.9793 N.am      9 UNK        -0.5000 
     30 C          -2.2180  -19.5350  -46.2724 C.2       8 UNK         0.5000 
     31 O          -2.3629  -20.6008  -46.8660 O.2       8 UNK        -0.5000 
     32 CA         -1.5730  -18.3460  -47.0059 C.3       8 UNK         0.1400 
     33 CB         -2.6143  -17.2780  -47.3692 C.3       8 UNK        -0.1800 
     34 N          -0.4871  -17.7390  -46.2374 N.am      8 UNK        -0.5000 
     35 C           0.6284  -18.3902  -45.8773 C.2       7 UNK         0.5000 
     36 O           0.8654  -19.5620  -46.1676 O.2       7 UNK        -0.5000 
     37 CA          1.6175  -17.6187  -44.9899 C.3       7 UNK         0.1400 
     38 CB          2.5136  -16.6921  -45.8266 C.3       7 UNK        -0.1800 
     39 N           0.9272  -16.8543  -43.9502 N.am      7 UNK        -0.5000 
     40 C           0.2899  -17.4154  -42.9119 C.2       6 UNK         0.5000 
     41 O           0.2836  -18.6257  -42.6847 O.2       6 UNK        -0.5000 
     42 CA         -0.5205  -16.4706  -42.0070 C.3       6 UNK         0.1400 
     43 CB          0.3760  -15.8200  -40.9445 C.3       6 UNK        -0.1800 
     44 N          -1.2220  -15.4361  -42.7708 N.am      6 UNK        -0.5000 
     45 C          -2.2648  -15.6937  -43.5746 C.2       5 UNK         0.5000 
     46 O          -2.7309  -16.8193  -43.7370 O.2       5 UNK        -0.5000 
     47 CA         -2.8887  -14.5199  -44.3495 C.3       5 UNK         0.1400 
     48 CB         -4.0794  -13.9400  -43.5720 C.3       5 UNK        -0.1800 
     49 N          -1.9550  -13.4422  -44.6644 N.am      5 UNK        -0.5000 
     50 C          -0.8487  -13.5530  -45.4105 C.2       4 UNK         0.5000 
     51 O          -0.4513  -14.6144  -45.8988 O.2       4 UNK        -0.5000 
     52 CA         -0.0371  -12.2599  -45.6354 C.3       4 UNK         0.1400 
     53 CB         -0.7345  -10.9758  -45.1333 C.3       4 UNK        -0.1800 
     54 N           1.3126  -12.3326  -45.0734 N.am      4 UNK        -0.5000 
     55 C           1.6726  -12.6776  -43.8266 C.2       3 UNK         0.5000 
     56 O           0.8761  -13.0499  -42.9635 O.2       3 UNK        -0.5000 
     57 CA          3.1761  -12.6026  -43.4811 C.3       3 UNK         0.1400 
     58 CB          3.7065  -13.9710  -43.0268 C.3       3 UNK        -0.1800 
     59 N           3.9919  -12.1326  -44.6054 N.am      3 UNK        -0.5000 
     60 C           4.2920  -10.8496  -44.8511 C.2       2 UNK         0.5000 
     61 O           3.9737   -9.9163  -44.1139 O.2       2 UNK        -0.5000 
     62 CA          5.0431  -10.5601  -46.1667 C.3       2 UNK         0.1400 
     63 CB          6.5614  -10.6582  -45.9540 C.3       2 UNK        -0.1800 
     64 N           4.6506  -11.4430  -47.2727 N.am      2 UNK        -0.5000 
     65 C           3.4253  -11.4825  -47.8148 C.2       1 UNK         0.5000 
     66 O           2.4817  -10.7994  -47.4110 O.2       1 UNK        -0.5000 
     67 C          -0.9285  -23.8821  -47.8595 C.2       11 UNK         0.5000 
     68 O          -0.8558  -24.9798  -48.4127 O.2       11 UNK        -0.5000 
     69 N          -2.0886  -23.3317  -47.4794 N.am      12 UNK        -0.5000 
     70 CA         -3.3931  -23.9792  -47.6287 C.3       12 UNK         0.1400 
     71 CB         -4.5071  -22.9852  -47.2701 C.3       12 UNK        -0.1800 
     72 C          -3.5224  -25.2690  -46.7961 C.2       12 UNK         0.5000 
     73 O          -4.1914  -26.2041  -47.2342 O.2       12 UNK        -0.5000 
     74 N          -2.8689  -25.3072  -45.6279 N.am      13 UNK        -0.5000 
     75 CA         -2.8052  -26.4783  -44.7603 C.3       13 UNK         0.1400 
     76 CB         -2.5088  -26.0324  -43.3191 C.3       13 UNK        -0.1800 
     77 C          -1.7656  -27.5052  -45.2439 C.2       13 UNK         0.5000 
     78 O          -2.1087  -28.6737  -45.4272 O.2       13 UNK        -0.5000 
     79 N          -0.5099  -27.0661  -45.4038 N.am      14 UNK        -0.5000 
     80 CA          0.6407  -27.9472  -45.6070 C.3       14 UNK         0.1400 
     81 CB          1.9136  -27.2439  -45.1096 C.3       14 UNK        -0.1800 
     82 C           0.8208  -28.4040  -47.0625 C.2       14 UNK         0.5000 
     83 O           1.1194  -29.5770  -47.2912 O.2       14 UNK        -0.5000 
     84 N           0.6654  -27.4761  -48.0147 N.am      15 UNK        -0.5000 
     85 CA          0.9095  -27.7129  -49.4407 C.3       15 UNK         0.1400 
     86 CB          1.6819  -26.5134  -50.0182 C.3       15 UNK        -0.1800 
     87 C          -0.3887  -27.9531  -50.2313 C.2       15 UNK         0.5000 
     88 O          -0.3117  -28.3343  -51.3999 O.2       15 UNK        -0.5000 
     89 N          -1.5459  -27.7107  -49.5957 N.am      16 UNK        -0.5000 
     90 CA         -2.8952  -27.7325  -50.1718 C.3       16 UNK         0.1400 
     91 CB         -3.2916  -29.1592  -50.6066 C.3       16 UNK        -0.1800 
     92 C          -3.0717  -26.6795  -51.2876 C.2       16 UNK         0.5000 
     93 O          -3.7329  -26.9462  -52.2935 O.2       16 UNK        -0.5000 
     94 N          -2.4464  -25.5083  -51.0985 N.am      17 UNK        -0.5000 
     95 CA         -2.4522  -24.3947  -52.0465 C.3       17 UNK         0.1400 
     96 CB         -1.4449  -23.3367  -51.5768 C.3       17 UNK        -0.1800 
     97 C          -3.8432  -23.7587  -52.2254 C.2       17 UNK         0.5000 
     98 O          -4.6478  -23.7490  -51.2905 O.2       17 UNK        -0.5000 
     99 N          -4.0729  -23.2026  -53.4182 N.am      18 UNK        -0.5000 
    100 CA        -5.2679  -22.4573  -53.7901 C.3       18 UNK         0.1400 
    101 CB        -6.2609  -23.3862  -54.5071 C.3       18 UNK        -0.1800 
    102 C         -4.8399  -21.2922  -54.6921 C.2       18 UNK         0.5000 
    103 O         -3.9680  -21.4709  -55.5460 O.2       18 UNK        -0.5000 
    104 N         -5.4642  -20.1329  -54.4767 N.am      19 UNK        -0.5000 
    105 CA        -5.2474  -18.8379  -55.1184 C.3       19 UNK         0.1400 
    106 CB        -3.7913  -18.3549  -54.9430 C.3       19 UNK        -0.1800 
    107 C         -6.2150  -17.8520  -54.4427 C.2       19 UNK         0.5000 
    108 O         -6.8634  -18.2180  -53.4571 O.2       19 UNK        -0.5000 
    109 N         -6.2704  -16.6073  -54.9327 N.am      20 UNK        -0.5000 
    110 CA        -7.1188  -15.5371  -54.3905 C.3       20 UNK         0.1400 
    111 CB        -6.9757  -14.2864  -55.2712 C.3       20 UNK        -0.1800 
    112 C         -6.8376  -15.1912  -52.9116 C.2       20 UNK         0.5000 
    113 O         -7.7628  -14.8180  -52.1900 O.2       20 UNK        -0.5000 
    114 N         -5.5756  -15.3420  -52.4862 N.am      21 UNK        -0.5000 
    115 CA        -5.1373  -15.1481  -51.1026 C.3       21 UNK         0.1400 
    116 CB        -3.6328  -14.8347  -51.1010 C.3       21 UNK        -0.1800 
    117 C         -5.4360  -16.3577  -50.1932 C.2       21 UNK         0.5000 
    118 O         -5.5859  -16.1746  -48.9850 O.2       21 UNK        -0.5000 
    119 N         -5.5008  -17.5604  -50.7784 N.am      22 UNK        -0.5000 
    120 CA        -5.7636  -18.8262  -50.0731 C.3       22 UNK         0.1400 
    121 C         -7.2731  -19.1912  -50.0192 C.2       22 UNK         0.5000 
    122 N         -8.0850  -18.8040  -50.9941 N.am      22 UNK        -0.7600 
    123 O         -7.7177  -19.8287  -49.0690 O.2       22 UNK        -0.5000 
    124 C124       -4.9318  -19.9890  -50.6767 C.3       23 UNK        -0.0398 
    125 S125       -3.2109  -19.9791  -50.0844 S.3       23 UNK        -0.2404 
    126 C126       -2.3303  -19.0516  -51.3759 C.3       23 UNK        -0.0205 
    127 H127        1.0638   -9.5085  -51.5008 H         1 UNK         0.0600 
    128 H128        0.4441  -11.1617  -51.5367 H         1 UNK         0.0600 
    129 H129        1.6344  -10.6403  -52.7321 H         1 UNK         0.0600 
    130 H130        1.3309  -12.4210  -49.9323 H         1 UNK         0.3000 
    131 H131        4.1463  -12.6638  -49.4601 H         1 UNK         0.0600 
    132 H132        3.4470  -14.2130  -47.6143 H         1 UNK         0.0800 
    133 H133        1.7839  -13.7217  -47.8129 H         1 UNK         0.0800 
    134 H134        0.7963  -15.9217  -48.1151 H         1 UNK         0.0800 
    135 H135        0.1368  -15.0856  -49.5000 H         1 UNK         0.0800 
    136 H136       -1.4098  -16.6910  -50.3524 H         1 UNK         0.1150 
    137 H137       -0.1560  -20.6734  -51.3031 H         1 UNK         0.1150 
    138 H138        2.5458  -17.9962  -49.3419 H         1 UNK         0.1150 
    139 H139        2.2140  -21.2709  -51.0607 H         1 UNK         0.0800 
    140 H140        3.3568  -20.1200  -50.4144 H         1 UNK         0.0800 
    141 H141       -0.0897  -21.2585  -48.6201 H         1 UNK         0.0800 
    142 H142        0.5018  -22.5380  -49.6617 H         1 UNK         0.0800 
    143 H143        1.1808  -23.8292  -47.5774 H         1 UNK         0.0600 
    144 H144        0.3867  -21.4679  -46.2036 H         1 UNK         0.3000 
    145 H145       -0.0069  -23.0500  -42.9757 H         1 UNK         0.0600 
    146 H146        2.3826  -22.4679  -43.3645 H         1 UNK         0.0600 
    147 H147        1.9087  -20.9880  -44.1867 H         1 UNK         0.0600 
    148 H148        1.5549  -21.1989  -42.4744 H         1 UNK         0.0600 
    149 H149       -0.4976  -20.3700  -43.7933 H         1 UNK         0.3000 
    150 H150       -3.9822  -20.7734  -44.5526 H         1 UNK         0.0600 
    151 H151       -3.7907  -20.5748  -42.0576 H         1 UNK         0.0600 
    152 H152       -4.1544  -19.0321  -42.8147 H         1 UNK         0.0600 
    153 H153       -2.5185  -19.3736  -42.2531 H         1 UNK         0.0600 
    154 H154       -2.4145  -18.4392  -44.5627 H         1 UNK         0.3000 
    155 H155       -1.1408  -18.7317  -47.9306 H         1 UNK         0.0600 
    156 H156       -2.1538  -16.4228  -47.8639 H         1 UNK         0.0600 
    157 H157       -3.3600  -17.6854  -48.0516 H         1 UNK         0.0600 
    158 H158       -3.1444  -16.9145  -46.4903 H         1 UNK         0.0600 
    159 H159       -0.5968  -16.7689  -45.9667 H         1 UNK         0.3000 
    160 H160        2.2608  -18.3577  -44.5072 H         1 UNK         0.0600 
    161 H161        2.0029  -15.7690  -46.0977 H         1 UNK         0.0600 
    162 H162        2.8342  -17.1767  -46.7502 H         1 UNK         0.0600 
    163 H163        3.4174  -16.4289  -45.2800 H         1 UNK         0.0600 
    164 H164        0.8272  -15.8602  -44.0987 H         1 UNK         0.3000 
    165 H165       -1.2687  -17.0734  -41.4873 H         1 UNK         0.0600 
    166 H166       -0.2045  -15.1899  -40.2705 H         1 UNK         0.0600 
    167 H167        0.8717  -16.5777  -40.3364 H         1 UNK         0.0600 
    168 H168        1.1520  -15.2028  -41.3945 H         1 UNK         0.0600 
    169 H169       -0.8534  -14.4937  -42.7200 H         1 UNK         0.3000 
    170 H170       -3.2623  -14.9124  -45.2963 H         1 UNK         0.0600 
    171 H171       -4.8123  -14.7155  -43.3444 H         1 UNK         0.0600 
    172 H172       -3.7650  -13.4976  -42.6259 H         1 UNK         0.0600 
    173 H173       -4.5923  -13.1709  -44.1498 H         1 UNK         0.0600 
    174 H174       -2.1779  -12.5343  -44.2835 H         1 UNK         0.3000 
    175 H175        0.0808  -12.1663  -46.7156 H         1 UNK         0.0600 
    176 H176       -0.8553  -10.9696  -44.0492 H         1 UNK         0.0600 
    177 H177       -0.1526  -10.0935  -45.4012 H         1 UNK         0.0600 
    178 H178       -1.7195  -10.8540  -45.5858 H         1 UNK         0.0600 
    179 H179        2.0390  -11.9947  -45.6903 H         1 UNK         0.3000 
    180 H180        3.2780  -11.9112  -42.6422 H         1 UNK         0.0600 
    181 H181        3.5648  -14.7311  -43.7926 H         1 UNK         0.0600 
    182 H182        3.1955  -14.3110  -42.1263 H         1 UNK         0.0600 
    183 H183        4.7700  -13.9241  -42.7922 H         1 UNK         0.0600 
    184 H184        4.3130  -12.8341  -45.2562 H         1 UNK         0.3000 
    185 H185        4.8067   -9.5349  -46.4597 H         1 UNK         0.0600 
    186 H186        6.8868   -9.9952  -45.1512 H         1 UNK         0.0600 
    187 H187        6.8673  -11.6707  -45.6876 H         1 UNK         0.0600 
    188 H188        7.1055  -10.3679  -46.8530 H         1 UNK         0.0600 
    189 H189        5.3776  -12.0332  -47.6522 H         1 UNK         0.3000 
    190 H190       -2.0927  -22.3891  -47.0919 H         1 UNK         0.3000 
    191 H191       -3.5121  -24.2511  -48.6792 H         1 UNK         0.0600 
    192 H192       -4.4755  -22.1097  -47.9193 H         1 UNK         0.0600 
    193 H193       -4.4217  -22.6423  -46.2387 H         1 UNK         0.0600 
    194 H194       -5.4910  -23.4406  -47.3879 H         1 UNK         0.0600 
    195 H195       -2.3815  -24.4767  -45.3125 H         1 UNK         0.3000 
    196 H196       -3.7815  -26.9679  -44.7580 H         1 UNK         0.0600 
    197 H197       -2.4452  -26.8902  -42.6486 H         1 UNK         0.0600 
    198 H198       -3.2976  -25.3817  -42.9411 H         1 UNK         0.0600 
    199 H199       -1.5674  -25.4866  -43.2469 H         1 UNK         0.0600 
    200 H200       -0.3010  -26.0810  -45.2481 H         1 UNK         0.3000 
    201 H201        0.5023  -28.8418  -44.9955 H         1 UNK         0.0600 
    202 H202        1.8215  -26.9556  -44.0623 H         1 UNK         0.0600 
    203 H203        2.1296  -26.3436  -45.6862 H         1 UNK         0.0600 
    204 H204        2.7803  -27.9010  -45.1916 H         1 UNK         0.0600 
    205 H205        0.3604  -26.5432  -47.7623 H         1 UNK         0.3000 
    206 H206        1.5338  -28.5989  -49.5733 H         1 UNK         0.0600 
    207 H207        2.6044  -26.3352  -49.4656 H         1 UNK         0.0600 
    208 H208        1.9577  -26.6930  -51.0580 H         1 UNK         0.0600 
    209 H209        1.0946  -25.5960  -49.9941 H         1 UNK         0.0600 
    210 H210       -1.4815  -27.3675  -48.6475 H         1 UNK         0.3000 
    211 H211       -3.5765  -27.4411  -49.3746 H         1 UNK         0.0600 
    212 H212       -2.7060  -29.5043  -51.4590 H         1 UNK         0.0600 
    213 H213       -4.3422  -29.1997  -50.8962 H         1 UNK         0.0600 
    214 H214       -3.1530  -29.8712  -49.7931 H         1 UNK         0.0600 
    215 H215       -1.9248  -25.3737  -50.2407 H         1 UNK         0.3000 
    216 H216       -2.1209  -24.7832  -53.0119 H         1 UNK         0.0600 
    217 H217       -1.7444  -22.8965  -50.6248 H         1 UNK         0.0600 
    218 H218       -1.3669  -22.5250  -52.3009 H         1 UNK         0.0600 
    219 H219       -0.4498  -23.7658  -51.4604 H         1 UNK         0.0600 
    220 H220       -3.3458  -23.1976  -54.1222 H         1 UNK         0.3000 
    221 H221       -5.7456  -22.0520  -52.8955 H         1 UNK         0.0600 
    222 H222       -5.8279  -23.8171  -55.4107 H         1 UNK         0.0600 
    223 H223       -6.5689  -24.2072  -53.8593 H         1 UNK         0.0600 
    224 H224       -7.1617  -22.8446  -54.7982 H         1 UNK         0.0600 
    225 H225       -6.2014  -20.0835  -53.7823 H         1 UNK         0.3000 
    226 H226       -5.4981  -18.9167  -56.1775 H         1 UNK         0.0600 
    227 H227       -3.0751  -19.0390  -55.3964 H         1 UNK         0.0600 
    228 H228       -3.6358  -17.3860  -55.4182 H         1 UNK         0.0600 
    229 H229       -3.5303  -18.2467  -53.8918 H         1 UNK         0.0600 
    230 H230       -5.7088  -16.3705  -55.7380 H         1 UNK         0.3000 
    231 H231       -8.1545  -15.8781  -54.4506 H         1 UNK         0.0600 
    232 H232       -7.6130  -13.4783  -54.9093 H         1 UNK         0.0600 
    233 H233       -7.2690  -14.4924  -56.3007 H         1 UNK         0.0600 
    234 H234       -5.9498  -13.9162  -55.2807 H         1 UNK         0.0600 
    235 H235       -4.8749  -15.6269  -53.1540 H         1 UNK         0.3000 
    236 H236       -5.6605  -14.2865  -50.6819 H         1 UNK         0.0600 
    237 H237       -3.4278  -13.8958  -51.6156 H         1 UNK         0.0600 
    238 H238       -3.2503  -14.7370  -50.0839 H         1 UNK         0.0600 
    239 H239       -3.0599  -15.6177  -51.5974 H         1 UNK         0.0600 
    240 H240       -5.4678  -17.6086  -51.7854 H         1 UNK         0.3000 
    241 H241       -5.4590  -18.7158  -49.0301 H         1 UNK         0.0600 
    242 H242       -7.7152  -18.3684  -51.8348 H         1 UNK         0.3800 
    243 H243       -9.0639  -19.0359  -50.9441 H         1 UNK         0.3800 
    244 H244       -5.3439  -20.9587  -50.3894 H         1 UNK         0.0800 
    245 H245       -4.9491  -19.9634  -51.7650 H         1 UNK         0.0800 
    246 H246       -2.2855  -19.6460  -52.2897 H         1 UNK         0.0800 
    247 H247       -2.8775  -18.1391  -51.6103 H         1 UNK         0.0800 
@<TRIPOS>BOND
     1    1    2 1    
     2    1  127 1    
     3    1  128 1    
     4    1  129 1    
     5    2    3 2    
     6    2    4 am   BACKBONE|DICT|INTERRES
     7    4    5 1    
     8    4  130 1    
     9    5    6 1    
    10    5   65 1    
    11    5  131 1    
    12    6    7 1    
    13    6  132 1    
    14    6  133 1    
    15    7    8 1    
    16    8    9 1    
    17    8  134 1    
    18    8  135 1    
    19    9   10 ar   
    20    9   14 ar   
    21   10   11 ar   
    22   10  136 1    
    23   11   12 ar   
    24   11  126 1    
    25   12   13 ar   
    26   12  137 1    
    27   13   14 ar   
    28   13   15 1    
    29   14  138 1    
    30   15   16 1    
    31   15  139 1    
    32   15  140 1    
    33   16   17 1    
    34   17   18 1    
    35   17  141 1    
    36   17  142 1    
    37   18   19 1    
    38   18   67 1    
    39   18  143 1    
    40   19   20 am   BACKBONE|DICT|INTERRES
    41   19  144 1    
    42   20   21 2    
    43   20   22 1    
    44   22   23 1    
    45   22   24 1    
    46   22  145 1    
    47   23  146 1    
    48   23  147 1    
    49   23  148 1    
    50   24   25 am   BACKBONE|DICT|INTERRES
    51   24  149 1    
    52   25   26 2    
    53   25   27 1    
    54   27   28 1    
    55   27   29 1    
    56   27  150 1    
    57   28  151 1    
    58   28  152 1    
    59   28  153 1    
    60   29   30 am   BACKBONE|DICT|INTERRES
    61   29  154 1    
    62   30   31 2    
    63   30   32 1    
    64   32   33 1    
    65   32   34 1    
    66   32  155 1    
    67   33  156 1    
    68   33  157 1    
    69   33  158 1    
    70   34   35 am   BACKBONE|DICT|INTERRES
    71   34  159 1    
    72   35   36 2    
    73   35   37 1    
    74   37   38 1    
    75   37   39 1    
    76   37  160 1    
    77   38  161 1    
    78   38  162 1    
    79   38  163 1    
    80   39   40 am   BACKBONE|DICT|INTERRES
    81   39  164 1    
    82   40   41 2    
    83   40   42 1    
    84   42   43 1    
    85   42   44 1    
    86   42  165 1    
    87   43  166 1    
    88   43  167 1    
    89   43  168 1    
    90   44   45 am   BACKBONE|DICT|INTERRES
    91   44  169 1    
    92   45   46 2    
    93   45   47 1    
    94   47   48 1    
    95   47   49 1    
    96   47  170 1    
    97   48  171 1    
    98   48  172 1    
    99   48  173 1    
   100   49   50 am   BACKBONE|DICT|INTERRES
   101   49  174 1    
   102   50   51 2    
   103   50   52 1    
   104   52   53 1    
   105   52   54 1    
   106   52  175 1    
   107   53  176 1    
   108   53  177 1    
   109   53  178 1    
   110   54   55 am   BACKBONE|DICT|INTERRES
   111   54  179 1    
   112   55   56 2    
   113   55   57 1    
   114   57   58 1    
   115   57   59 1    
   116   57  180 1    
   117   58  181 1    
   118   58  182 1    
   119   58  183 1    
   120   59   60 am   BACKBONE|DICT|INTERRES
   121   59  184 1    
   122   60   61 2    
   123   60   62 1    
   124   62   63 1    
   125   62   64 1    
   126   62  185 1    
   127   63  186 1    
   128   63  187 1    
   129   63  188 1    
   130   64   65 am   BACKBONE|DICT|INTERRES
   131   64  189 1    
   132   65   66 2    
   133   67   68 2    
   134   67   69 am   BACKBONE|DICT|INTERRES
   135   69   70 1    
   136   69  190 1    
   137   70   71 1    
   138   70   72 1    
   139   70  191 1    
   140   71  192 1    
   141   71  193 1    
   142   71  194 1    
   143   72   73 2    
   144   72   74 am   BACKBONE|DICT|INTERRES
   145   74   75 1    
   146   74  195 1    
   147   75   76 1    
   148   75   77 1    
   149   75  196 1    
   150   76  197 1    
   151   76  198 1    
   152   76  199 1    
   153   77   78 2    
   154   77   79 am   BACKBONE|DICT|INTERRES
   155   79   80 1    
   156   79  200 1    
   157   80   81 1    
   158   80   82 1    
   159   80  201 1    
   160   81  202 1    
   161   81  203 1    
   162   81  204 1    
   163   82   83 2    
   164   82   84 am   BACKBONE|DICT|INTERRES
   165   84   85 1    
   166   84  205 1    
   167   85   86 1    
   168   85   87 1    
   169   85  206 1    
   170   86  207 1    
   171   86  208 1    
   172   86  209 1    
   173   87   88 2    
   174   87   89 am   BACKBONE|DICT|INTERRES
   175   89   90 1    
   176   89  210 1    
   177   90   91 1    
   178   90   92 1    
   179   90  211 1    
   180   91  212 1    
   181   91  213 1    
   182   91  214 1    
   183   92   93 2    
   184   92   94 am   BACKBONE|DICT|INTERRES
   185   94   95 1    
   186   94  215 1    
   187   95   96 1    
   188   95   97 1    
   189   95  216 1    
   190   96  217 1    
   191   96  218 1    
   192   96  219 1    
   193   97   98 2    
   194   97   99 am   BACKBONE|DICT|INTERRES
   195   99  100 1    
   196   99  220 1    
   197  100  101 1    
   198  100  102 1    
   199  100  221 1    
   200  101  222 1    
   201  101  223 1    
   202  101  224 1    
   203  102  103 2    
   204  102  104 am   BACKBONE|DICT|INTERRES
   205  104  105 1    
   206  104  225 1    
   207  105  106 1    
   208  105  107 1    
   209  105  226 1    
   210  106  227 1    
   211  106  228 1    
   212  106  229 1    
   213  107  108 2    
   214  107  109 am   BACKBONE|DICT|INTERRES
   215  109  110 1    
   216  109  230 1    
   217  110  111 1    
   218  110  112 1    
   219  110  231 1    
   220  111  232 1    
   221  111  233 1    
   222  111  234 1    
   223  112  113 2    
   224  112  114 am   BACKBONE|DICT|INTERRES
   225  114  115 1    
   226  114  235 1    
   227  115  116 1    
   228  115  117 1    
   229  115  236 1    
   230  116  237 1    
   231  116  238 1    
   232  116  239 1    
   233  117  118 2    
   234  117  119 am   BACKBONE|DICT|INTERRES
   235  119  120 1    
   236  119  240 1    
   237  120  121 1    
   238  120  124 1    
   239  120  241 1    
   240  121  122 am   BACKBONE|DICT|INTERRES
   241  121  123 2    
   242  122  242 1    
   243  122  243 1    
   244  124  125 1    
   245  124  244 1    
   246  124  245 1    
   247  125  126 1    
   248  126  246 1    
   249  126  247 1    
@<TRIPOS>SUBSTRUCTURE
     1 UNK         1 GROUP             0       ****    0 ROOT    
