@<TRIPOS>MOLECULE
3R540
247   249    1
SMALL
USER_CHARGES


@<TRIPOS>ATOM
      1 CA          3.2952  -14.3187  -45.7287 C.3       0 UNK        -0.1800 
      2 C           2.2591  -13.8931  -46.7574 C.2       0 UNK         0.5000 
      3 O           1.1099  -13.6322  -46.4011 O.2       0 UNK        -0.5000 
      4 N           2.6579  -13.8150  -48.0336 N.am      1 UNK        -0.5000 
      5 CA          1.7904  -13.4996  -49.1780 C.3       1 UNK         0.1400 
      6 C6          2.5062  -13.7146  -50.5341 C.3       23 UNK        -0.0398 
      7 S7          3.1139  -15.4200  -50.7558 S.3       23 UNK        -0.2404 
      8 C8          1.5946  -16.2137  -51.3702 C.3       23 UNK        -0.0205 
      9 C9          1.7450  -17.7008  -51.6609 C.ar      23 UNK        -0.0193 
     10 C10         1.1763  -18.2372  -52.8184 C.ar      23 UNK        -0.1150 
     11 C11         1.2354  -19.6083  -53.0727 C.ar      23 UNK        -0.0193 
     12 C12         1.8807  -20.4500  -52.1616 C.ar      23 UNK        -0.1150 
     13 C13         2.4731  -19.9282  -51.0076 C.ar      23 UNK        -0.0193 
     14 C14         2.4000  -18.5523  -50.7660 C.ar      23 UNK        -0.1150 
     15 C15         3.2298  -20.8491  -50.0574 C.3       23 UNK        -0.0205 
     16 S16         2.8464  -20.5454  -48.3024 S.3       23 UNK        -0.2404 
     17 C17         4.0493  -21.6591  -47.4965 C.3       23 UNK        -0.0398 
     18 CA          3.4023  -22.7811  -46.6501 C.3       11 UNK         0.1400 
     19 N           2.5944  -22.2340  -45.5522 N.am      11 UNK        -0.5000 
     20 C           2.0453  -22.9224  -44.5434 C.2       10 UNK         0.5000 
     21 O           1.8581  -24.1398  -44.5621 O.2       10 UNK        -0.5000 
     22 CA          1.7178  -22.1278  -43.2686 C.3       10 UNK         0.1400 
     23 CB          2.7238  -20.9933  -42.9912 C.3       10 UNK        -0.1800 
     24 N           0.3649  -21.5767  -43.2974 N.am      10 UNK        -0.5000 
     25 C          -0.4931  -21.6560  -42.2686 C.2       9 UNK         0.5000 
     26 O          -0.2506  -22.2864  -41.2377 O.2       9 UNK        -0.5000 
     27 CA         -1.8397  -20.9083  -42.3602 C.3       9 UNK         0.1400 
     28 CB         -1.9626  -19.8820  -41.2212 C.3       9 UNK        -0.1800 
     29 N          -2.0556  -20.2150  -43.6271 N.am      9 UNK        -0.5000 
     30 C          -2.4956  -20.7850  -44.7544 C.2       8 UNK         0.5000 
     31 O          -2.7822  -21.9770  -44.8562 O.2       8 UNK        -0.5000 
     32 CA         -2.6108  -19.8654  -45.9840 C.3       8 UNK         0.1400 
     33 CB         -3.9632  -19.1400  -45.9788 C.3       8 UNK        -0.1800 
     34 N          -1.5382  -18.8719  -46.0865 N.am      8 UNK        -0.5000 
     35 C          -0.2248  -19.1416  -46.1183 C.2       7 UNK         0.5000 
     36 O           0.2461  -20.2749  -46.0206 O.2       7 UNK        -0.5000 
     37 CA          0.7177  -17.9308  -46.2183 C.3       7 UNK         0.1400 
     38 CB          0.7014  -17.3256  -47.6317 C.3       7 UNK        -0.1800 
     39 N           0.3658  -16.9116  -45.2298 N.am      7 UNK        -0.5000 
     40 C           0.5965  -17.0345  -43.9139 C.2       6 UNK         0.5000 
     41 O           1.2313  -17.9619  -43.4149 O.2       6 UNK        -0.5000 
     42 CA         -0.0074  -15.9604  -42.9905 C.3       6 UNK         0.1400 
     43 CB          0.9709  -14.7936  -42.7979 C.3       6 UNK        -0.1800 
     44 N          -1.2892  -15.4479  -43.4755 N.am      6 UNK        -0.5000 
     45 C          -2.4201  -16.1669  -43.5275 C.2       5 UNK         0.5000 
     46 O          -2.5051  -17.3343  -43.1505 O.2       5 UNK        -0.5000 
     47 CA         -3.6493  -15.4787  -44.1491 C.3       5 UNK         0.1400 
     48 CB         -4.4204  -14.6852  -43.0847 C.3       5 UNK        -0.1800 
     49 N          -3.2994  -14.5873  -45.2550 N.am      5 UNK        -0.5000 
     50 C          -2.7149  -14.9665  -46.3974 C.2       4 UNK         0.5000 
     51 O          -2.4378  -16.1359  -46.6617 O.2       4 UNK        -0.5000 
     52 CA         -2.3129  -13.8542  -47.3791 C.3       4 UNK         0.1400 
     53 CB         -3.5131  -13.3660  -48.2102 C.3       4 UNK        -0.1800 
     54 N          -1.5950  -12.7470  -46.7374 N.am      4 UNK        -0.5000 
     55 C          -2.0433  -11.8090  -45.8895 C.2       3 UNK         0.5000 
     56 O          -3.2106  -11.7292  -45.5060 O.2       3 UNK        -0.5000 
     57 CA         -1.0008  -10.8167  -45.3444 C.3       3 UNK         0.1400 
     58 CB         -0.4634  -11.3031  -43.9903 C.3       3 UNK        -0.1800 
     59 N           0.1226  -10.6443  -46.2665 N.am      3 UNK        -0.5000 
     60 C           0.1630   -9.7329  -47.2482 C.2       2 UNK         0.5000 
     61 O          -0.7102   -8.8844  -47.4336 O.2       2 UNK        -0.5000 
     62 CA          1.3802   -9.7868  -48.1922 C.3       2 UNK         0.1400 
     63 CB          2.5345   -8.9403  -47.6342 C.3       2 UNK        -0.1800 
     64 N           1.8556  -11.1514  -48.4293 N.am      2 UNK        -0.5000 
     65 C           1.1807  -12.0827  -49.1190 C.2       1 UNK         0.5000 
     66 O           0.1061  -11.8697  -49.6794 O.2       1 UNK        -0.5000 
     67 C           2.7285  -23.8530  -47.5328 C.2       11 UNK         0.5000 
     68 O           3.4385  -24.6854  -48.1000 O.2       11 UNK        -0.5000 
     69 N           1.3946  -23.8379  -47.6214 N.am      12 UNK        -0.5000 
     70 CA          0.6093  -24.8539  -48.3202 C.3       12 UNK         0.1400 
     71 CB          0.3714  -24.4342  -49.7822 C.3       12 UNK        -0.1800 
     72 C          -0.6894  -25.1530  -47.5573 C.2       12 UNK         0.5000 
     73 O          -1.7167  -25.4186  -48.1828 O.2       12 UNK        -0.5000 
     74 N          -0.6295  -25.1095  -46.2178 N.am      13 UNK        -0.5000 
     75 CA         -1.7741  -25.2996  -45.3201 C.3       13 UNK         0.1400 
     76 CB         -1.3379  -25.0009  -43.8806 C.3       13 UNK        -0.1800 
     77 C          -2.4179  -26.6963  -45.3936 C.2       13 UNK         0.5000 
     78 O          -3.6202  -26.8171  -45.1595 O.2       13 UNK        -0.5000 
     79 N          -1.6181  -27.7187  -45.7294 N.am      14 UNK        -0.5000 
     80 CA         -2.0681  -29.1026  -45.8987 C.3       14 UNK         0.1400 
     81 CB         -0.8433  -30.0246  -45.9989 C.3       14 UNK        -0.1800 
     82 C          -2.9873  -29.2853  -47.1216 C.2       14 UNK         0.5000 
     83 O          -3.9409  -30.0619  -47.0567 O.2       14 UNK        -0.5000 
     84 N          -2.6900  -28.5540  -48.2037 N.am      15 UNK        -0.5000 
     85 CA         -3.5008  -28.5075  -49.4211 C.3       15 UNK         0.1400 
     86 CB         -2.5742  -28.2322  -50.6168 C.3       15 UNK        -0.1800 
     87 C          -4.5977  -27.4290  -49.3464 C.2       15 UNK         0.5000 
     88 O          -5.6045  -27.5422  -50.0455 O.2       15 UNK        -0.5000 
     89 N          -4.3520  -26.3888  -48.5349 N.am      16 UNK        -0.5000 
     90 CA         -5.0914  -25.1271  -48.4217 C.3       16 UNK         0.1400 
     91 CB         -6.5405  -25.3585  -47.9475 C.3       16 UNK        -0.1800 
     92 C          -5.0005  -24.2730  -49.7052 C.2       16 UNK         0.5000 
     93 O          -5.8666  -23.4330  -49.9500 O.2       16 UNK        -0.5000 
     94 N          -3.9472  -24.4978  -50.5049 N.am      17 UNK        -0.5000 
     95 CA         -3.7348  -23.8630  -51.8060 C.3       17 UNK         0.1400 
     96 CB         -2.6522  -24.6347  -52.5755 C.3       17 UNK        -0.1800 
     97 C          -3.3616  -22.3767  -51.6891 C.2       17 UNK         0.5000 
     98 O          -3.7877  -21.5790  -52.5219 O.2       17 UNK        -0.5000 
     99 N          -2.6073  -22.0339  -50.6350 N.am      18 UNK        -0.5000 
    100 CA        -2.1246  -20.6821  -50.3388 C.3       18 UNK         0.1400 
    101 CB        -0.9163  -20.7744  -49.3926 C.3       18 UNK        -0.1800 
    102 C         -3.2076  -19.7236  -49.7995 C.2       18 UNK         0.5000 
    103 O         -2.8952  -18.5655  -49.5192 O.2       18 UNK        -0.5000 
    104 N         -4.4587  -20.1955  -49.6791 N.am      19 UNK        -0.5000 
    105 CA        -5.6459  -19.3885  -49.3952 C.3       19 UNK         0.1400 
    106 CB        -6.8854  -20.2937  -49.3797 C.3       19 UNK        -0.1800 
    107 C         -5.8076  -18.2516  -50.4207 C.2       19 UNK         0.5000 
    108 O         -5.7251  -18.5008  -51.6257 O.2       19 UNK        -0.5000 
    109 N         -5.9723  -17.0220  -49.9132 N.am      20 UNK        -0.5000 
    110 CA        -5.9958  -15.7626  -50.6682 C.3       20 UNK         0.1400 
    111 CB        -7.2603  -15.6766  -51.5488 C.3       20 UNK        -0.1800 
    112 C         -4.6939  -15.5039  -51.4625 C.2       20 UNK         0.5000 
    113 O         -4.7385  -14.8780  -52.5229 O.2       20 UNK        -0.5000 
    114 N         -3.5605  -16.0131  -50.9495 N.am      21 UNK        -0.5000 
    115 CA        -2.2131  -15.9332  -51.5260 C.3       21 UNK         0.1400 
    116 CB        -1.6929  -14.4798  -51.4728 C.3       21 UNK        -0.1800 
    117 C         -2.1217  -16.5559  -52.9371 C.2       21 UNK         0.5000 
    118 O         -1.4027  -16.0353  -53.7908 O.2       21 UNK        -0.5000 
    119 N         -2.8843  -17.6362  -53.1613 N.am      22 UNK        -0.5000 
    120 CA        -3.1105  -18.2919  -54.4629 C.3       22 UNK         0.1400 
    121 C         -3.9191  -17.4317  -55.4877 C.2       22 UNK         0.5000 
    122 N         -4.5219  -16.3094  -55.1105 N.am      22 UNK        -0.7600 
    123 O         -4.0391  -17.8052  -56.6516 O.2       22 UNK        -0.5000 
    124 C124       -1.8229  -18.9080  -55.0927 C.3       23 UNK        -0.0398 
    125 S125       -1.1912  -20.3496  -54.1681 S.3       23 UNK        -0.2404 
    126 C126        0.6112  -20.1775  -54.3362 C.3       23 UNK        -0.0205 
    127 H127        4.2840  -14.4327  -46.1731 H         1 UNK         0.0600 
    128 H128        3.3622  -13.5759  -44.9340 H         1 UNK         0.0600 
    129 H129        3.0094  -15.2722  -45.2850 H         1 UNK         0.0600 
    130 H130        3.6119  -14.0514  -48.2679 H         1 UNK         0.3000 
    131 H131        0.9471  -14.1917  -49.1314 H         1 UNK         0.0600 
    132 H132        1.8438  -13.4708  -51.3672 H         1 UNK         0.0800 
    133 H133        3.3598  -13.0402  -50.6228 H         1 UNK         0.0800 
    134 H134        0.8069  -16.0934  -50.6269 H         1 UNK         0.0800 
    135 H135        1.2705  -15.6891  -52.2702 H         1 UNK         0.0800 
    136 H136        0.6739  -17.5901  -53.5221 H         1 UNK         0.1150 
    137 H137        1.9332  -21.5114  -52.3593 H         1 UNK         0.1150 
    138 H138        2.8526  -18.1429  -49.8743 H         1 UNK         0.1150 
    139 H139        3.0131  -21.8947  -50.2825 H         1 UNK         0.0800 
    140 H140        4.2981  -20.7048  -50.2231 H         1 UNK         0.0800 
    141 H141        4.6847  -21.0453  -46.8566 H         1 UNK         0.0800 
    142 H142        4.7237  -22.0865  -48.2408 H         1 UNK         0.0800 
    143 H143        4.2252  -23.3041  -46.1581 H         1 UNK         0.0600 
    144 H144        2.5884  -21.2261  -45.4892 H         1 UNK         0.3000 
    145 H145        1.8165  -22.8469  -42.4530 H         1 UNK         0.0600 
    146 H146        2.5452  -20.5453  -42.0136 H         1 UNK         0.0600 
    147 H147        3.7489  -21.3661  -42.9937 H         1 UNK         0.0600 
    148 H148        2.6577  -20.1966  -43.7324 H         1 UNK         0.0600 
    149 H149        0.1004  -21.0762  -44.1400 H         1 UNK         0.3000 
    150 H150       -2.6283  -21.6522  -42.2296 H         1 UNK         0.0600 
    151 H151       -1.8620  -20.3576  -40.2449 H         1 UNK         0.0600 
    152 H152       -2.9342  -19.3878  -41.2394 H         1 UNK         0.0600 
    153 H153       -1.1938  -19.1114  -41.2937 H         1 UNK         0.0600 
    154 H154       -1.9061  -19.2110  -43.6202 H         1 UNK         0.3000 
    155 H155       -2.5632  -20.4921  -46.8745 H         1 UNK         0.0600 
    156 H156       -4.0248  -18.4182  -46.7924 H         1 UNK         0.0600 
    157 H157       -4.1259  -18.6000  -45.0463 H         1 UNK         0.0600 
    158 H158       -4.7848  -19.8474  -46.0965 H         1 UNK         0.0600 
    159 H159       -1.8341  -17.9060  -46.2000 H         1 UNK         0.3000 
    160 H160        1.7326  -18.2803  -46.0165 H         1 UNK         0.0600 
    161 H161       -0.2656  -16.8942  -47.8880 H         1 UNK         0.0600 
    162 H162        0.9211  -18.0877  -48.3779 H         1 UNK         0.0600 
    163 H163        1.4566  -16.5486  -47.7383 H         1 UNK         0.0600 
    164 H164       -0.1849  -16.1311  -45.5563 H         1 UNK         0.3000 
    165 H165       -0.1776  -16.4233  -42.0160 H         1 UNK         0.0600 
    166 H166        1.1719  -14.2815  -43.7375 H         1 UNK         0.0600 
    167 H167        0.5800  -14.0611  -42.0915 H         1 UNK         0.0600 
    168 H168        1.9263  -15.1456  -42.4065 H         1 UNK         0.0600 
    169 H169       -1.3045  -14.4995  -43.8179 H         1 UNK         0.3000 
    170 H170       -4.3066  -16.2566  -44.5411 H         1 UNK         0.0600 
    171 H171       -4.7095  -15.3276  -42.2517 H         1 UNK         0.0600 
    172 H172       -3.8222  -13.8682  -42.6789 H         1 UNK         0.0600 
    173 H173       -5.3345  -14.2580  -43.4975 H         1 UNK         0.0600 
    174 H174       -3.4803  -13.5951  -45.1310 H         1 UNK         0.3000 
    175 H175       -1.5959  -14.3000  -48.0699 H         1 UNK         0.0600 
    176 H176       -3.9677  -14.1953  -48.7502 H         1 UNK         0.0600 
    177 H177       -4.2913  -12.9198  -47.5911 H         1 UNK         0.0600 
    178 H178       -3.2043  -12.6256  -48.9483 H         1 UNK         0.0600 
    179 H179       -0.5899  -12.7822  -46.8712 H         1 UNK         0.3000 
    180 H180       -1.5020   -9.8595  -45.1860 H         1 UNK         0.0600 
    181 H181        0.0692  -12.2481  -44.0883 H         1 UNK         0.0600 
    182 H182       -1.2737  -11.4524  -43.2754 H         1 UNK         0.0600 
    183 H183        0.2233  -10.5764  -43.5560 H         1 UNK         0.0600 
    184 H184        0.8682  -11.3238  -46.2027 H         1 UNK         0.3000 
    185 H185        1.0765   -9.3601  -49.1506 H         1 UNK         0.0600 
    186 H186        3.3742   -8.9113  -48.3288 H         1 UNK         0.0600 
    187 H187        2.2171   -7.9101  -47.4668 H         1 UNK         0.0600 
    188 H188        2.8980   -9.3305  -46.6827 H         1 UNK         0.0600 
    189 H189        2.7336  -11.4109  -48.0036 H         1 UNK         0.3000 
    190 H190        0.8835  -23.1184  -47.1270 H         1 UNK         0.3000 
    191 H191        1.1601  -25.7966  -48.3287 H         1 UNK         0.0600 
    192 H192        1.3086  -24.1989  -50.2866 H         1 UNK         0.0600 
    193 H193       -0.1038  -25.2391  -50.3434 H         1 UNK         0.0600 
    194 H194       -0.2735  -23.5607  -49.8487 H         1 UNK         0.0600 
    195 H195        0.2581  -24.8980  -45.7742 H         1 UNK         0.3000 
    196 H196       -2.5397  -24.5751  -45.6044 H         1 UNK         0.0600 
    197 H197       -2.1749  -25.0902  -43.1870 H         1 UNK         0.0600 
    198 H198       -0.9588  -23.9854  -43.8003 H         1 UNK         0.0600 
    199 H199       -0.5523  -25.6793  -43.5456 H         1 UNK         0.0600 
    200 H200       -0.6388  -27.5313  -45.8864 H         1 UNK         0.3000 
    201 H201       -2.6366  -29.3863  -45.0104 H         1 UNK         0.0600 
    202 H202       -0.2257  -29.9585  -45.1029 H         1 UNK         0.0600 
    203 H203       -0.2185  -29.7749  -46.8573 H         1 UNK         0.0600 
    204 H204       -1.1474  -31.0666  -46.1062 H         1 UNK         0.0600 
    205 H205       -1.8946  -27.9332  -48.1635 H         1 UNK         0.3000 
    206 H206       -3.9871  -29.4724  -49.5799 H         1 UNK         0.0600 
    207 H207       -1.8278  -29.0193  -50.7247 H         1 UNK         0.0600 
    208 H208       -3.1393  -28.1916  -51.5490 H         1 UNK         0.0600 
    209 H209       -2.0466  -27.2833  -50.5107 H         1 UNK         0.0600 
    210 H210       -3.4525  -26.3780  -48.0678 H         1 UNK         0.3000 
    211 H211       -4.5816  -24.5539  -47.6459 H         1 UNK         0.0600 
    212 H212       -7.1463  -25.8470  -48.7107 H         1 UNK         0.0600 
    213 H213       -7.0260  -24.4128  -47.7040 H         1 UNK         0.0600 
    214 H214       -6.5661  -25.9762  -47.0497 H         1 UNK         0.0600 
    215 H215       -3.2614  -25.1756  -50.2046 H         1 UNK         0.3000 
    216 H216       -4.6664  -23.9287  -52.3723 H         1 UNK         0.0600 
    217 H217       -2.9351  -25.6781  -52.7163 H         1 UNK         0.0600 
    218 H218       -1.6939  -24.6123  -52.0570 H         1 UNK         0.0600 
    219 H219       -2.4975  -24.2035  -53.5655 H         1 UNK         0.0600 
    220 H220       -2.3449  -22.7602  -49.9859 H         1 UNK         0.3000 
    221 H221       -1.7715  -20.2352  -51.2696 H         1 UNK         0.0600 
    222 H222       -1.1390  -21.3492  -48.4941 H         1 UNK         0.0600 
    223 H223       -0.0675  -21.2440  -49.8885 H         1 UNK         0.0600 
    224 H224       -0.5818  -19.7857  -49.0801 H         1 UNK         0.0600 
    225 H225       -4.6326  -21.1473  -49.9685 H         1 UNK         0.3000 
    226 H226       -5.5309  -18.9557  -48.4023 H         1 UNK         0.0600 
    227 H227       -6.8000  -21.0664  -48.6153 H         1 UNK         0.0600 
    228 H228       -7.7871  -19.7197  -49.1632 H         1 UNK         0.0600 
    229 H229       -7.0325  -20.7887  -50.3407 H         1 UNK         0.0600 
    230 H230       -6.0180  -16.9217  -48.9087 H         1 UNK         0.3000 
    231 H231       -6.0595  -14.9639  -49.9281 H         1 UNK         0.0600 
    232 H232       -8.1614  -15.8635  -50.9648 H         1 UNK         0.0600 
    233 H233       -7.2352  -16.3967  -52.3672 H         1 UNK         0.0600 
    234 H234       -7.3624  -14.6850  -51.9911 H         1 UNK         0.0600 
    235 H235       -3.6276  -16.5921  -50.1200 H         1 UNK         0.3000 
    236 H236       -1.5706  -16.5407  -50.8875 H         1 UNK         0.0600 
    237 H237       -0.6669  -14.4060  -51.8304 H         1 UNK         0.0600 
    238 H238       -2.2940  -13.8114  -52.0893 H         1 UNK         0.0600 
    239 H239       -1.7032  -14.0925  -50.4556 H         1 UNK         0.0600 
    240 H240       -3.4810  -17.9618  -52.4125 H         1 UNK         0.3000 
    241 H241       -3.7830  -19.1211  -54.2396 H         1 UNK         0.0600 
    242 H242       -4.4557  -15.9575  -54.1613 H         1 UNK         0.3800 
    243 H243       -5.0462  -15.7854  -55.7926 H         1 UNK         0.3800 
    244 H244       -2.0193  -19.2698  -56.1029 H         1 UNK         0.0800 
    245 H245       -1.0438  -18.1541  -55.1995 H         1 UNK         0.0800 
    246 H246        0.8614  -19.5530  -55.1948 H         1 UNK         0.0800 
    247 H247        1.0321  -21.1611  -54.5498 H         1 UNK         0.0800 
@<TRIPOS>BOND
     1    1    2 1    
     2    1  127 1    
     3    1  128 1    
     4    1  129 1    
     5    2    3 2    
     6    2    4 am   BACKBONE|DICT|INTERRES
     7    4    5 1    
     8    4  130 1    
     9    5    6 1    
    10    5   65 1    
    11    5  131 1    
    12    6    7 1    
    13    6  132 1    
    14    6  133 1    
    15    7    8 1    
    16    8    9 1    
    17    8  134 1    
    18    8  135 1    
    19    9   10 ar   
    20    9   14 ar   
    21   10   11 ar   
    22   10  136 1    
    23   11   12 ar   
    24   11  126 1    
    25   12   13 ar   
    26   12  137 1    
    27   13   14 ar   
    28   13   15 1    
    29   14  138 1    
    30   15   16 1    
    31   15  139 1    
    32   15  140 1    
    33   16   17 1    
    34   17   18 1    
    35   17  141 1    
    36   17  142 1    
    37   18   19 1    
    38   18   67 1    
    39   18  143 1    
    40   19   20 am   BACKBONE|DICT|INTERRES
    41   19  144 1    
    42   20   21 2    
    43   20   22 1    
    44   22   23 1    
    45   22   24 1    
    46   22  145 1    
    47   23  146 1    
    48   23  147 1    
    49   23  148 1    
    50   24   25 am   BACKBONE|DICT|INTERRES
    51   24  149 1    
    52   25   26 2    
    53   25   27 1    
    54   27   28 1    
    55   27   29 1    
    56   27  150 1    
    57   28  151 1    
    58   28  152 1    
    59   28  153 1    
    60   29   30 am   BACKBONE|DICT|INTERRES
    61   29  154 1    
    62   30   31 2    
    63   30   32 1    
    64   32   33 1    
    65   32   34 1    
    66   32  155 1    
    67   33  156 1    
    68   33  157 1    
    69   33  158 1    
    70   34   35 am   BACKBONE|DICT|INTERRES
    71   34  159 1    
    72   35   36 2    
    73   35   37 1    
    74   37   38 1    
    75   37   39 1    
    76   37  160 1    
    77   38  161 1    
    78   38  162 1    
    79   38  163 1    
    80   39   40 am   BACKBONE|DICT|INTERRES
    81   39  164 1    
    82   40   41 2    
    83   40   42 1    
    84   42   43 1    
    85   42   44 1    
    86   42  165 1    
    87   43  166 1    
    88   43  167 1    
    89   43  168 1    
    90   44   45 am   BACKBONE|DICT|INTERRES
    91   44  169 1    
    92   45   46 2    
    93   45   47 1    
    94   47   48 1    
    95   47   49 1    
    96   47  170 1    
    97   48  171 1    
    98   48  172 1    
    99   48  173 1    
   100   49   50 am   BACKBONE|DICT|INTERRES
   101   49  174 1    
   102   50   51 2    
   103   50   52 1    
   104   52   53 1    
   105   52   54 1    
   106   52  175 1    
   107   53  176 1    
   108   53  177 1    
   109   53  178 1    
   110   54   55 am   BACKBONE|DICT|INTERRES
   111   54  179 1    
   112   55   56 2    
   113   55   57 1    
   114   57   58 1    
   115   57   59 1    
   116   57  180 1    
   117   58  181 1    
   118   58  182 1    
   119   58  183 1    
   120   59   60 am   BACKBONE|DICT|INTERRES
   121   59  184 1    
   122   60   61 2    
   123   60   62 1    
   124   62   63 1    
   125   62   64 1    
   126   62  185 1    
   127   63  186 1    
   128   63  187 1    
   129   63  188 1    
   130   64   65 am   BACKBONE|DICT|INTERRES
   131   64  189 1    
   132   65   66 2    
   133   67   68 2    
   134   67   69 am   BACKBONE|DICT|INTERRES
   135   69   70 1    
   136   69  190 1    
   137   70   71 1    
   138   70   72 1    
   139   70  191 1    
   140   71  192 1    
   141   71  193 1    
   142   71  194 1    
   143   72   73 2    
   144   72   74 am   BACKBONE|DICT|INTERRES
   145   74   75 1    
   146   74  195 1    
   147   75   76 1    
   148   75   77 1    
   149   75  196 1    
   150   76  197 1    
   151   76  198 1    
   152   76  199 1    
   153   77   78 2    
   154   77   79 am   BACKBONE|DICT|INTERRES
   155   79   80 1    
   156   79  200 1    
   157   80   81 1    
   158   80   82 1    
   159   80  201 1    
   160   81  202 1    
   161   81  203 1    
   162   81  204 1    
   163   82   83 2    
   164   82   84 am   BACKBONE|DICT|INTERRES
   165   84   85 1    
   166   84  205 1    
   167   85   86 1    
   168   85   87 1    
   169   85  206 1    
   170   86  207 1    
   171   86  208 1    
   172   86  209 1    
   173   87   88 2    
   174   87   89 am   BACKBONE|DICT|INTERRES
   175   89   90 1    
   176   89  210 1    
   177   90   91 1    
   178   90   92 1    
   179   90  211 1    
   180   91  212 1    
   181   91  213 1    
   182   91  214 1    
   183   92   93 2    
   184   92   94 am   BACKBONE|DICT|INTERRES
   185   94   95 1    
   186   94  215 1    
   187   95   96 1    
   188   95   97 1    
   189   95  216 1    
   190   96  217 1    
   191   96  218 1    
   192   96  219 1    
   193   97   98 2    
   194   97   99 am   BACKBONE|DICT|INTERRES
   195   99  100 1    
   196   99  220 1    
   197  100  101 1    
   198  100  102 1    
   199  100  221 1    
   200  101  222 1    
   201  101  223 1    
   202  101  224 1    
   203  102  103 2    
   204  102  104 am   BACKBONE|DICT|INTERRES
   205  104  105 1    
   206  104  225 1    
   207  105  106 1    
   208  105  107 1    
   209  105  226 1    
   210  106  227 1    
   211  106  228 1    
   212  106  229 1    
   213  107  108 2    
   214  107  109 am   BACKBONE|DICT|INTERRES
   215  109  110 1    
   216  109  230 1    
   217  110  111 1    
   218  110  112 1    
   219  110  231 1    
   220  111  232 1    
   221  111  233 1    
   222  111  234 1    
   223  112  113 2    
   224  112  114 am   BACKBONE|DICT|INTERRES
   225  114  115 1    
   226  114  235 1    
   227  115  116 1    
   228  115  117 1    
   229  115  236 1    
   230  116  237 1    
   231  116  238 1    
   232  116  239 1    
   233  117  118 2    
   234  117  119 am   BACKBONE|DICT|INTERRES
   235  119  120 1    
   236  119  240 1    
   237  120  121 1    
   238  120  124 1    
   239  120  241 1    
   240  121  122 am   BACKBONE|DICT|INTERRES
   241  121  123 2    
   242  122  242 1    
   243  122  243 1    
   244  124  125 1    
   245  124  244 1    
   246  124  245 1    
   247  125  126 1    
   248  126  246 1    
   249  126  247 1    
@<TRIPOS>SUBSTRUCTURE
     1 UNK         1 GROUP             0       ****    0 ROOT    
