@<TRIPOS>MOLECULE
3R540
247   249    1
SMALL
USER_CHARGES


@<TRIPOS>ATOM
      1 CA         -2.8504  -12.8264  -42.8617 C.3       0 UNK        -0.1800 
      2 C          -2.3003  -11.7366  -43.7703 C.2       0 UNK         0.5000 
      3 O          -2.2327  -10.5778  -43.3591 O.2       0 UNK        -0.5000 
      4 N          -1.9002  -12.0918  -44.9979 N.am      1 UNK        -0.5000 
      5 CA         -1.3854  -11.1826  -46.0305 C.3       1 UNK         0.1400 
      6 C6         -1.6989  -11.6752  -47.4713 C.3       23 UNK        -0.0398 
      7 S7         -1.3779  -13.4464  -47.8075 S.3       23 UNK        -0.2404 
      8 C8         -2.8822  -13.8559  -48.7531 C.3       23 UNK        -0.0205 
      9 C9         -2.8464  -15.2530  -49.3573 C.ar      23 UNK        -0.0193 
     10 C10        -2.0107  -15.5251  -50.4445 C.ar      23 UNK        -0.1150 
     11 C11        -2.0052  -16.7907  -51.0395 C.ar      23 UNK        -0.0193 
     12 C12        -2.8575  -17.7825  -50.5497 C.ar      23 UNK        -0.1150 
     13 C13        -3.7043  -17.5236  -49.4690 C.ar      23 UNK        -0.0193 
     14 C14        -3.6882  -16.2587  -48.8715 C.ar      23 UNK        -0.1150 
     15 C15        -4.6687  -18.5933  -48.9780 C.3       23 UNK        -0.0205 
     16 S16        -3.9203  -19.7040  -47.7477 S.3       23 UNK        -0.2404 
     17 C17        -2.9591  -20.8559  -48.7897 C.3       23 UNK        -0.0398 
     18 CA         -2.1871  -21.9659  -48.0308 C.3       11 UNK         0.1400 
     19 N          -0.9419  -21.4959  -47.4181 N.am      11 UNK        -0.5000 
     20 C           0.0372  -22.3202  -47.0135 C.2       10 UNK         0.5000 
     21 O          -0.0169  -23.5442  -47.1295 O.2       10 UNK        -0.5000 
     22 CA          1.2601  -21.6881  -46.3269 C.3       10 UNK         0.1400 
     23 CB          2.2228  -21.0942  -47.3649 C.3       10 UNK        -0.1800 
     24 N           0.8953  -20.6682  -45.3448 N.am      10 UNK        -0.5000 
     25 C           0.1705  -20.8986  -44.2403 C.2       9 UNK         0.5000 
     26 O          -0.2586  -22.0077  -43.9216 O.2       9 UNK        -0.5000 
     27 CA         -0.1690  -19.6752  -43.3733 C.3       9 UNK         0.1400 
     28 CB          0.9953  -19.3126  -42.4393 C.3       9 UNK        -0.1800 
     29 N          -0.5235  -18.5283  -44.2094 N.am      9 UNK        -0.5000 
     30 C          -1.7151  -18.3970  -44.8101 C.2       8 UNK         0.5000 
     31 O          -2.6576  -19.1628  -44.6120 O.2       8 UNK        -0.5000 
     32 CA         -1.8790  -17.2413  -45.8146 C.3       8 UNK         0.1400 
     33 CB         -2.5043  -16.0142  -45.1405 C.3       8 UNK        -0.1800 
     34 N          -0.6236  -16.8717  -46.4687 N.am      8 UNK        -0.5000 
     35 C          -0.0182  -17.6266  -47.3980 C.2       7 UNK         0.5000 
     36 O          -0.4706  -18.6947  -47.8081 O.2       7 UNK        -0.5000 
     37 CA          1.3584  -17.1571  -47.9087 C.3       7 UNK         0.1400 
     38 CB          1.2161  -16.2851  -49.1617 C.3       7 UNK        -0.1800 
     39 N           2.1397  -16.4339  -46.9083 N.am      7 UNK        -0.5000 
     40 C           2.5477  -16.9370  -45.7365 C.2       6 UNK         0.5000 
     41 O           2.3118  -18.0901  -45.3735 O.2       6 UNK        -0.5000 
     42 CA          3.3121  -15.9861  -44.7953 C.3       6 UNK         0.1400 
     43 CB          3.9667  -14.7951  -45.5270 C.3       6 UNK        -0.1800 
     44 N           2.4827  -15.4964  -43.6907 N.am      6 UNK        -0.5000 
     45 C           1.2750  -14.9177  -43.7564 C.2       5 UNK         0.5000 
     46 O           0.6198  -14.8007  -44.7924 O.2       5 UNK        -0.5000 
     47 CA          0.6910  -14.3469  -42.4501 C.3       5 UNK         0.1400 
     48 CB         -0.1173  -15.4042  -41.6737 C.3       5 UNK        -0.1800 
     49 N           1.6641  -13.6610  -41.5898 N.am      5 UNK        -0.5000 
     50 C           2.6745  -14.1690  -40.8707 C.2       4 UNK         0.5000 
     51 O           2.9472  -15.3696  -40.8148 O.2       4 UNK        -0.5000 
     52 CA          3.5438  -13.1259  -40.1380 C.3       4 UNK         0.1400 
     53 CB          4.7065  -13.7492  -39.3363 C.3       4 UNK        -0.1800 
     54 N           4.0236  -12.0843  -41.0565 N.am      4 UNK        -0.5000 
     55 C           4.8245  -12.2546  -42.1211 C.2       3 UNK         0.5000 
     56 O           5.3494  -13.3273  -42.4238 O.2       3 UNK        -0.5000 
     57 CA          5.0583  -11.0008  -42.9938 C.3       3 UNK         0.1400 
     58 CB          5.8040  -11.3075  -44.3097 C.3       3 UNK        -0.1800 
     59 N           3.8315  -10.2405  -43.2757 N.am      3 UNK        -0.5000 
     60 C           2.7097  -10.6967  -43.8560 C.2       2 UNK         0.5000 
     61 O           2.5252  -11.8770  -44.1507 O.2       2 UNK        -0.5000 
     62 CA          1.6098   -9.6433  -44.1064 C.3       2 UNK         0.1400 
     63 CB          2.1056   -8.5026  -45.0212 C.3       2 UNK        -0.1800 
     64 N           0.3480  -10.1991  -44.6127 N.am      2 UNK        -0.5000 
     65 C           0.0919  -10.7813  -45.7952 C.2       1 UNK         0.5000 
     66 O           0.9349  -10.9600  -46.6762 O.2       1 UNK        -0.5000 
     67 C          -3.0598  -22.7663  -47.0408 C.2       11 UNK         0.5000 
     68 O          -3.6621  -23.7599  -47.4452 O.2       11 UNK        -0.5000 
     69 N          -3.0722  -22.3606  -45.7618 N.am      12 UNK        -0.5000 
     70 CA         -3.7588  -23.0663  -44.6802 C.3       12 UNK         0.1400 
     71 CB         -3.7934  -22.1891  -43.4203 C.3       12 UNK        -0.1800 
     72 C          -3.1216  -24.4359  -44.3889 C.2       12 UNK         0.5000 
     73 O          -3.8455  -25.4233  -44.2582 O.2       12 UNK        -0.5000 
     74 N          -1.7815  -24.4871  -44.3574 N.am      13 UNK        -0.5000 
     75 CA         -0.9964  -25.7184  -44.2250 C.3       13 UNK         0.1400 
     76 CB          0.4871  -25.3620  -44.0479 C.3       13 UNK        -0.1800 
     77 C          -1.1912  -26.6866  -45.4098 C.2       13 UNK         0.5000 
     78 O          -1.2075  -27.9011  -45.2085 O.2       13 UNK        -0.5000 
     79 N          -1.3852  -26.1291  -46.6121 N.am      14 UNK        -0.5000 
     80 CA         -1.7228  -26.8479  -47.8419 C.3       14 UNK         0.1400 
     81 CB         -1.2805  -25.9983  -49.0450 C.3       14 UNK        -0.1800 
     82 C          -3.2188  -27.2152  -47.9578 C.2       14 UNK         0.5000 
     83 O          -3.6198  -27.7388  -48.9973 O.2       14 UNK        -0.5000 
     84 N          -4.0291  -26.9151  -46.9300 N.am      15 UNK        -0.5000 
     85 CA         -5.4736  -27.1651  -46.8392 C.3       15 UNK         0.1400 
     86 CB         -5.7555  -28.6789  -46.7421 C.3       15 UNK        -0.1800 
     87 C          -6.2821  -26.4706  -47.9574 C.2       15 UNK         0.5000 
     88 O          -7.2484  -27.0368  -48.4706 O.2       15 UNK        -0.5000 
     89 N          -5.8455  -25.2569  -48.3216 N.am      16 UNK        -0.5000 
     90 CA         -6.3685  -24.3719  -49.3654 C.3       16 UNK         0.1400 
     91 CB         -7.8401  -23.9934  -49.1020 C.3       16 UNK        -0.1800 
     92 C          -6.1359  -24.8679  -50.8077 C.2       16 UNK         0.5000 
     93 O          -6.6363  -24.2362  -51.7381 O.2       16 UNK        -0.5000 
     94 N          -5.3534  -25.9414  -51.0011 N.am      17 UNK        -0.5000 
     95 CA         -5.0090  -26.4646  -52.3275 C.3       17 UNK         0.1400 
     96 CB         -4.3904  -27.8632  -52.1895 C.3       17 UNK        -0.1800 
     97 C          -4.0606  -25.5284  -53.0996 C.2       17 UNK         0.5000 
     98 O          -4.2006  -25.3788  -54.3138 O.2       17 UNK        -0.5000 
     99 N          -3.1316  -24.8911  -52.3726 N.am      18 UNK        -0.5000 
    100 CA        -2.1586  -23.9422  -52.9178 C.3       18 UNK         0.1400 
    101 CB        -1.0058  -23.7696  -51.9181 C.3       18 UNK        -0.1800 
    102 C         -2.7691  -22.5724  -53.2660 C.2       18 UNK         0.5000 
    103 O         -2.1851  -21.8466  -54.0703 O.2       18 UNK        -0.5000 
    104 N         -3.9303  -22.2430  -52.6790 N.am      19 UNK        -0.5000 
    105 CA        -4.6356  -20.9654  -52.8413 C.3       19 UNK         0.1400 
    106 CB        -5.8515  -20.9425  -51.9020 C.3       19 UNK        -0.1800 
    107 C         -5.0861  -20.6729  -54.2855 C.2       19 UNK         0.5000 
    108 O         -5.2604  -19.5090  -54.6455 O.2       19 UNK        -0.5000 
    109 N         -5.2566  -21.7323  -55.0861 N.am      20 UNK        -0.5000 
    110 CA        -5.6022  -21.6624  -56.5036 C.3       20 UNK         0.1400 
    111 CB        -6.1279  -23.0385  -56.9421 C.3       20 UNK        -0.1800 
    112 C         -4.4289  -21.2238  -57.4043 C.2       20 UNK         0.5000 
    113 O         -4.6755  -20.8470  -58.5511 O.2       20 UNK        -0.5000 
    114 N         -3.1894  -21.3011  -56.8981 N.am      21 UNK        -0.5000 
    115 CA        -1.9674  -21.0351  -57.6565 C.3       21 UNK         0.1400 
    116 CB        -1.1567  -22.3372  -57.7666 C.3       21 UNK        -0.1800 
    117 C         -1.1143  -19.9244  -57.0254 C.2       21 UNK         0.5000 
    118 O         -0.6218  -19.0634  -57.7555 O.2       21 UNK        -0.5000 
    119 N         -0.9262  -19.9752  -55.6986 N.am      22 UNK        -0.5000 
    120 CA        -0.0104  -19.1198  -54.9191 C.3       22 UNK         0.1400 
    121 C          1.5009  -19.2799  -55.2858 C.2       22 UNK         0.5000 
    122 N          1.9165  -20.3751  -55.9110 N.am      22 UNK        -0.7600 
    123 O          2.3220  -18.4231  -54.9698 O.2       22 UNK        -0.5000 
    124 C124       -0.4725  -17.6344  -54.8478 C.3       23 UNK        -0.0398 
    125 S125       -1.9187  -17.4141  -53.7573 S.3       23 UNK        -0.2404 
    126 C126       -1.0536  -17.0993  -52.1849 C.3       23 UNK        -0.0205 
    127 H127       -2.8704  -13.7963  -43.3546 H         1 UNK         0.0600 
    128 H128       -3.8692  -12.5814  -42.5617 H         1 UNK         0.0600 
    129 H129       -2.2430  -12.9109  -41.9609 H         1 UNK         0.0600 
    130 H130       -1.9199  -13.0642  -45.2718 H         1 UNK         0.3000 
    131 H131       -1.9345  -10.2434  -45.9296 H         1 UNK         0.0600 
    132 H132       -2.7557  -11.4832  -47.6613 H         1 UNK         0.0800 
    133 H133       -1.1716  -11.0780  -48.2171 H         1 UNK         0.0800 
    134 H134       -3.0071  -13.1312  -49.5592 H         1 UNK         0.0800 
    135 H135       -3.7511  -13.7445  -48.1026 H         1 UNK         0.0800 
    136 H136       -1.3593  -14.7488  -50.8206 H         1 UNK         0.1150 
    137 H137       -2.8619  -18.7550  -51.0183 H         1 UNK         0.1150 
    138 H138       -4.3469  -16.0525  -48.0397 H         1 UNK         0.1150 
    139 H139       -5.5416  -18.1195  -48.5268 H         1 UNK         0.0800 
    140 H140       -5.0462  -19.1715  -49.8195 H         1 UNK         0.0800 
    141 H141       -2.2553  -20.2819  -49.3918 H         1 UNK         0.0800 
    142 H142       -3.6480  -21.3189  -49.4965 H         1 UNK         0.0800 
    143 H143       -1.8829  -22.6820  -48.7953 H         1 UNK         0.0600 
    144 H144       -0.8173  -20.4882  -47.3471 H         1 UNK         0.3000 
    145 H145        1.7879  -22.4805  -45.7922 H         1 UNK         0.0600 
    146 H146        3.0837  -20.6258  -46.8873 H         1 UNK         0.0600 
    147 H147        2.6006  -21.8712  -48.0305 H         1 UNK         0.0600 
    148 H148        1.7325  -20.3460  -47.9861 H         1 UNK         0.0600 
    149 H149        1.2521  -19.7309  -45.5028 H         1 UNK         0.3000 
    150 H150       -1.0249  -19.9368  -42.7472 H         1 UNK         0.0600 
    151 H151        1.2632  -20.1607  -41.8081 H         1 UNK         0.0600 
    152 H152        0.7257  -18.4914  -41.7769 H         1 UNK         0.0600 
    153 H153        1.8900  -19.0207  -42.9882 H         1 UNK         0.0600 
    154 H154        0.2261  -17.9014  -44.4681 H         1 UNK         0.3000 
    155 H155       -2.5712  -17.5712  -46.5864 H         1 UNK         0.0600 
    156 H156       -3.4374  -16.2758  -44.6401 H         1 UNK         0.0600 
    157 H157       -1.8385  -15.5884  -44.3937 H         1 UNK         0.0600 
    158 H158       -2.7368  -15.2401  -45.8702 H         1 UNK         0.0600 
    159 H159       -0.1669  -16.0252  -46.1402 H         1 UNK         0.3000 
    160 H160        1.9290  -18.0450  -48.1839 H         1 UNK         0.0600 
    161 H161        0.6474  -15.3775  -48.9589 H         1 UNK         0.0600 
    162 H162        0.7003  -16.8311  -49.9499 H         1 UNK         0.0600 
    163 H163        2.1895  -15.9927  -49.5555 H         1 UNK         0.0600 
    164 H164        2.3262  -15.4600  -47.0979 H         1 UNK         0.3000 
    165 H165        4.1110  -16.5778  -44.3465 H         1 UNK         0.0600 
    166 H166        3.2297  -14.0831  -45.9013 H         1 UNK         0.0600 
    167 H167        4.6285  -14.2526  -44.8538 H         1 UNK         0.0600 
    168 H168        4.5736  -15.1289  -46.3695 H         1 UNK         0.0600 
    169 H169        2.8966  -15.5664  -42.7663 H         1 UNK         0.3000 
    170 H170       -0.0067  -13.5685  -42.7585 H         1 UNK         0.0600 
    171 H171       -0.8722  -15.8693  -42.3068 H         1 UNK         0.0600 
    172 H172        0.5161  -16.2029  -41.2908 H         1 UNK         0.0600 
    173 H173       -0.6367  -14.9558  -40.8269 H         1 UNK         0.0600 
    174 H174        1.5986  -12.6540  -41.6195 H         1 UNK         0.3000 
    175 H175        2.8876  -12.6291  -39.4218 H         1 UNK         0.0600 
    176 H176        5.3887  -14.3139  -39.9721 H         1 UNK         0.0600 
    177 H177        5.2854  -12.9825  -38.8214 H         1 UNK         0.0600 
    178 H178        4.3291  -14.4354  -38.5773 H         1 UNK         0.0600 
    179 H179        3.6502  -11.1587  -40.9001 H         1 UNK         0.3000 
    180 H180        5.6996  -10.3445  -42.4038 H         1 UNK         0.0600 
    181 H181        5.2167  -11.9481  -44.9673 H         1 UNK         0.0600 
    182 H182        6.7524  -11.8109  -44.1189 H         1 UNK         0.0600 
    183 H183        6.0296  -10.3909  -44.8547 H         1 UNK         0.0600 
    184 H184        3.8746   -9.2596  -43.0369 H         1 UNK         0.3000 
    185 H185        1.3684   -9.2109  -43.1344 H         1 UNK         0.0600 
    186 H186        2.4635   -8.8778  -45.9804 H         1 UNK         0.0600 
    187 H187        1.3115   -7.7825  -45.2190 H         1 UNK         0.0600 
    188 H188        2.9274   -7.9524  -44.5625 H         1 UNK         0.0600 
    189 H189       -0.4376  -10.1426  -43.9708 H         1 UNK         0.3000 
    190 H190       -2.5661  -21.5219  -45.5111 H         1 UNK         0.3000 
    191 H191       -4.7894  -23.2406  -44.9965 H         1 UNK         0.0600 
    192 H192       -4.3217  -22.6921  -42.6095 H         1 UNK         0.0600 
    193 H193       -4.3108  -21.2487  -43.6113 H         1 UNK         0.0600 
    194 H194       -2.7921  -21.9514  -43.0618 H         1 UNK         0.0600 
    195 H195       -1.2575  -23.6193  -44.4291 H         1 UNK         0.3000 
    196 H196       -1.3331  -26.2308  -43.3215 H         1 UNK         0.0600 
    197 H197        0.8807  -24.8311  -44.9147 H         1 UNK         0.0600 
    198 H198        0.6386  -24.7299  -43.1727 H         1 UNK         0.0600 
    199 H199        1.0909  -26.2598  -43.9103 H         1 UNK         0.0600 
    200 H200       -1.2814  -25.1235  -46.6949 H         1 UNK         0.3000 
    201 H201       -1.1601  -27.7831  -47.8649 H         1 UNK         0.0600 
    202 H202       -1.8486  -25.0710  -49.1077 H         1 UNK         0.0600 
    203 H203       -1.4234  -26.5369  -49.9826 H         1 UNK         0.0600 
    204 H204       -0.2235  -25.7397  -48.9801 H         1 UNK         0.0600 
    205 H205       -3.6261  -26.4459  -46.1278 H         1 UNK         0.3000 
    206 H206       -5.8019  -26.7094  -45.9041 H         1 UNK         0.0600 
    207 H207       -5.1830  -29.1345  -45.9342 H         1 UNK         0.0600 
    208 H208       -6.8098  -28.8686  -46.5379 H         1 UNK         0.0600 
    209 H209       -5.5029  -29.1985  -47.6669 H         1 UNK         0.0600 
    210 H210       -5.0180  -24.8909  -47.8518 H         1 UNK         0.3000 
    211 H211       -5.7849  -23.4543  -49.2797 H         1 UNK         0.0600 
    212 H212       -8.1656  -23.1997  -49.7755 H         1 UNK         0.0600 
    213 H213       -7.9775  -23.6284  -48.0842 H         1 UNK         0.0600 
    214 H214       -8.5114  -24.8393  -49.2508 H         1 UNK         0.0600 
    215 H215       -4.9755  -26.4342  -50.2005 H         1 UNK         0.3000 
    216 H216       -5.9305  -26.5591  -52.9060 H         1 UNK         0.0600 
    217 H217       -3.4336  -27.8324  -51.6673 H         1 UNK         0.0600 
    218 H218       -4.2128  -28.3079  -53.1694 H         1 UNK         0.0600 
    219 H219       -5.0503  -28.5357  -51.6409 H         1 UNK         0.0600 
    220 H220       -3.0868  -25.0783  -51.3824 H         1 UNK         0.3000 
    221 H221       -1.7478  -24.3592  -53.8399 H         1 UNK         0.0600 
    222 H222       -0.5136  -24.7206  -51.7145 H         1 UNK         0.0600 
    223 H223       -1.3520  -23.3584  -50.9706 H         1 UNK         0.0600 
    224 H224       -0.2464  -23.0916  -52.3103 H         1 UNK         0.0600 
    225 H225       -4.3747  -22.9278  -52.0864 H         1 UNK         0.3000 
    226 H226       -3.9491  -20.1709  -52.5443 H         1 UNK         0.0600 
    227 H227       -6.6269  -21.6333  -52.2342 H         1 UNK         0.0600 
    228 H228       -5.5829  -21.2140  -50.8822 H         1 UNK         0.0600 
    229 H229       -6.2981  -19.9479  -51.8712 H         1 UNK         0.0600 
    230 H230       -5.0984  -22.6538  -54.7031 H         1 UNK         0.3000 
    231 H231       -6.4048  -20.9329  -56.6307 H         1 UNK         0.0600 
    232 H232       -5.3702  -23.8144  -56.8232 H         1 UNK         0.0600 
    233 H233       -6.4272  -23.0287  -57.9910 H         1 UNK         0.0600 
    234 H234       -7.0015  -23.3312  -56.3592 H         1 UNK         0.0600 
    235 H235       -3.0724  -21.5744  -55.9298 H         1 UNK         0.3000 
    236 H236       -2.2068  -20.7093  -58.6709 H         1 UNK         0.0600 
    237 H237       -1.7179  -23.1030  -58.3022 H         1 UNK         0.0600 
    238 H238       -0.2264  -22.1756  -58.3128 H         1 UNK         0.0600 
    239 H239       -0.8998  -22.7383  -56.7852 H         1 UNK         0.0600 
    240 H240       -1.3786  -20.7114  -55.1601 H         1 UNK         0.3000 
    241 H241       -0.0560  -19.5179  -53.9050 H         1 UNK         0.0600 
    242 H242        2.8946  -20.4765  -56.1333 H         1 UNK         0.3800 
    243 H243        1.2677  -21.1036  -56.1595 H         1 UNK         0.3800 
    244 H244       -0.7194  -17.2542  -55.8391 H         1 UNK         0.0800 
    245 H245        0.3200  -16.9812  -54.4810 H         1 UNK         0.0800 
    246 H246       -0.4569  -17.9739  -51.9218 H         1 UNK         0.0800 
    247 H247       -0.3509  -16.2756  -52.3203 H         1 UNK         0.0800 
@<TRIPOS>BOND
     1    1    2 1    
     2    1  127 1    
     3    1  128 1    
     4    1  129 1    
     5    2    3 2    
     6    2    4 am   BACKBONE|DICT|INTERRES
     7    4    5 1    
     8    4  130 1    
     9    5    6 1    
    10    5   65 1    
    11    5  131 1    
    12    6    7 1    
    13    6  132 1    
    14    6  133 1    
    15    7    8 1    
    16    8    9 1    
    17    8  134 1    
    18    8  135 1    
    19    9   10 ar   
    20    9   14 ar   
    21   10   11 ar   
    22   10  136 1    
    23   11   12 ar   
    24   11  126 1    
    25   12   13 ar   
    26   12  137 1    
    27   13   14 ar   
    28   13   15 1    
    29   14  138 1    
    30   15   16 1    
    31   15  139 1    
    32   15  140 1    
    33   16   17 1    
    34   17   18 1    
    35   17  141 1    
    36   17  142 1    
    37   18   19 1    
    38   18   67 1    
    39   18  143 1    
    40   19   20 am   BACKBONE|DICT|INTERRES
    41   19  144 1    
    42   20   21 2    
    43   20   22 1    
    44   22   23 1    
    45   22   24 1    
    46   22  145 1    
    47   23  146 1    
    48   23  147 1    
    49   23  148 1    
    50   24   25 am   BACKBONE|DICT|INTERRES
    51   24  149 1    
    52   25   26 2    
    53   25   27 1    
    54   27   28 1    
    55   27   29 1    
    56   27  150 1    
    57   28  151 1    
    58   28  152 1    
    59   28  153 1    
    60   29   30 am   BACKBONE|DICT|INTERRES
    61   29  154 1    
    62   30   31 2    
    63   30   32 1    
    64   32   33 1    
    65   32   34 1    
    66   32  155 1    
    67   33  156 1    
    68   33  157 1    
    69   33  158 1    
    70   34   35 am   BACKBONE|DICT|INTERRES
    71   34  159 1    
    72   35   36 2    
    73   35   37 1    
    74   37   38 1    
    75   37   39 1    
    76   37  160 1    
    77   38  161 1    
    78   38  162 1    
    79   38  163 1    
    80   39   40 am   BACKBONE|DICT|INTERRES
    81   39  164 1    
    82   40   41 2    
    83   40   42 1    
    84   42   43 1    
    85   42   44 1    
    86   42  165 1    
    87   43  166 1    
    88   43  167 1    
    89   43  168 1    
    90   44   45 am   BACKBONE|DICT|INTERRES
    91   44  169 1    
    92   45   46 2    
    93   45   47 1    
    94   47   48 1    
    95   47   49 1    
    96   47  170 1    
    97   48  171 1    
    98   48  172 1    
    99   48  173 1    
   100   49   50 am   BACKBONE|DICT|INTERRES
   101   49  174 1    
   102   50   51 2    
   103   50   52 1    
   104   52   53 1    
   105   52   54 1    
   106   52  175 1    
   107   53  176 1    
   108   53  177 1    
   109   53  178 1    
   110   54   55 am   BACKBONE|DICT|INTERRES
   111   54  179 1    
   112   55   56 2    
   113   55   57 1    
   114   57   58 1    
   115   57   59 1    
   116   57  180 1    
   117   58  181 1    
   118   58  182 1    
   119   58  183 1    
   120   59   60 am   BACKBONE|DICT|INTERRES
   121   59  184 1    
   122   60   61 2    
   123   60   62 1    
   124   62   63 1    
   125   62   64 1    
   126   62  185 1    
   127   63  186 1    
   128   63  187 1    
   129   63  188 1    
   130   64   65 am   BACKBONE|DICT|INTERRES
   131   64  189 1    
   132   65   66 2    
   133   67   68 2    
   134   67   69 am   BACKBONE|DICT|INTERRES
   135   69   70 1    
   136   69  190 1    
   137   70   71 1    
   138   70   72 1    
   139   70  191 1    
   140   71  192 1    
   141   71  193 1    
   142   71  194 1    
   143   72   73 2    
   144   72   74 am   BACKBONE|DICT|INTERRES
   145   74   75 1    
   146   74  195 1    
   147   75   76 1    
   148   75   77 1    
   149   75  196 1    
   150   76  197 1    
   151   76  198 1    
   152   76  199 1    
   153   77   78 2    
   154   77   79 am   BACKBONE|DICT|INTERRES
   155   79   80 1    
   156   79  200 1    
   157   80   81 1    
   158   80   82 1    
   159   80  201 1    
   160   81  202 1    
   161   81  203 1    
   162   81  204 1    
   163   82   83 2    
   164   82   84 am   BACKBONE|DICT|INTERRES
   165   84   85 1    
   166   84  205 1    
   167   85   86 1    
   168   85   87 1    
   169   85  206 1    
   170   86  207 1    
   171   86  208 1    
   172   86  209 1    
   173   87   88 2    
   174   87   89 am   BACKBONE|DICT|INTERRES
   175   89   90 1    
   176   89  210 1    
   177   90   91 1    
   178   90   92 1    
   179   90  211 1    
   180   91  212 1    
   181   91  213 1    
   182   91  214 1    
   183   92   93 2    
   184   92   94 am   BACKBONE|DICT|INTERRES
   185   94   95 1    
   186   94  215 1    
   187   95   96 1    
   188   95   97 1    
   189   95  216 1    
   190   96  217 1    
   191   96  218 1    
   192   96  219 1    
   193   97   98 2    
   194   97   99 am   BACKBONE|DICT|INTERRES
   195   99  100 1    
   196   99  220 1    
   197  100  101 1    
   198  100  102 1    
   199  100  221 1    
   200  101  222 1    
   201  101  223 1    
   202  101  224 1    
   203  102  103 2    
   204  102  104 am   BACKBONE|DICT|INTERRES
   205  104  105 1    
   206  104  225 1    
   207  105  106 1    
   208  105  107 1    
   209  105  226 1    
   210  106  227 1    
   211  106  228 1    
   212  106  229 1    
   213  107  108 2    
   214  107  109 am   BACKBONE|DICT|INTERRES
   215  109  110 1    
   216  109  230 1    
   217  110  111 1    
   218  110  112 1    
   219  110  231 1    
   220  111  232 1    
   221  111  233 1    
   222  111  234 1    
   223  112  113 2    
   224  112  114 am   BACKBONE|DICT|INTERRES
   225  114  115 1    
   226  114  235 1    
   227  115  116 1    
   228  115  117 1    
   229  115  236 1    
   230  116  237 1    
   231  116  238 1    
   232  116  239 1    
   233  117  118 2    
   234  117  119 am   BACKBONE|DICT|INTERRES
   235  119  120 1    
   236  119  240 1    
   237  120  121 1    
   238  120  124 1    
   239  120  241 1    
   240  121  122 am   BACKBONE|DICT|INTERRES
   241  121  123 2    
   242  122  242 1    
   243  122  243 1    
   244  124  125 1    
   245  124  244 1    
   246  124  245 1    
   247  125  126 1    
   248  126  246 1    
   249  126  247 1    
@<TRIPOS>SUBSTRUCTURE
     1 UNK         1 GROUP             0       ****    0 ROOT    
