@<TRIPOS>MOLECULE
3R540
247   249    1
SMALL
USER_CHARGES


@<TRIPOS>ATOM
      1 CA          4.0237   -9.0935  -53.0278 C.3       0 UNK        -0.1800 
      2 C           4.3567  -10.5348  -52.6694 C.2       0 UNK         0.5000 
      3 O           5.4562  -11.0023  -52.9652 O.2       0 UNK        -0.5000 
      4 N           3.4159  -11.2373  -52.0264 N.am      1 UNK        -0.5000 
      5 CA          3.5438  -12.6393  -51.6055 C.3       1 UNK         0.1400 
      6 C6          2.1681  -13.3578  -51.5792 C.3       23 UNK        -0.0398 
      7 S7          0.9183  -12.5804  -50.4911 S.3       23 UNK        -0.2404 
      8 C8          0.9387  -13.6637  -49.0262 C.3       23 UNK        -0.0205 
      9 C9          0.2396  -14.9898  -49.2676 C.ar      23 UNK        -0.0193 
     10 C10        -1.1491  -15.0777  -49.1413 C.ar      23 UNK        -0.1150 
     11 C11        -1.8060  -16.2878  -49.3762 C.ar      23 UNK        -0.0193 
     12 C12        -1.0612  -17.4135  -49.7393 C.ar      23 UNK        -0.1150 
     13 C13         0.3304  -17.3416  -49.8575 C.ar      23 UNK        -0.0193 
     14 C14         0.9758  -16.1285  -49.6056 C.ar      23 UNK        -0.1150 
     15 C15         1.1356  -18.5578  -50.2952 C.3       23 UNK        -0.0205 
     16 S16         1.5021  -19.6792  -48.9070 S.3       23 UNK        -0.2404 
     17 C17        -0.1508  -20.3788  -48.6054 C.3       23 UNK        -0.0398 
     18 CA         -0.1242  -21.7734  -47.9459 C.3       11 UNK         0.1400 
     19 N           0.3256  -21.7318  -46.5521 N.am      11 UNK        -0.5000 
     20 C           0.5245  -22.8122  -45.7834 C.2       10 UNK         0.5000 
     21 O           0.4141  -23.9705  -46.1861 O.2       10 UNK        -0.5000 
     22 CA          0.8416  -22.5594  -44.2994 C.3       10 UNK         0.1400 
     23 CB          2.3205  -22.1932  -44.1062 C.3       10 UNK        -0.1800 
     24 N          -0.0142  -21.5267  -43.7117 N.am      10 UNK        -0.5000 
     25 C          -1.3455  -21.6321  -43.5859 C.2       9 UNK         0.5000 
     26 O          -1.9840  -22.6312  -43.9148 O.2       9 UNK        -0.5000 
     27 CA         -2.1011  -20.4089  -43.0370 C.3       9 UNK         0.1400 
     28 CB         -2.0029  -20.3525  -41.5057 C.3       9 UNK        -0.1800 
     29 N          -1.6386  -19.1468  -43.6156 N.am      9 UNK        -0.5000 
     30 C          -1.7386  -18.8267  -44.9150 C.2       8 UNK         0.5000 
     31 O          -2.2742  -19.5467  -45.7576 O.2       8 UNK        -0.5000 
     32 CA         -1.0788  -17.5088  -45.3618 C.3       8 UNK         0.1400 
     33 CB         -1.9851  -16.3056  -45.0651 C.3       8 UNK        -0.1800 
     34 N           0.2294  -17.2997  -44.7433 N.am      8 UNK        -0.5000 
     35 C           1.2824  -18.1118  -44.9116 C.2       7 UNK         0.5000 
     36 O           1.2668  -19.1204  -45.6155 O.2       7 UNK        -0.5000 
     37 CA          2.5437  -17.7748  -44.1021 C.3       7 UNK         0.1400 
     38 CB          3.2857  -16.5716  -44.7058 C.3       7 UNK        -0.1800 
     39 N           2.2310  -17.5198  -42.6955 N.am      7 UNK        -0.5000 
     40 C           1.7866  -18.4525  -41.8401 C.2       6 UNK         0.5000 
     41 O           1.6143  -19.6324  -42.1426 O.2       6 UNK        -0.5000 
     42 CA          1.4484  -17.9832  -40.4140 C.3       6 UNK         0.1400 
     43 CB          2.7092  -17.9657  -39.5370 C.3       6 UNK        -0.1800 
     44 N           0.8208  -16.6623  -40.3869 N.am      6 UNK        -0.5000 
     45 C          -0.3960  -16.3901  -40.8787 C.2       5 UNK         0.5000 
     46 O          -1.1305  -17.2277  -41.4015 O.2       5 UNK        -0.5000 
     47 CA         -0.8346  -14.9155  -40.8289 C.3       5 UNK         0.1400 
     48 CB         -1.3624  -14.5492  -39.4336 C.3       5 UNK        -0.1800 
     49 N           0.2369  -13.9886  -41.2094 N.am      5 UNK        -0.5000 
     50 C           0.8243  -13.9822  -42.4119 C.2       4 UNK         0.5000 
     51 O           0.5450  -14.7814  -43.3125 O.2       4 UNK        -0.5000 
     52 CA          1.9153  -12.9312  -42.6549 C.3       4 UNK         0.1400 
     53 CB          3.2823  -13.4258  -42.1489 C.3       4 UNK        -0.1800 
     54 N           1.9436  -12.7164  -44.0924 N.am      4 UNK        -0.5000 
     55 C           2.5250  -11.7287  -44.7731 C.2       3 UNK         0.5000 
     56 O           3.2118  -10.8355  -44.2722 O.2       3 UNK        -0.5000 
     57 CA          2.2096  -11.7261  -46.2780 C.3       3 UNK         0.1400 
     58 CB          1.0522  -10.7617  -46.5829 C.3       3 UNK        -0.1800 
     59 N           3.3413  -11.3923  -47.1375 N.am      3 UNK        -0.5000 
     60 C           4.4855  -12.0821  -47.2280 C.2       2 UNK         0.5000 
     61 O           4.7633  -13.0599  -46.5310 O.2       2 UNK        -0.5000 
     62 CA          5.4314  -11.6183  -48.3534 C.3       2 UNK         0.1400 
     63 CB          6.7921  -12.3470  -48.3550 C.3       2 UNK        -0.1800 
     64 N           4.7709  -11.7105  -49.6633 N.am      2 UNK        -0.5000 
     65 C           4.3235  -12.8189  -50.2796 C.2       1 UNK         0.5000 
     66 O           4.4922  -13.9584  -49.8441 O.2       1 UNK        -0.5000 
     67 C          -1.5094  -22.4353  -48.0801 C.2       11 UNK         0.5000 
     68 O          -1.6767  -23.3087  -48.9305 O.2       11 UNK        -0.5000 
     69 N          -2.4671  -22.0286  -47.2334 N.am      12 UNK        -0.5000 
     70 CA         -3.8188  -22.5863  -47.1905 C.3       12 UNK         0.1400 
     71 CB         -4.6887  -21.7856  -46.2113 C.3       12 UNK        -0.1800 
     72 C          -3.8324  -24.0836  -46.8428 C.2       12 UNK         0.5000 
     73 O          -4.5443  -24.8427  -47.4986 O.2       12 UNK        -0.5000 
     74 N          -3.0175  -24.4874  -45.8586 N.am      13 UNK        -0.5000 
     75 CA         -2.8230  -25.8810  -45.4604 C.3       13 UNK         0.1400 
     76 CB         -1.9646  -25.9434  -44.1881 C.3       13 UNK        -0.1800 
     77 C          -2.2085  -26.7368  -46.5822 C.2       13 UNK         0.5000 
     78 O          -2.7161  -27.8247  -46.8562 O.2       13 UNK        -0.5000 
     79 N          -1.1620  -26.2162  -47.2402 N.am      14 UNK        -0.5000 
     80 CA         -0.4921  -26.8537  -48.3774 C.3       14 UNK         0.1400 
     81 CB          0.7700  -26.0571  -48.7409 C.3       14 UNK        -0.1800 
     82 C          -1.4072  -27.0125  -49.6067 C.2       14 UNK         0.5000 
     83 O          -1.3457  -28.0386  -50.2846 O.2       14 UNK        -0.5000 
     84 N          -2.2601  -26.0096  -49.8495 N.am      15 UNK        -0.5000 
     85 CA         -3.2669  -25.9975  -50.9109 C.3       15 UNK         0.1400 
     86 CB         -3.6325  -24.5369  -51.2164 C.3       15 UNK        -0.1800 
     87 C          -4.5391  -26.7988  -50.5698 C.2       15 UNK         0.5000 
     88 O          -5.4226  -26.8923  -51.4215 O.2       15 UNK        -0.5000 
     89 N          -4.6478  -27.3115  -49.3339 N.am      16 UNK        -0.5000 
     90 CA         -5.8094  -28.0045  -48.7605 C.3       16 UNK         0.1400 
     91 CB         -5.9965  -29.3850  -49.4226 C.3       16 UNK        -0.1800 
     92 C          -7.0945  -27.1446  -48.7843 C.2       16 UNK         0.5000 
     93 O          -8.1917  -27.6689  -48.9838 O.2       16 UNK        -0.5000 
     94 N          -6.9151  -25.8276  -48.6037 N.am      17 UNK        -0.5000 
     95 CA         -7.9145  -24.7568  -48.6391 C.3       17 UNK         0.1400 
     96 CB         -8.8847  -24.8863  -47.4470 C.3       17 UNK        -0.1800 
     97 C          -8.6483  -24.6053  -49.9920 C.2       17 UNK         0.5000 
     98 O          -9.7379  -24.0306  -50.0232 O.2       17 UNK        -0.5000 
     99 N          -8.0544  -25.1056  -51.0881 N.am      18 UNK        -0.5000 
    100 CA        -8.6471  -25.0763  -52.4287 C.3       18 UNK         0.1400 
    101 CB        -7.8571  -26.0044  -53.3632 C.3       18 UNK        -0.1800 
    102 C         -8.7382  -23.6601  -53.0272 C.2       18 UNK         0.5000 
    103 O         -9.7480  -23.3344  -53.6527 O.2       18 UNK        -0.5000 
    104 N         -7.6943  -22.8493  -52.8105 N.am      19 UNK        -0.5000 
    105 CA        -7.5908  -21.4539  -53.2425 C.3       19 UNK         0.1400 
    106 CB        -7.5807  -21.3267  -54.7814 C.3       19 UNK        -0.1800 
    107 C         -6.3283  -20.8160  -52.6488 C.2       19 UNK         0.5000 
    108 O         -6.4231  -19.7604  -52.0236 O.2       19 UNK        -0.5000 
    109 N         -5.1881  -21.4967  -52.8502 N.am      20 UNK        -0.5000 
    110 CA        -3.8127  -21.0978  -52.5219 C.3       20 UNK         0.1400 
    111 CB        -3.6508  -20.7673  -51.0247 C.3       20 UNK        -0.1800 
    112 C         -3.2672  -19.9702  -53.4240 C.2       20 UNK         0.5000 
    113 O         -4.0263  -19.2181  -54.0393 O.2       20 UNK        -0.5000 
    114 N         -1.9333  -19.8877  -53.5043 N.am      21 UNK        -0.5000 
    115 CA        -1.1844  -18.9628  -54.3608 C.3       21 UNK         0.1400 
    116 CB         0.1737  -19.6054  -54.6989 C.3       21 UNK        -0.1800 
    117 C         -1.0365  -17.5620  -53.7290 C.2       21 UNK         0.5000 
    118 O          0.0801  -17.0578  -53.5944 O.2       21 UNK        -0.5000 
    119 N         -2.1651  -16.9718  -53.3257 N.am      22 UNK        -0.5000 
    120 CA        -2.2412  -15.6528  -52.6833 C.3       22 UNK         0.1400 
    121 C         -1.9506  -14.4843  -53.6638 C.2       22 UNK         0.5000 
    122 N         -1.3263  -13.4122  -53.1944 N.am      22 UNK        -0.7600 
    123 O         -2.3246  -14.5199  -54.8343 O.2       22 UNK        -0.5000 
    124 C124       -3.5960  -15.4332  -51.9560 C.3       23 UNK        -0.0398 
    125 S125       -4.0919  -16.8167  -50.8671 S.3       23 UNK        -0.2404 
    126 C126       -3.3219  -16.3690  -49.2774 C.3       23 UNK        -0.0205 
    127 H127        4.7363   -8.4154  -52.5582 H         1 UNK         0.0600 
    128 H128        3.0220   -8.8151  -52.6995 H         1 UNK         0.0600 
    129 H129        4.0787   -8.9534  -54.1073 H         1 UNK         0.0600 
    130 H130        2.5311  -10.8020  -51.8034 H         1 UNK         0.3000 
    131 H131        4.1415  -13.1561  -52.3596 H         1 UNK         0.0600 
    132 H132        1.7551  -13.3621  -52.5887 H         1 UNK         0.0800 
    133 H133        2.2893  -14.4103  -51.3258 H         1 UNK         0.0800 
    134 H134        0.4223  -13.1469  -48.2182 H         1 UNK         0.0800 
    135 H135        1.9640  -13.8243  -48.6911 H         1 UNK         0.0800 
    136 H136       -1.7181  -14.1977  -48.8760 H         1 UNK         0.1150 
    137 H137       -1.5769  -18.3374  -49.9543 H         1 UNK         0.1150 
    138 H138        2.0518  -16.0670  -49.6908 H         1 UNK         0.1150 
    139 H139        0.6041  -19.0943  -51.0826 H         1 UNK         0.0800 
    140 H140        2.0786  -18.2371  -50.7404 H         1 UNK         0.0800 
    141 H141       -0.6520  -20.4403  -49.5712 H         1 UNK         0.0800 
    142 H142       -0.7233  -19.6760  -47.9986 H         1 UNK         0.0800 
    143 H143        0.5818  -22.3983  -48.4972 H         1 UNK         0.0600 
    144 H144        0.4925  -20.8097  -46.1567 H         1 UNK         0.3000 
    145 H145        0.6537  -23.4900  -43.7599 H         1 UNK         0.0600 
    146 H146        2.5696  -22.1092  -43.0484 H         1 UNK         0.0600 
    147 H147        2.9709  -22.9574  -44.5335 H         1 UNK         0.0600 
    148 H148        2.5692  -21.2456  -44.5840 H         1 UNK         0.0600 
    149 H149        0.4506  -20.6874  -43.3800 H         1 UNK         0.3000 
    150 H150       -3.1538  -20.5265  -43.3015 H         1 UNK         0.0600 
    151 H151       -2.3474  -21.2851  -41.0571 H         1 UNK         0.0600 
    152 H152       -2.6204  -19.5506  -41.1010 H         1 UNK         0.0600 
    153 H153       -0.9779  -20.1866  -41.1734 H         1 UNK         0.0600 
    154 H154       -1.2206  -18.4803  -42.9741 H         1 UNK         0.3000 
    155 H155       -0.9292  -17.5621  -46.4426 H         1 UNK         0.0600 
    156 H156       -2.1377  -16.1718  -43.9934 H         1 UNK         0.0600 
    157 H157       -2.9650  -16.4313  -45.5274 H         1 UNK         0.0600 
    158 H158       -1.5550  -15.3845  -45.4592 H         1 UNK         0.0600 
    159 H159        0.3270  -16.4834  -44.1451 H         1 UNK         0.3000 
    160 H160        3.2102  -18.6388  -44.1485 H         1 UNK         0.0600 
    161 H161        2.6814  -15.6649  -44.6861 H         1 UNK         0.0600 
    162 H162        3.5500  -16.7619  -45.7468 H         1 UNK         0.0600 
    163 H163        4.2123  -16.3690  -44.1687 H         1 UNK         0.0600 
    164 H164        2.2952  -16.5648  -42.3789 H         1 UNK         0.3000 
    165 H165        0.7455  -18.7009  -39.9858 H         1 UNK         0.0600 
    166 H166        2.4680  -17.7108  -38.5049 H         1 UNK         0.0600 
    167 H167        3.1890  -18.9453  -39.5250 H         1 UNK         0.0600 
    168 H168        3.4435  -17.2448  -39.8988 H         1 UNK         0.0600 
    169 H169        1.3571  -15.9086  -39.9834 H         1 UNK         0.3000 
    170 H170       -1.6511  -14.7924  -41.5439 H         1 UNK         0.0600 
    171 H171       -2.1695  -15.2190  -39.1339 H         1 UNK         0.0600 
    172 H172       -0.5816  -14.6157  -38.6750 H         1 UNK         0.0600 
    173 H173       -1.7612  -13.5348  -39.4170 H         1 UNK         0.0600 
    174 H174        0.5165  -13.3084  -40.5171 H         1 UNK         0.3000 
    175 H175        1.6398  -12.0002  -42.1557 H         1 UNK         0.0600 
    176 H176        3.5879  -14.3461  -42.6471 H         1 UNK         0.0600 
    177 H177        4.0610  -12.6823  -42.3191 H         1 UNK         0.0600 
    178 H178        3.2552  -13.6241  -41.0769 H         1 UNK         0.0600 
    179 H179        1.3773  -13.3974  -44.5854 H         1 UNK         0.3000 
    180 H180        1.9002  -12.7361  -46.5463 H         1 UNK         0.0600 
    181 H181        0.7762  -10.7886  -47.6371 H         1 UNK         0.0600 
    182 H182        1.3130   -9.7325  -46.3326 H         1 UNK         0.0600 
    183 H183        0.1628  -11.0235  -46.0082 H         1 UNK         0.0600 
    184 H184        3.2129  -10.5982  -47.7465 H         1 UNK         0.3000 
    185 H185        5.6315  -10.5601  -48.1779 H         1 UNK         0.0600 
    186 H186        6.6833  -13.4244  -48.4813 H         1 UNK         0.0600 
    187 H187        7.4341  -11.9793  -49.1554 H         1 UNK         0.0600 
    188 H188        7.3187  -12.1833  -47.4142 H         1 UNK         0.0600 
    189 H189        4.5770  -10.8298  -50.1177 H         1 UNK         0.3000 
    190 H190       -2.2690  -21.2718  -46.5836 H         1 UNK         0.3000 
    191 H191       -4.2518  -22.4793  -48.1864 H         1 UNK         0.0600 
    192 H192       -4.2918  -21.8215  -45.1968 H         1 UNK         0.0600 
    193 H193       -5.7059  -22.1781  -46.1813 H         1 UNK         0.0600 
    194 H194       -4.7524  -20.7386  -46.5082 H         1 UNK         0.0600 
    195 H195       -2.4991  -23.7876  -45.3332 H         1 UNK         0.3000 
    196 H196       -3.8047  -26.2979  -45.2261 H         1 UNK         0.0600 
    197 H197       -1.8160  -26.9749  -43.8663 H         1 UNK         0.0600 
    198 H198       -2.4424  -25.4114  -43.3653 H         1 UNK         0.0600 
    199 H199       -0.9800  -25.5015  -44.3430 H         1 UNK         0.0600 
    200 H200       -0.7830  -25.3241  -46.9336 H         1 UNK         0.3000 
    201 H201       -0.1842  -27.8532  -48.0637 H         1 UNK         0.0600 
    202 H202        1.4640  -26.0145  -47.9013 H         1 UNK         0.0600 
    203 H203        0.5303  -25.0327  -49.0278 H         1 UNK         0.0600 
    204 H204        1.2977  -26.5186  -49.5764 H         1 UNK         0.0600 
    205 H205       -2.1960  -25.1692  -49.2815 H         1 UNK         0.3000 
    206 H206       -2.8347  -26.4374  -51.8118 H         1 UNK         0.0600 
    207 H207       -2.7448  -23.9603  -51.4753 H         1 UNK         0.0600 
    208 H208       -4.3231  -24.4688  -52.0576 H         1 UNK         0.0600 
    209 H209       -4.1058  -24.0564  -50.3594 H         1 UNK         0.0600 
    210 H210       -3.8808  -27.1547  -48.6923 H         1 UNK         0.3000 
    211 H211       -5.5748  -28.1700  -47.7081 H         1 UNK         0.0600 
    212 H212       -6.2905  -29.2960  -50.4689 H         1 UNK         0.0600 
    213 H213       -6.7692  -29.9620  -48.9135 H         1 UNK         0.0600 
    214 H214       -5.0769  -29.9687  -49.3809 H         1 UNK         0.0600 
    215 H215       -5.9687  -25.5180  -48.3850 H         1 UNK         0.3000 
    216 H216       -7.3552  -23.8301  -48.5034 H         1 UNK         0.0600 
    217 H217       -9.5324  -24.0124  -47.3691 H         1 UNK         0.0600 
    218 H218       -8.3418  -24.9686  -46.5053 H         1 UNK         0.0600 
    219 H219       -9.5271  -25.7621  -47.5421 H         1 UNK         0.0600 
    220 H220       -7.1775  -25.6032  -50.9902 H         1 UNK         0.3000 
    221 H221       -9.6638  -25.4678  -52.3520 H         1 UNK         0.0600 
    222 H222       -6.8236  -25.6756  -53.4793 H         1 UNK         0.0600 
    223 H223       -7.8425  -27.0263  -52.9835 H         1 UNK         0.0600 
    224 H224       -8.3060  -26.0330  -54.3568 H         1 UNK         0.0600 
    225 H225       -6.9374  -23.1889  -52.2342 H         1 UNK         0.3000 
    226 H226       -8.4536  -20.9105  -52.8514 H         1 UNK         0.0600 
    227 H227       -8.5430  -21.5962  -55.2154 H         1 UNK         0.0600 
    228 H228       -7.3733  -20.3001  -55.0865 H         1 UNK         0.0600 
    229 H229       -6.8204  -21.9631  -55.2350 H         1 UNK         0.0600 
    230 H230       -5.2523  -22.3225  -53.4278 H         1 UNK         0.3000 
    231 H231       -3.2046  -21.9782  -52.7315 H         1 UNK         0.0600 
    232 H232       -4.0472  -21.5656  -50.3993 H         1 UNK         0.0600 
    233 H233       -4.1575  -19.8429  -50.7494 H         1 UNK         0.0600 
    234 H234       -2.6005  -20.6465  -50.7663 H         1 UNK         0.0600 
    235 H235       -1.3740  -20.5230  -52.9546 H         1 UNK         0.3000 
    236 H236       -1.7270  -18.8313  -55.2994 H         1 UNK         0.0600 
    237 H237        0.7468  -18.9754  -55.3805 H         1 UNK         0.0600 
    238 H238        0.7799  -19.7605  -53.8055 H         1 UNK         0.0600 
    239 H239        0.0426  -20.5710  -55.1878 H         1 UNK         0.0600 
    240 H240       -3.0419  -17.4586  -53.4711 H         1 UNK         0.3000 
    241 H241       -1.4486  -15.6279  -51.9366 H         1 UNK         0.0600 
    242 H242       -1.1509  -12.6401  -53.8181 H         1 UNK         0.3800 
    243 H243       -1.0093  -13.3567  -52.2383 H         1 UNK         0.3800 
    244 H244       -3.5674  -14.5145  -51.3678 H         1 UNK         0.0800 
    245 H245       -4.3948  -15.2980  -52.6873 H         1 UNK         0.0800 
    246 H246       -3.7444  -15.4259  -48.9277 H         1 UNK         0.0800 
    247 H247       -3.5867  -17.1207  -48.5325 H         1 UNK         0.0800 
@<TRIPOS>BOND
     1    1    2 1    
     2    1  127 1    
     3    1  128 1    
     4    1  129 1    
     5    2    3 2    
     6    2    4 am   BACKBONE|DICT|INTERRES
     7    4    5 1    
     8    4  130 1    
     9    5    6 1    
    10    5   65 1    
    11    5  131 1    
    12    6    7 1    
    13    6  132 1    
    14    6  133 1    
    15    7    8 1    
    16    8    9 1    
    17    8  134 1    
    18    8  135 1    
    19    9   10 ar   
    20    9   14 ar   
    21   10   11 ar   
    22   10  136 1    
    23   11   12 ar   
    24   11  126 1    
    25   12   13 ar   
    26   12  137 1    
    27   13   14 ar   
    28   13   15 1    
    29   14  138 1    
    30   15   16 1    
    31   15  139 1    
    32   15  140 1    
    33   16   17 1    
    34   17   18 1    
    35   17  141 1    
    36   17  142 1    
    37   18   19 1    
    38   18   67 1    
    39   18  143 1    
    40   19   20 am   BACKBONE|DICT|INTERRES
    41   19  144 1    
    42   20   21 2    
    43   20   22 1    
    44   22   23 1    
    45   22   24 1    
    46   22  145 1    
    47   23  146 1    
    48   23  147 1    
    49   23  148 1    
    50   24   25 am   BACKBONE|DICT|INTERRES
    51   24  149 1    
    52   25   26 2    
    53   25   27 1    
    54   27   28 1    
    55   27   29 1    
    56   27  150 1    
    57   28  151 1    
    58   28  152 1    
    59   28  153 1    
    60   29   30 am   BACKBONE|DICT|INTERRES
    61   29  154 1    
    62   30   31 2    
    63   30   32 1    
    64   32   33 1    
    65   32   34 1    
    66   32  155 1    
    67   33  156 1    
    68   33  157 1    
    69   33  158 1    
    70   34   35 am   BACKBONE|DICT|INTERRES
    71   34  159 1    
    72   35   36 2    
    73   35   37 1    
    74   37   38 1    
    75   37   39 1    
    76   37  160 1    
    77   38  161 1    
    78   38  162 1    
    79   38  163 1    
    80   39   40 am   BACKBONE|DICT|INTERRES
    81   39  164 1    
    82   40   41 2    
    83   40   42 1    
    84   42   43 1    
    85   42   44 1    
    86   42  165 1    
    87   43  166 1    
    88   43  167 1    
    89   43  168 1    
    90   44   45 am   BACKBONE|DICT|INTERRES
    91   44  169 1    
    92   45   46 2    
    93   45   47 1    
    94   47   48 1    
    95   47   49 1    
    96   47  170 1    
    97   48  171 1    
    98   48  172 1    
    99   48  173 1    
   100   49   50 am   BACKBONE|DICT|INTERRES
   101   49  174 1    
   102   50   51 2    
   103   50   52 1    
   104   52   53 1    
   105   52   54 1    
   106   52  175 1    
   107   53  176 1    
   108   53  177 1    
   109   53  178 1    
   110   54   55 am   BACKBONE|DICT|INTERRES
   111   54  179 1    
   112   55   56 2    
   113   55   57 1    
   114   57   58 1    
   115   57   59 1    
   116   57  180 1    
   117   58  181 1    
   118   58  182 1    
   119   58  183 1    
   120   59   60 am   BACKBONE|DICT|INTERRES
   121   59  184 1    
   122   60   61 2    
   123   60   62 1    
   124   62   63 1    
   125   62   64 1    
   126   62  185 1    
   127   63  186 1    
   128   63  187 1    
   129   63  188 1    
   130   64   65 am   BACKBONE|DICT|INTERRES
   131   64  189 1    
   132   65   66 2    
   133   67   68 2    
   134   67   69 am   BACKBONE|DICT|INTERRES
   135   69   70 1    
   136   69  190 1    
   137   70   71 1    
   138   70   72 1    
   139   70  191 1    
   140   71  192 1    
   141   71  193 1    
   142   71  194 1    
   143   72   73 2    
   144   72   74 am   BACKBONE|DICT|INTERRES
   145   74   75 1    
   146   74  195 1    
   147   75   76 1    
   148   75   77 1    
   149   75  196 1    
   150   76  197 1    
   151   76  198 1    
   152   76  199 1    
   153   77   78 2    
   154   77   79 am   BACKBONE|DICT|INTERRES
   155   79   80 1    
   156   79  200 1    
   157   80   81 1    
   158   80   82 1    
   159   80  201 1    
   160   81  202 1    
   161   81  203 1    
   162   81  204 1    
   163   82   83 2    
   164   82   84 am   BACKBONE|DICT|INTERRES
   165   84   85 1    
   166   84  205 1    
   167   85   86 1    
   168   85   87 1    
   169   85  206 1    
   170   86  207 1    
   171   86  208 1    
   172   86  209 1    
   173   87   88 2    
   174   87   89 am   BACKBONE|DICT|INTERRES
   175   89   90 1    
   176   89  210 1    
   177   90   91 1    
   178   90   92 1    
   179   90  211 1    
   180   91  212 1    
   181   91  213 1    
   182   91  214 1    
   183   92   93 2    
   184   92   94 am   BACKBONE|DICT|INTERRES
   185   94   95 1    
   186   94  215 1    
   187   95   96 1    
   188   95   97 1    
   189   95  216 1    
   190   96  217 1    
   191   96  218 1    
   192   96  219 1    
   193   97   98 2    
   194   97   99 am   BACKBONE|DICT|INTERRES
   195   99  100 1    
   196   99  220 1    
   197  100  101 1    
   198  100  102 1    
   199  100  221 1    
   200  101  222 1    
   201  101  223 1    
   202  101  224 1    
   203  102  103 2    
   204  102  104 am   BACKBONE|DICT|INTERRES
   205  104  105 1    
   206  104  225 1    
   207  105  106 1    
   208  105  107 1    
   209  105  226 1    
   210  106  227 1    
   211  106  228 1    
   212  106  229 1    
   213  107  108 2    
   214  107  109 am   BACKBONE|DICT|INTERRES
   215  109  110 1    
   216  109  230 1    
   217  110  111 1    
   218  110  112 1    
   219  110  231 1    
   220  111  232 1    
   221  111  233 1    
   222  111  234 1    
   223  112  113 2    
   224  112  114 am   BACKBONE|DICT|INTERRES
   225  114  115 1    
   226  114  235 1    
   227  115  116 1    
   228  115  117 1    
   229  115  236 1    
   230  116  237 1    
   231  116  238 1    
   232  116  239 1    
   233  117  118 2    
   234  117  119 am   BACKBONE|DICT|INTERRES
   235  119  120 1    
   236  119  240 1    
   237  120  121 1    
   238  120  124 1    
   239  120  241 1    
   240  121  122 am   BACKBONE|DICT|INTERRES
   241  121  123 2    
   242  122  242 1    
   243  122  243 1    
   244  124  125 1    
   245  124  244 1    
   246  124  245 1    
   247  125  126 1    
   248  126  246 1    
   249  126  247 1    
@<TRIPOS>SUBSTRUCTURE
     1 UNK         1 GROUP             0       ****    0 ROOT    
