@<TRIPOS>MOLECULE
3R540
247   249    1
SMALL
USER_CHARGES


@<TRIPOS>ATOM
      1 CA          0.4143  -11.3831  -47.5993 C.3       0 UNK        -0.1800 
      2 C           1.8270  -11.4698  -48.1601 C.2       0 UNK         0.5000 
      3 O           2.3481  -10.4745  -48.6628 O.2       0 UNK        -0.5000 
      4 N           2.4458  -12.6508  -48.0609 N.am      1 UNK        -0.5000 
      5 CA          3.8126  -12.9433  -48.5170 C.3       1 UNK         0.1400 
      6 C6          3.8675  -14.2273  -49.3860 C.3       23 UNK        -0.0398 
      7 S7          2.7374  -14.1788  -50.8216 S.3       23 UNK        -0.2404 
      8 C8          1.4129  -15.2992  -50.2697 C.3       23 UNK        -0.0205 
      9 C9          1.6682  -16.7381  -50.6937 C.ar      23 UNK        -0.0193 
     10 C10         1.0665  -17.2444  -51.8495 C.ar      23 UNK        -0.1150 
     11 C11         1.3017  -18.5616  -52.2559 C.ar      23 UNK        -0.0193 
     12 C12         2.1621  -19.3682  -51.5066 C.ar      23 UNK        -0.1150 
     13 C13         2.7607  -18.8778  -50.3425 C.ar      23 UNK        -0.0193 
     14 C14         2.4995  -17.5669  -49.9348 C.ar      23 UNK        -0.1150 
     15 C15         3.6963  -19.7599  -49.5283 C.3       23 UNK        -0.0205 
     16 S16         2.8375  -21.1767  -48.7764 S.3       23 UNK        -0.2404 
     17 C17         1.6035  -20.3356  -47.7303 C.3       23 UNK        -0.0398 
     18 CA          0.7008  -21.3358  -46.9754 C.3       11 UNK         0.1400 
     19 N           0.0569  -20.7192  -45.8164 N.am      11 UNK        -0.5000 
     20 C          -0.5601  -21.3965  -44.8394 C.2       10 UNK         0.5000 
     21 O          -0.6207  -22.6253  -44.7859 O.2       10 UNK        -0.5000 
     22 CA         -1.2656  -20.5467  -43.7680 C.3       10 UNK         0.1400 
     23 CB         -0.2456  -20.0335  -42.7406 C.3       10 UNK        -0.1800 
     24 N          -2.0036  -19.4200  -44.3478 N.am      10 UNK        -0.5000 
     25 C          -3.0579  -19.5639  -45.1662 C.2       9 UNK         0.5000 
     26 O          -3.5457  -20.6549  -45.4584 O.2       9 UNK        -0.5000 
     27 CA         -3.6461  -18.2950  -45.8108 C.3       9 UNK         0.1400 
     28 CB         -4.7440  -17.6913  -44.9246 C.3       9 UNK        -0.1800 
     29 N          -2.6568  -17.2651  -46.1283 N.am      9 UNK        -0.5000 
     30 C          -1.6127  -17.4233  -46.9562 C.2       8 UNK         0.5000 
     31 O          -1.3261  -18.4852  -47.5077 O.2       8 UNK        -0.5000 
     32 CA         -0.7125  -16.2004  -47.1551 C.3       8 UNK         0.1400 
     33 CB         -1.3542  -15.1839  -48.1146 C.3       8 UNK        -0.1800 
     34 N          -0.4465  -15.5784  -45.8636 N.am      8 UNK        -0.5000 
     35 C           0.6630  -14.9234  -45.5302 C.2       7 UNK         0.5000 
     36 O           1.5774  -14.6971  -46.3275 O.2       7 UNK        -0.5000 
     37 CA          0.8035  -14.4060  -44.0811 C.3       7 UNK         0.1400 
     38 CB          1.0318  -12.8842  -44.0869 C.3       7 UNK        -0.1800 
     39 N          -0.2486  -14.6792  -43.0893 N.am      7 UNK        -0.5000 
     40 C          -0.9143  -15.8015  -42.7818 C.2       6 UNK         0.5000 
     41 O          -0.9551  -16.8198  -43.4727 O.2       6 UNK        -0.5000 
     42 CA         -1.6104  -15.7733  -41.4098 C.3       6 UNK         0.1400 
     43 CB         -2.6067  -16.9270  -41.2054 C.3       6 UNK        -0.1800 
     44 N          -0.5759  -15.8469  -40.3806 N.am      6 UNK        -0.5000 
     45 C           0.0457  -14.7898  -39.8425 C.2       5 UNK         0.5000 
     46 O          -0.2776  -13.6216  -40.0613 O.2       5 UNK        -0.5000 
     47 CA          1.2691  -15.0944  -38.9595 C.3       5 UNK         0.1400 
     48 CB          0.8331  -15.4983  -37.5428 C.3       5 UNK        -0.1800 
     49 N           2.1259  -16.1418  -39.5252 N.am      5 UNK        -0.5000 
     50 C           2.8481  -16.0125  -40.6482 C.2       4 UNK         0.5000 
     51 O           2.8839  -14.9742  -41.3132 O.2       4 UNK        -0.5000 
     52 CA          3.7140  -17.2251  -41.0572 C.3       4 UNK         0.1400 
     53 CB          2.9993  -18.5801  -40.8492 C.3       4 UNK        -0.1800 
     54 N           4.2460  -17.0982  -42.4201 N.am      4 UNK        -0.5000 
     55 C           3.5688  -17.1779  -43.5737 C.2       3 UNK         0.5000 
     56 O           2.3745  -17.4618  -43.6635 O.2       3 UNK        -0.5000 
     57 CA          4.3656  -16.8258  -44.8419 C.3       3 UNK         0.1400 
     58 CB          3.8196  -17.5246  -46.0980 C.3       3 UNK        -0.1800 
     59 N           4.3292  -15.3833  -45.0559 N.am      3 UNK        -0.5000 
     60 C           5.1433  -14.4979  -44.4645 C.2       2 UNK         0.5000 
     61 O           6.0459  -14.8231  -43.6905 O.2       2 UNK        -0.5000 
     62 CA          4.9001  -13.0066  -44.7874 C.3       2 UNK         0.1400 
     63 CB          6.1665  -12.1394  -44.6291 C.3       2 UNK        -0.1800 
     64 N           4.2692  -12.7983  -46.0975 N.am      2 UNK        -0.5000 
     65 C           4.7737  -13.0733  -47.3120 C.2       1 UNK         0.5000 
     66 O           5.9302  -13.4521  -47.5006 O.2       1 UNK        -0.5000 
     67 C          -0.3407  -21.9814  -47.9084 C.2       11 UNK         0.5000 
     68 O          -0.1457  -23.1168  -48.3384 O.2       11 UNK        -0.5000 
     69 N          -1.4487  -21.2697  -48.1593 N.am      12 UNK        -0.5000 
     70 CA         -2.5748  -21.7380  -48.9650 C.3       12 UNK         0.1400 
     71 CB         -3.6096  -20.6126  -49.1011 C.3       12 UNK        -0.1800 
     72 C          -3.2213  -23.0120  -48.3924 C.2       12 UNK         0.5000 
     73 O          -3.4880  -23.9453  -49.1481 O.2       12 UNK        -0.5000 
     74 N          -3.4141  -23.0491  -47.0665 N.am      13 UNK        -0.5000 
     75 CA         -3.9039  -24.2138  -46.3316 C.3       13 UNK         0.1400 
     76 CB         -4.1944  -23.8227  -44.8750 C.3       13 UNK        -0.1800 
     77 C          -2.9324  -25.4058  -46.3957 C.2       13 UNK         0.5000 
     78 O          -3.3732  -26.5260  -46.6533 O.2       13 UNK        -0.5000 
     79 N          -1.6310  -25.1441  -46.2006 N.am      14 UNK        -0.5000 
     80 CA         -0.5617  -26.1445  -46.2795 C.3       14 UNK         0.1400 
     81 CB          0.7576  -25.5269  -45.7919 C.3       14 UNK        -0.1800 
     82 C          -0.3953  -26.7449  -47.6893 C.2       14 UNK         0.5000 
     83 O          -0.1641  -27.9478  -47.8164 O.2       14 UNK        -0.5000 
     84 N          -0.5480  -25.9038  -48.7199 N.am      15 UNK        -0.5000 
     85 CA         -0.5252  -26.2829  -50.1334 C.3       15 UNK         0.1400 
     86 CB         -0.2987  -25.0164  -50.9762 C.3       15 UNK        -0.1800 
     87 C          -1.8039  -27.0069  -50.6025 C.2       15 UNK         0.5000 
     88 O          -1.8006  -27.5648  -51.7007 O.2       15 UNK        -0.5000 
     89 N          -2.8704  -26.9625  -49.7882 N.am      16 UNK        -0.5000 
     90 CA         -4.2336  -27.4222  -50.0777 C.3       16 UNK         0.1400 
     91 CB         -4.2827  -28.9552  -50.2458 C.3       16 UNK        -0.1800 
     92 C          -4.8670  -26.6517  -51.2573 C.2       16 UNK         0.5000 
     93 O          -5.5516  -27.2400  -52.0969 O.2       16 UNK        -0.5000 
     94 N          -4.6016  -25.3416  -51.2930 N.am      17 UNK        -0.5000 
     95 CA         -5.0923  -24.3808  -52.2697 C.3       17 UNK         0.1400 
     96 CB         -3.8970  -23.5266  -52.7388 C.3       17 UNK        -0.1800 
     97 C          -6.2366  -23.5792  -51.6182 C.2       17 UNK         0.5000 
     98 O          -7.2204  -24.1862  -51.1931 O.2       17 UNK        -0.5000 
     99 N          -6.1091  -22.2455  -51.5579 N.am      18 UNK        -0.5000 
    100 CA        -7.0118  -21.2609  -50.9411 C.3       18 UNK         0.1400 
    101 CB        -7.3210  -21.6011  -49.4685 C.3       18 UNK        -0.1800 
    102 C         -8.2928  -20.9677  -51.7459 C.2       18 UNK         0.5000 
    103 O         -8.9501  -19.9595  -51.4811 O.2       18 UNK        -0.5000 
    104 N         -8.6067  -21.7970  -52.7488 N.am      19 UNK        -0.5000 
    105 CA        -9.6467  -21.5691  -53.7505 C.3       19 UNK         0.1400 
    106 CB       -10.0499  -22.9228  -54.3612 C.3       19 UNK        -0.1800 
    107 C         -9.1240  -20.5740  -54.8038 C.2       19 UNK         0.5000 
    108 O         -8.7428  -20.9781  -55.9038 O.2       19 UNK        -0.5000 
    109 N         -9.0178  -19.3016  -54.3966 N.am      20 UNK        -0.5000 
    110 CA        -8.3825  -18.1578  -55.0672 C.3       20 UNK         0.1400 
    111 CB        -8.9980  -17.8810  -56.4521 C.3       20 UNK        -0.1800 
    112 C         -6.8453  -18.2635  -55.1398 C.2       20 UNK         0.5000 
    113 O         -6.1578  -17.2851  -54.8412 O.2       20 UNK        -0.5000 
    114 N         -6.3321  -19.4475  -55.4973 N.am      21 UNK        -0.5000 
    115 CA        -4.9169  -19.8124  -55.5149 C.3       21 UNK         0.1400 
    116 CB        -4.7843  -21.2624  -56.0049 C.3       21 UNK        -0.1800 
    117 C         -4.2692  -19.6332  -54.1296 C.2       21 UNK         0.5000 
    118 O         -4.6971  -20.2776  -53.1694 O.2       21 UNK        -0.5000 
    119 N         -3.2816  -18.7337  -54.0586 N.am      22 UNK        -0.5000 
    120 CA        -2.6016  -18.2858  -52.8299 C.3       22 UNK         0.1400 
    121 C         -3.4995  -17.4571  -51.8580 C.2       22 UNK         0.5000 
    122 N         -4.6662  -16.9744  -52.2709 N.am      22 UNK        -0.7600 
    123 O         -3.1192  -17.2103  -50.7181 O.2       22 UNK        -0.5000 
    124 C124       -1.8224  -19.4164  -52.0967 C.3       23 UNK        -0.0398 
    125 S125       -0.6545  -20.3434  -53.1529 S.3       23 UNK        -0.2404 
    126 C126        0.6393  -19.1083  -53.5124 C.3       23 UNK        -0.0205 
    127 H127        0.3535  -10.5898  -46.8544 H         1 UNK         0.0600 
    128 H128        0.1065  -12.3148  -47.1255 H         1 UNK         0.0600 
    129 H129       -0.2927  -11.1587  -48.3979 H         1 UNK         0.0600 
    130 H130        1.9765  -13.4268  -47.5981 H         1 UNK         0.3000 
    131 H131        4.1890  -12.1176  -49.1239 H         1 UNK         0.0600 
    132 H132        4.8756  -14.3773  -49.7762 H         1 UNK         0.0800 
    133 H133        3.6522  -15.1024  -48.7738 H         1 UNK         0.0800 
    134 H134        1.3123  -15.2386  -49.1870 H         1 UNK         0.0800 
    135 H135        0.4656  -14.9502  -50.6832 H         1 UNK         0.0800 
    136 H136        0.4161  -16.6094  -52.4343 H         1 UNK         0.1150 
    137 H137        2.3541  -20.3846  -51.8211 H         1 UNK         0.1150 
    138 H138        2.9532  -17.1913  -49.0307 H         1 UNK         0.1150 
    139 H139        4.4884  -20.1328  -50.1789 H         1 UNK         0.0800 
    140 H140        4.1908  -19.1860  -48.7434 H         1 UNK         0.0800 
    141 H141        1.0095  -19.6469  -48.3337 H         1 UNK         0.0800 
    142 H142        2.1477  -19.7201  -47.0162 H         1 UNK         0.0800 
    143 H143        1.3354  -22.1369  -46.5892 H         1 UNK         0.0600 
    144 H144       -0.0015  -19.7112  -45.8116 H         1 UNK         0.3000 
    145 H145       -1.9787  -21.1912  -43.2497 H         1 UNK         0.0600 
    146 H146       -0.7389  -19.5681  -41.8899 H         1 UNK         0.0600 
    147 H147        0.3638  -20.8493  -42.3495 H         1 UNK         0.0600 
    148 H148        0.4309  -19.2995  -43.1793 H         1 UNK         0.0600 
    149 H149       -1.6551  -18.4875  -44.1406 H         1 UNK         0.3000 
    150 H150       -4.1077  -18.5953  -46.7528 H         1 UNK         0.0600 
    151 H151       -5.4987  -18.4378  -44.6726 H         1 UNK         0.0600 
    152 H152       -5.2553  -16.8731  -45.4320 H         1 UNK         0.0600 
    153 H153       -4.3382  -17.3055  -43.9907 H         1 UNK         0.0600 
    154 H154       -2.8263  -16.3532  -45.7328 H         1 UNK         0.3000 
    155 H155        0.2259  -16.5590  -47.5828 H         1 UNK         0.0600 
    156 H156       -1.5410  -15.6361  -49.0891 H         1 UNK         0.0600 
    157 H157       -0.7076  -14.3219  -48.2738 H         1 UNK         0.0600 
    158 H158       -2.3076  -14.8155  -47.7347 H         1 UNK         0.0600 
    159 H159       -1.0292  -15.8791  -45.0891 H         1 UNK         0.3000 
    160 H160        1.7099  -14.8699  -43.6957 H         1 UNK         0.0600 
    161 H161        0.1225  -12.3476  -44.3605 H         1 UNK         0.0600 
    162 H162        1.8051  -12.5874  -44.7932 H         1 UNK         0.0600 
    163 H163        1.3468  -12.5311  -43.1045 H         1 UNK         0.0600 
    164 H164       -0.3366  -13.9434  -42.4008 H         1 UNK         0.3000 
    165 H165       -2.1662  -14.8369  -41.3258 H         1 UNK         0.0600 
    166 H166       -3.0765  -16.8679  -40.2236 H         1 UNK         0.0600 
    167 H167       -3.4040  -16.8871  -41.9458 H         1 UNK         0.0600 
    168 H168       -2.1295  -17.9020  -41.2854 H         1 UNK         0.0600 
    169 H169       -0.2097  -16.7663  -40.1822 H         1 UNK         0.3000 
    170 H170        1.8595  -14.1786  -38.8841 H         1 UNK         0.0600 
    171 H171        0.2616  -16.4273  -37.5440 H         1 UNK         0.0600 
    172 H172        1.6949  -15.6350  -36.8892 H         1 UNK         0.0600 
    173 H173        0.2055  -14.7275  -37.0935 H         1 UNK         0.0600 
    174 H174        2.1664  -17.0137  -39.0180 H         1 UNK         0.3000 
    175 H175        4.5854  -17.2092  -40.4013 H         1 UNK         0.0600 
    176 H176        3.5843  -19.4024  -41.2612 H         1 UNK         0.0600 
    177 H177        2.0175  -18.5993  -41.3226 H         1 UNK         0.0600 
    178 H178        2.8545  -18.7938  -39.7901 H         1 UNK         0.0600 
    179 H179        5.2000  -16.7653  -42.4730 H         1 UNK         0.3000 
    180 H180        5.3994  -17.1514  -44.7070 H         1 UNK         0.0600 
    181 H181        4.4063  -17.2615  -46.9781 H         1 UNK         0.0600 
    182 H182        2.7800  -17.2615  -46.2976 H         1 UNK         0.0600 
    183 H183        3.8754  -18.6070  -45.9827 H         1 UNK         0.0600 
    184 H184        3.5796  -15.0401  -45.6437 H         1 UNK         0.3000 
    185 H185        4.1790  -12.6602  -44.0461 H         1 UNK         0.0600 
    186 H186        6.5309  -12.1657  -43.6015 H         1 UNK         0.0600 
    187 H187        6.9789  -12.4831  -45.2695 H         1 UNK         0.0600 
    188 H188        5.9638  -11.0967  -44.8729 H         1 UNK         0.0600 
    189 H189        3.3099  -12.4852  -46.0742 H         1 UNK         0.3000 
    190 H190       -1.5086  -20.3211  -47.7967 H         1 UNK         0.3000 
    191 H191       -2.1851  -21.9713  -49.9577 H         1 UNK         0.0600 
    192 H192       -3.1398  -19.6611  -49.3491 H         1 UNK         0.0600 
    193 H193       -4.3166  -20.8398  -49.8966 H         1 UNK         0.0600 
    194 H194       -4.1806  -20.4716  -48.1839 H         1 UNK         0.0600 
    195 H195       -3.2202  -22.2159  -46.5172 H         1 UNK         0.3000 
    196 H196       -4.8436  -24.5262  -46.7919 H         1 UNK         0.0600 
    197 H197       -4.5630  -24.6769  -44.3058 H         1 UNK         0.0600 
    198 H198       -4.9553  -23.0438  -44.8220 H         1 UNK         0.0600 
    199 H199       -3.3014  -23.4507  -44.3714 H         1 UNK         0.0600 
    200 H200       -1.3494  -24.1977  -45.9682 H         1 UNK         0.3000 
    201 H201       -0.8222  -26.9611  -45.6032 H         1 UNK         0.0600 
    202 H202        0.6711  -25.1733  -44.7644 H         1 UNK         0.0600 
    203 H203        1.0607  -24.6826  -46.4115 H         1 UNK         0.0600 
    204 H204        1.5651  -26.2596  -45.8170 H         1 UNK         0.0600 
    205 H205       -0.6534  -24.9106  -48.5235 H         1 UNK         0.3000 
    206 H206        0.3156  -26.9598  -50.2972 H         1 UNK         0.0600 
    207 H207        0.6323  -24.5201  -50.7015 H         1 UNK         0.0600 
    208 H208       -0.2380  -25.2548  -52.0387 H         1 UNK         0.0600 
    209 H209       -1.1105  -24.2992  -50.8468 H         1 UNK         0.0600 
    210 H210       -2.7613  -26.4711  -48.9105 H         1 UNK         0.3000 
    211 H211       -4.8284  -27.1703  -49.1985 H         1 UNK         0.0600 
    212 H212       -3.7640  -29.2840  -51.1465 H         1 UNK         0.0600 
    213 H213       -5.3129  -29.3056  -50.3174 H         1 UNK         0.0600 
    214 H214       -3.8276  -29.4588  -49.3930 H         1 UNK         0.0600 
    215 H215       -4.0879  -24.9364  -50.5113 H         1 UNK         0.3000 
    216 H216       -5.5053  -24.8968  -53.1385 H         1 UNK         0.0600 
    217 H217       -4.1870  -22.8493  -53.5398 H         1 UNK         0.0600 
    218 H218       -3.1003  -24.1576  -53.1334 H         1 UNK         0.0600 
    219 H219       -3.4703  -22.9324  -51.9298 H         1 UNK         0.0600 
    220 H220       -5.3177  -21.8193  -52.0322 H         1 UNK         0.3000 
    221 H221       -6.4508  -20.3251  -50.9423 H         1 UNK         0.0600 
    222 H222       -7.9809  -22.4640  -49.3786 H         1 UNK         0.0600 
    223 H223       -6.4112  -21.8154  -48.9080 H         1 UNK         0.0600 
    224 H224       -7.8172  -20.7647  -48.9752 H         1 UNK         0.0600 
    225 H225       -8.0151  -22.6022  -52.8895 H         1 UNK         0.3000 
    226 H226      -10.5284  -21.1351  -53.2743 H         1 UNK         0.0600 
    227 H227      -10.4562  -23.5906  -53.6013 H         1 UNK         0.0600 
    228 H228      -10.8184  -22.7926  -55.1241 H         1 UNK         0.0600 
    229 H229       -9.2029  -23.4264  -54.8292 H         1 UNK         0.0600 
    230 H230       -9.2813  -19.1257  -53.4330 H         1 UNK         0.3000 
    231 H231       -8.6037  -17.2945  -54.4376 H         1 UNK         0.0600 
    232 H232       -8.7800  -18.6751  -57.1664 H         1 UNK         0.0600 
    233 H233       -8.6037  -16.9543  -56.8706 H         1 UNK         0.0600 
    234 H234      -10.0808  -17.7740  -56.3881 H         1 UNK         0.0600 
    235 H235       -6.9945  -20.1830  -55.7225 H         1 UNK         0.3000 
    236 H236       -4.4126  -19.1618  -56.2320 H         1 UNK         0.0600 
    237 H237       -5.1274  -21.3612  -57.0349 H         1 UNK         0.0600 
    238 H238       -3.7458  -21.5947  -55.9737 H         1 UNK         0.0600 
    239 H239       -5.3711  -21.9482  -55.3930 H         1 UNK         0.0600 
    240 H240       -3.0188  -18.2403  -54.8993 H         1 UNK         0.3000 
    241 H241       -1.8615  -17.5622  -53.1696 H         1 UNK         0.0600 
    242 H242       -5.0079  -17.1419  -53.2112 H         1 UNK         0.3800 
    243 H243       -5.2201  -16.4277  -51.6320 H         1 UNK         0.3800 
    244 H244       -2.5243  -20.1393  -51.6834 H         1 UNK         0.0800 
    245 H245       -1.2709  -19.0196  -51.2427 H         1 UNK         0.0800 
    246 H246        0.2138  -18.3016  -54.1104 H         1 UNK         0.0800 
    247 H247        1.4003  -19.5749  -54.1393 H         1 UNK         0.0800 
@<TRIPOS>BOND
     1    1    2 1    
     2    1  127 1    
     3    1  128 1    
     4    1  129 1    
     5    2    3 2    
     6    2    4 am   BACKBONE|DICT|INTERRES
     7    4    5 1    
     8    4  130 1    
     9    5    6 1    
    10    5   65 1    
    11    5  131 1    
    12    6    7 1    
    13    6  132 1    
    14    6  133 1    
    15    7    8 1    
    16    8    9 1    
    17    8  134 1    
    18    8  135 1    
    19    9   10 ar   
    20    9   14 ar   
    21   10   11 ar   
    22   10  136 1    
    23   11   12 ar   
    24   11  126 1    
    25   12   13 ar   
    26   12  137 1    
    27   13   14 ar   
    28   13   15 1    
    29   14  138 1    
    30   15   16 1    
    31   15  139 1    
    32   15  140 1    
    33   16   17 1    
    34   17   18 1    
    35   17  141 1    
    36   17  142 1    
    37   18   19 1    
    38   18   67 1    
    39   18  143 1    
    40   19   20 am   BACKBONE|DICT|INTERRES
    41   19  144 1    
    42   20   21 2    
    43   20   22 1    
    44   22   23 1    
    45   22   24 1    
    46   22  145 1    
    47   23  146 1    
    48   23  147 1    
    49   23  148 1    
    50   24   25 am   BACKBONE|DICT|INTERRES
    51   24  149 1    
    52   25   26 2    
    53   25   27 1    
    54   27   28 1    
    55   27   29 1    
    56   27  150 1    
    57   28  151 1    
    58   28  152 1    
    59   28  153 1    
    60   29   30 am   BACKBONE|DICT|INTERRES
    61   29  154 1    
    62   30   31 2    
    63   30   32 1    
    64   32   33 1    
    65   32   34 1    
    66   32  155 1    
    67   33  156 1    
    68   33  157 1    
    69   33  158 1    
    70   34   35 am   BACKBONE|DICT|INTERRES
    71   34  159 1    
    72   35   36 2    
    73   35   37 1    
    74   37   38 1    
    75   37   39 1    
    76   37  160 1    
    77   38  161 1    
    78   38  162 1    
    79   38  163 1    
    80   39   40 am   BACKBONE|DICT|INTERRES
    81   39  164 1    
    82   40   41 2    
    83   40   42 1    
    84   42   43 1    
    85   42   44 1    
    86   42  165 1    
    87   43  166 1    
    88   43  167 1    
    89   43  168 1    
    90   44   45 am   BACKBONE|DICT|INTERRES
    91   44  169 1    
    92   45   46 2    
    93   45   47 1    
    94   47   48 1    
    95   47   49 1    
    96   47  170 1    
    97   48  171 1    
    98   48  172 1    
    99   48  173 1    
   100   49   50 am   BACKBONE|DICT|INTERRES
   101   49  174 1    
   102   50   51 2    
   103   50   52 1    
   104   52   53 1    
   105   52   54 1    
   106   52  175 1    
   107   53  176 1    
   108   53  177 1    
   109   53  178 1    
   110   54   55 am   BACKBONE|DICT|INTERRES
   111   54  179 1    
   112   55   56 2    
   113   55   57 1    
   114   57   58 1    
   115   57   59 1    
   116   57  180 1    
   117   58  181 1    
   118   58  182 1    
   119   58  183 1    
   120   59   60 am   BACKBONE|DICT|INTERRES
   121   59  184 1    
   122   60   61 2    
   123   60   62 1    
   124   62   63 1    
   125   62   64 1    
   126   62  185 1    
   127   63  186 1    
   128   63  187 1    
   129   63  188 1    
   130   64   65 am   BACKBONE|DICT|INTERRES
   131   64  189 1    
   132   65   66 2    
   133   67   68 2    
   134   67   69 am   BACKBONE|DICT|INTERRES
   135   69   70 1    
   136   69  190 1    
   137   70   71 1    
   138   70   72 1    
   139   70  191 1    
   140   71  192 1    
   141   71  193 1    
   142   71  194 1    
   143   72   73 2    
   144   72   74 am   BACKBONE|DICT|INTERRES
   145   74   75 1    
   146   74  195 1    
   147   75   76 1    
   148   75   77 1    
   149   75  196 1    
   150   76  197 1    
   151   76  198 1    
   152   76  199 1    
   153   77   78 2    
   154   77   79 am   BACKBONE|DICT|INTERRES
   155   79   80 1    
   156   79  200 1    
   157   80   81 1    
   158   80   82 1    
   159   80  201 1    
   160   81  202 1    
   161   81  203 1    
   162   81  204 1    
   163   82   83 2    
   164   82   84 am   BACKBONE|DICT|INTERRES
   165   84   85 1    
   166   84  205 1    
   167   85   86 1    
   168   85   87 1    
   169   85  206 1    
   170   86  207 1    
   171   86  208 1    
   172   86  209 1    
   173   87   88 2    
   174   87   89 am   BACKBONE|DICT|INTERRES
   175   89   90 1    
   176   89  210 1    
   177   90   91 1    
   178   90   92 1    
   179   90  211 1    
   180   91  212 1    
   181   91  213 1    
   182   91  214 1    
   183   92   93 2    
   184   92   94 am   BACKBONE|DICT|INTERRES
   185   94   95 1    
   186   94  215 1    
   187   95   96 1    
   188   95   97 1    
   189   95  216 1    
   190   96  217 1    
   191   96  218 1    
   192   96  219 1    
   193   97   98 2    
   194   97   99 am   BACKBONE|DICT|INTERRES
   195   99  100 1    
   196   99  220 1    
   197  100  101 1    
   198  100  102 1    
   199  100  221 1    
   200  101  222 1    
   201  101  223 1    
   202  101  224 1    
   203  102  103 2    
   204  102  104 am   BACKBONE|DICT|INTERRES
   205  104  105 1    
   206  104  225 1    
   207  105  106 1    
   208  105  107 1    
   209  105  226 1    
   210  106  227 1    
   211  106  228 1    
   212  106  229 1    
   213  107  108 2    
   214  107  109 am   BACKBONE|DICT|INTERRES
   215  109  110 1    
   216  109  230 1    
   217  110  111 1    
   218  110  112 1    
   219  110  231 1    
   220  111  232 1    
   221  111  233 1    
   222  111  234 1    
   223  112  113 2    
   224  112  114 am   BACKBONE|DICT|INTERRES
   225  114  115 1    
   226  114  235 1    
   227  115  116 1    
   228  115  117 1    
   229  115  236 1    
   230  116  237 1    
   231  116  238 1    
   232  116  239 1    
   233  117  118 2    
   234  117  119 am   BACKBONE|DICT|INTERRES
   235  119  120 1    
   236  119  240 1    
   237  120  121 1    
   238  120  124 1    
   239  120  241 1    
   240  121  122 am   BACKBONE|DICT|INTERRES
   241  121  123 2    
   242  122  242 1    
   243  122  243 1    
   244  124  125 1    
   245  124  244 1    
   246  124  245 1    
   247  125  126 1    
   248  126  246 1    
   249  126  247 1    
@<TRIPOS>SUBSTRUCTURE
     1 UNK         1 GROUP             0       ****    0 ROOT    
