@<TRIPOS>MOLECULE
3R540
247   249    1
SMALL
USER_CHARGES


@<TRIPOS>ATOM
      1 CA          0.5566  -14.5369  -51.3537 C.3       0 UNK        -0.1800 
      2 C           1.9545  -13.9399  -51.3096 C.2       0 UNK         0.5000 
      3 O           2.2147  -12.9338  -51.9693 O.2       0 UNK        -0.5000 
      4 N           2.8546  -14.5674  -50.5400 N.am      1 UNK        -0.5000 
      5 CA          4.2615  -14.1765  -50.3778 C.3       1 UNK         0.1400 
      6 C6          5.0783  -15.2885  -49.6637 C.3       23 UNK        -0.0398 
      7 S7          4.9744  -15.3881  -47.8366 S.3       23 UNK        -0.2404 
      8 C8          3.2423  -15.8486  -47.4937 C.3       23 UNK        -0.0205 
      9 C9          2.7947  -17.1600  -48.1297 C.ar      23 UNK        -0.0193 
     10 C10         1.6033  -17.2190  -48.8612 C.ar      23 UNK        -0.1150 
     11 C11         1.1589  -18.4260  -49.4166 C.ar      23 UNK        -0.0193 
     12 C12         1.9371  -19.5744  -49.2434 C.ar      23 UNK        -0.1150 
     13 C13         3.1253  -19.5363  -48.5058 C.ar      23 UNK        -0.0193 
     14 C14         3.5425  -18.3255  -47.9486 C.ar      23 UNK        -0.1150 
     15 C15         3.9889  -20.7807  -48.3393 C.3       23 UNK        -0.0205 
     16 S16         3.2916  -21.9752  -47.1507 S.3       23 UNK        -0.2404 
     17 C17         2.2309  -22.9854  -48.2415 C.3       23 UNK        -0.0398 
     18 CA          0.7977  -23.2388  -47.7073 C.3       11 UNK         0.1400 
     19 N           0.1824  -22.0645  -47.0601 N.am      11 UNK        -0.5000 
     20 C          -1.0112  -22.0626  -46.4416 C.2       10 UNK         0.5000 
     21 O          -1.8079  -22.9987  -46.5228 O.2       10 UNK        -0.5000 
     22 CA         -1.3920  -20.8183  -45.6068 C.3       10 UNK         0.1400 
     23 CB         -2.4189  -21.1444  -44.5036 C.3       10 UNK        -0.1800 
     24 N          -0.2672  -20.0763  -45.0269 N.am      10 UNK        -0.5000 
     25 C           0.7136  -20.5527  -44.2441 C.2       9 UNK         0.5000 
     26 O           0.8625  -21.7413  -43.9586 O.2       9 UNK        -0.5000 
     27 CA          1.6785  -19.5084  -43.6570 C.3       9 UNK         0.1400 
     28 CB          2.5016  -18.8219  -44.7571 C.3       9 UNK        -0.1800 
     29 N           0.9792  -18.4906  -42.8777 N.am      9 UNK        -0.5000 
     30 C           0.3717  -18.6976  -41.7015 C.2       8 UNK         0.5000 
     31 O           0.3399  -19.7849  -41.1242 O.2       8 UNK        -0.5000 
     32 CA         -0.3101  -17.4791  -41.0570 C.3       8 UNK         0.1400 
     33 CB          0.7156  -16.5995  -40.3240 C.3       8 UNK        -0.1800 
     34 N          -1.0171  -16.6757  -42.0525 N.am      8 UNK        -0.5000 
     35 C          -2.2696  -16.9177  -42.4624 C.2       7 UNK         0.5000 
     36 O          -2.9810  -17.8057  -41.9911 O.2       7 UNK        -0.5000 
     37 CA         -2.8361  -16.0112  -43.5737 C.3       7 UNK         0.1400 
     38 CB         -3.6802  -14.8800  -42.9670 C.3       7 UNK        -0.1800 
     39 N          -1.8138  -15.4227  -44.4400 N.am      7 UNK        -0.5000 
     40 C          -1.0556  -16.1188  -45.2955 C.2       6 UNK         0.5000 
     41 O          -1.0920  -17.3415  -45.4219 O.2       6 UNK        -0.5000 
     42 CA         -0.0343  -15.3144  -46.1092 C.3       6 UNK         0.1400 
     43 CB         -0.7148  -14.5295  -47.2411 C.3       6 UNK        -0.1800 
     44 N           0.7955  -14.4015  -45.3220 N.am      6 UNK        -0.5000 
     45 C           1.5002  -14.7126  -44.2250 C.2       5 UNK         0.5000 
     46 O           1.4433  -15.8014  -43.6565 O.2       5 UNK        -0.5000 
     47 CA          2.4432  -13.6317  -43.6780 C.3       5 UNK         0.1400 
     48 CB          3.8045  -13.7149  -44.3841 C.3       5 UNK        -0.1800 
     49 N           1.8964  -12.2861  -43.8418 N.am      5 UNK        -0.5000 
     50 C           1.0339  -11.7135  -42.9917 C.2       4 UNK         0.5000 
     51 O           0.5987  -12.2682  -41.9821 O.2       4 UNK        -0.5000 
     52 CA          0.5907  -10.2740  -43.3150 C.3       4 UNK         0.1400 
     53 CB          1.5160   -9.2608  -42.6237 C.3       4 UNK        -0.1800 
     54 N           0.5674   -9.9949  -44.7515 N.am      4 UNK        -0.5000 
     55 C          -0.3815  -10.4362  -45.5874 C.2       3 UNK         0.5000 
     56 O          -1.3530  -11.1039  -45.2313 O.2       3 UNK        -0.5000 
     57 CA         -0.1988  -10.0935  -47.0786 C.3       3 UNK         0.1400 
     58 CB         -0.8126   -8.7211  -47.3948 C.3       3 UNK        -0.1800 
     59 N           1.1941  -10.1200  -47.5440 N.am      3 UNK        -0.5000 
     60 C           1.9810  -11.2018  -47.5078 C.2       2 UNK         0.5000 
     61 O           1.6659  -12.2565  -46.9515 O.2       2 UNK        -0.5000 
     62 CA          3.3394  -11.1173  -48.2114 C.3       2 UNK         0.1400 
     63 CB          4.4674  -10.8197  -47.2077 C.3       2 UNK        -0.1800 
     64 N           3.5248  -12.4123  -48.8494 N.am      2 UNK        -0.5000 
     65 C           4.4412  -12.7704  -49.7535 C.2       1 UNK         0.5000 
     66 O           5.3598  -12.0419  -50.1316 O.2       1 UNK        -0.5000 
     67 C          -0.0601  -23.8432  -48.8385 C.2       11 UNK         0.5000 
     68 O          -0.0294  -25.0561  -49.0566 O.2       11 UNK        -0.5000 
     69 N          -0.8388  -22.9838  -49.5111 N.am      12 UNK        -0.5000 
     70 CA         -1.7942  -23.3278  -50.5627 C.3       12 UNK         0.1400 
     71 CB         -2.4205  -22.0363  -51.1050 C.3       12 UNK        -0.1800 
     72 C          -2.8758  -24.3342  -50.1231 C.2       12 UNK         0.5000 
     73 O          -3.3570  -25.0933  -50.9631 O.2       12 UNK        -0.5000 
     74 N          -3.1893  -24.3905  -48.8186 N.am      13 UNK        -0.5000 
     75 CA         -4.0975  -25.3782  -48.2284 C.3       13 UNK         0.1400 
     76 CB         -4.2915  -25.0661  -46.7378 C.3       13 UNK        -0.1800 
     77 C          -3.6199  -26.8328  -48.4090 C.2       13 UNK         0.5000 
     78 O          -4.4552  -27.7338  -48.4797 O.2       13 UNK        -0.5000 
     79 N          -2.2980  -27.0269  -48.5065 N.am      14 UNK        -0.5000 
     80 CA         -1.6658  -28.3024  -48.8250 C.3       14 UNK         0.1400 
     81 CB         -0.4501  -28.5071  -47.9070 C.3       14 UNK        -0.1800 
     82 C          -1.2440  -28.3466  -50.3026 C.2       14 UNK         0.5000 
     83 O          -1.5305  -29.3316  -50.9827 O.2       14 UNK        -0.5000 
     84 N          -0.5668  -27.2884  -50.7727 N.am      15 UNK        -0.5000 
     85 CA          0.0798  -27.2386  -52.0866 C.3       15 UNK         0.1400 
     86 CB          1.0683  -26.0627  -52.1199 C.3       15 UNK        -0.1800 
     87 C          -0.8940  -27.1645  -53.2776 C.2       15 UNK         0.5000 
     88 O          -0.5990  -27.7382  -54.3268 O.2       15 UNK        -0.5000 
     89 N          -2.0239  -26.4685  -53.1023 N.am      16 UNK        -0.5000 
     90 CA         -3.0714  -26.2957  -54.1139 C.3       16 UNK         0.1400 
     91 CB         -3.2684  -24.7902  -54.3651 C.3       16 UNK        -0.1800 
     92 C          -4.3969  -26.9578  -53.6893 C.2       16 UNK         0.5000 
     93 O          -5.3640  -26.9063  -54.4497 O.2       16 UNK        -0.5000 
     94 N          -4.4229  -27.5515  -52.4856 N.am      17 UNK        -0.5000 
     95 CA         -5.5639  -28.1822  -51.8116 C.3       17 UNK         0.1400 
     96 CB         -6.0706  -29.4028  -52.6082 C.3       17 UNK        -0.1800 
     97 C          -6.7008  -27.2016  -51.4403 C.2       17 UNK         0.5000 
     98 O          -7.8150  -27.6452  -51.1568 O.2       17 UNK        -0.5000 
     99 N          -6.4105  -25.8950  -51.4272 N.am      18 UNK        -0.5000 
    100 CA        -7.3396  -24.8167  -51.1076 C.3       18 UNK         0.1400 
    101 CB        -8.3204  -24.5751  -52.2701 C.3       18 UNK        -0.1800 
    102 C         -6.5096  -23.5629  -50.8206 C.2       18 UNK         0.5000 
    103 O         -5.6895  -23.1841  -51.6572 O.2       18 UNK        -0.5000 
    104 N         -6.7142  -22.9599  -49.6422 N.am      19 UNK        -0.5000 
    105 CA        -5.9187  -21.8365  -49.1384 C.3       19 UNK         0.1400 
    106 CB        -6.2926  -21.5726  -47.6727 C.3       19 UNK        -0.1800 
    107 C         -6.0549  -20.5522  -49.9779 C.2       19 UNK         0.5000 
    108 O         -5.0684  -19.8351  -50.1490 O.2       19 UNK        -0.5000 
    109 N         -7.2686  -20.3016  -50.4939 N.am      20 UNK        -0.5000 
    110 CA        -7.6479  -19.1653  -51.3397 C.3       20 UNK         0.1400 
    111 CB        -7.0555  -19.3451  -52.7560 C.3       20 UNK        -0.1800 
    112 C         -7.3028  -17.8150  -50.6722 C.2       20 UNK         0.5000 
    113 O         -7.7369  -17.5745  -49.5433 O.2       20 UNK        -0.5000 
    114 N         -6.5026  -16.9781  -51.3472 N.am      21 UNK        -0.5000 
    115 CA        -6.0036  -15.6921  -50.8495 C.3       21 UNK         0.1400 
    116 CB        -5.2647  -14.9735  -51.9891 C.3       21 UNK        -0.1800 
    117 C         -5.0930  -15.8068  -49.6086 C.2       21 UNK         0.5000 
    118 O         -4.9711  -14.8353  -48.8616 O.2       21 UNK        -0.5000 
    119 N         -4.4911  -16.9842  -49.4042 N.am      22 UNK        -0.5000 
    120 CA        -3.6827  -17.3356  -48.2278 C.3       22 UNK         0.1400 
    121 C         -4.5210  -18.0260  -47.1095 C.2       22 UNK         0.5000 
    122 N         -5.8453  -18.0961  -47.2022 N.am      22 UNK        -0.7600 
    123 O         -3.9696  -18.4985  -46.1231 O.2       22 UNK        -0.5000 
    124 C124       -2.4197  -18.1528  -48.6231 C.3       23 UNK        -0.0398 
    125 S125       -1.4091  -17.2948  -49.8802 S.3       23 UNK        -0.2404 
    126 C126       -0.1106  -18.5190  -50.2667 C.3       23 UNK        -0.0205 
    127 H127        0.6031  -15.6233  -51.4248 H         1 UNK         0.0600 
    128 H128       -0.0020  -14.2686  -50.4572 H         1 UNK         0.0600 
    129 H129        0.0072  -14.1694  -52.2205 H         1 UNK         0.0600 
    130 H130        2.5851  -15.4124  -50.0581 H         1 UNK         0.3000 
    131 H131        4.6621  -14.1037  -51.3914 H         1 UNK         0.0600 
    132 H132        6.1336  -15.1455  -49.9007 H         1 UNK         0.0800 
    133 H133        4.8288  -16.2656  -50.0802 H         1 UNK         0.0800 
    134 H134        2.5888  -15.0245  -47.7788 H         1 UNK         0.0800 
    135 H135        3.1383  -15.9540  -46.4138 H         1 UNK         0.0800 
    136 H136        1.0161  -16.3228  -48.9917 H         1 UNK         0.1150 
    137 H137        1.6176  -20.4961  -49.7034 H         1 UNK         0.1150 
    138 H138        4.4571  -18.2857  -47.3736 H         1 UNK         0.1150 
    139 H139        4.1489  -21.2549  -49.3085 H         1 UNK         0.0800 
    140 H140        4.9818  -20.4982  -47.9860 H         1 UNK         0.0800 
    141 H141        2.7352  -23.9424  -48.3873 H         1 UNK         0.0800 
    142 H142        2.2013  -22.5322  -49.2317 H         1 UNK         0.0800 
    143 H143        0.8706  -24.0020  -46.9297 H         1 UNK         0.0600 
    144 H144        0.7901  -21.2681  -46.9295 H         1 UNK         0.3000 
    145 H145       -1.8724  -20.1355  -46.3052 H         1 UNK         0.0600 
    146 H146       -2.7047  -20.2443  -43.9581 H         1 UNK         0.0600 
    147 H147       -3.3323  -21.5653  -44.9257 H         1 UNK         0.0600 
    148 H148       -2.0234  -21.8626  -43.7848 H         1 UNK         0.0600 
    149 H149       -0.3255  -19.0688  -45.1586 H         1 UNK         0.3000 
    150 H150        2.3720  -20.0271  -42.9919 H         1 UNK         0.0600 
    151 H151        3.0585  -19.5556  -45.3393 H         1 UNK         0.0600 
    152 H152        3.2265  -18.1270  -44.3328 H         1 UNK         0.0600 
    153 H153        1.8694  -18.2604  -45.4460 H         1 UNK         0.0600 
    154 H154        0.9979  -17.5449  -43.2519 H         1 UNK         0.3000 
    155 H155       -1.0226  -17.8455  -40.3147 H         1 UNK         0.0600 
    156 H156        1.2352  -17.1694  -39.5529 H         1 UNK         0.0600 
    157 H157        0.2306  -15.7554  -39.8334 H         1 UNK         0.0600 
    158 H158        1.4715  -16.2023  -41.0019 H         1 UNK         0.0600 
    159 H159       -0.4762  -15.9669  -42.5300 H         1 UNK         0.3000 
    160 H160       -3.4888  -16.6278  -44.1947 H         1 UNK         0.0600 
    161 H161       -3.0748  -14.2120  -42.3529 H         1 UNK         0.0600 
    162 H162       -4.4733  -15.2803  -42.3340 H         1 UNK         0.0600 
    163 H163       -4.1572  -14.2830  -43.7445 H         1 UNK         0.0600 
    164 H164       -1.6862  -14.4222  -44.3853 H         1 UNK         0.3000 
    165 H165        0.6336  -16.0471  -46.5570 H         1 UNK         0.0600 
    166 H166       -1.3724  -15.1684  -47.8277 H         1 UNK         0.0600 
    167 H167        0.0203  -14.1130  -47.9288 H         1 UNK         0.0600 
    168 H168       -1.3154  -13.7050  -46.8551 H         1 UNK         0.0600 
    169 H169        0.9601  -13.4910  -45.7432 H         1 UNK         0.3000 
    170 H170        2.6012  -13.8296  -42.6155 H         1 UNK         0.0600 
    171 H171        4.4990  -12.9700  -43.9957 H         1 UNK         0.0600 
    172 H172        4.2612  -14.6944  -44.2359 H         1 UNK         0.0600 
    173 H173        3.7102  -13.5599  -45.4591 H         1 UNK         0.0600 
    174 H174        2.1567  -11.7875  -44.6803 H         1 UNK         0.3000 
    175 H175       -0.4173  -10.1395  -42.9164 H         1 UNK         0.0600 
    176 H176        1.5388   -9.4253  -41.5456 H         1 UNK         0.0600 
    177 H177        2.5411   -9.3359  -42.9889 H         1 UNK         0.0600 
    178 H178        1.1744   -8.2387  -42.7880 H         1 UNK         0.0600 
    179 H179        1.3284   -9.4492  -45.1284 H         1 UNK         0.3000 
    180 H180       -0.7458  -10.8472  -47.6492 H         1 UNK         0.0600 
    181 H181       -1.8558   -8.6770  -47.0788 H         1 UNK         0.0600 
    182 H182       -0.2812   -7.9156  -46.8865 H         1 UNK         0.0600 
    183 H183       -0.7907   -8.5158  -48.4652 H         1 UNK         0.0600 
    184 H184        1.5278   -9.2860  -48.0055 H         1 UNK         0.3000 
    185 H185        3.3066  -10.3426  -48.9797 H         1 UNK         0.0600 
    186 H186        4.2864   -9.8803  -46.6842 H         1 UNK         0.0600 
    187 H187        4.5573  -11.6036  -46.4564 H         1 UNK         0.0600 
    188 H188        5.4312  -10.7286  -47.7082 H         1 UNK         0.0600 
    189 H189        2.8062  -13.0785  -48.5998 H         1 UNK         0.3000 
    190 H190       -0.8076  -22.0147  -49.2339 H         1 UNK         0.3000 
    191 H191       -1.2388  -23.7954  -51.3763 H         1 UNK         0.0600 
    192 H192       -1.6682  -21.3996  -51.5703 H         1 UNK         0.0600 
    193 H193       -2.9018  -21.4602  -50.3156 H         1 UNK         0.0600 
    194 H194       -3.1732  -22.2502  -51.8646 H         1 UNK         0.0600 
    195 H195       -2.7107  -23.7780  -48.1652 H         1 UNK         0.3000 
    196 H196       -5.0628  -25.2827  -48.7277 H         1 UNK         0.0600 
    197 H197       -5.0553  -25.7102  -46.3005 H         1 UNK         0.0600 
    198 H198       -4.6047  -24.0347  -46.5831 H         1 UNK         0.0600 
    199 H199       -3.3708  -25.2197  -46.1735 H         1 UNK         0.0600 
    200 H200       -1.6863  -26.2207  -48.4630 H         1 UNK         0.3000 
    201 H201       -2.3595  -29.1273  -48.6488 H         1 UNK         0.0600 
    202 H202        0.0516  -29.4502  -48.1277 H         1 UNK         0.0600 
    203 H203        0.2849  -27.7090  -48.0196 H         1 UNK         0.0600 
    204 H204       -0.7512  -28.5366  -46.8597 H         1 UNK         0.0600 
    205 H205       -0.3631  -26.5158  -50.1435 H         1 UNK         0.3000 
    206 H206        0.6583  -28.1578  -52.2021 H         1 UNK         0.0600 
    207 H207        1.8125  -26.1508  -51.3281 H         1 UNK         0.0600 
    208 H208        1.6059  -26.0310  -53.0685 H         1 UNK         0.0600 
    209 H209        0.5640  -25.1050  -51.9979 H         1 UNK         0.0600 
    210 H210       -2.2109  -26.0289  -52.2066 H         1 UNK         0.3000 
    211 H211       -2.7776  -26.7595  -55.0574 H         1 UNK         0.0600 
    212 H212       -3.9890  -24.6178  -55.1653 H         1 UNK         0.0600 
    213 H213       -2.3341  -24.3142  -54.6627 H         1 UNK         0.0600 
    214 H214       -3.6391  -24.2755  -53.4783 H         1 UNK         0.0600 
    215 H215       -3.5690  -27.5238  -51.9479 H         1 UNK         0.3000 
    216 H216       -5.1751  -28.5593  -50.8661 H         1 UNK         0.0600 
    217 H217       -6.7953  -29.9750  -52.0279 H         1 UNK         0.0600 
    218 H218       -5.2524  -30.0785  -52.8573 H         1 UNK         0.0600 
    219 H219       -6.5590  -29.1082  -53.5372 H         1 UNK         0.0600 
    220 H220       -5.4621  -25.5959  -51.6314 H         1 UNK         0.3000 
    221 H221       -7.9028  -25.0884  -50.2124 H         1 UNK         0.0600 
    222 H222       -7.7928  -24.3546  -53.1991 H         1 UNK         0.0600 
    223 H223       -8.9544  -25.4442  -52.4452 H         1 UNK         0.0600 
    224 H224       -8.9787  -23.7322  -52.0566 H         1 UNK         0.0600 
    225 H225       -7.4190  -23.3253  -49.0181 H         1 UNK         0.3000 
    226 H226       -4.8716  -22.1391  -49.1652 H         1 UNK         0.0600 
    227 H227       -5.5850  -20.8825  -47.2136 H         1 UNK         0.0600 
    228 H228       -7.2887  -21.1380  -47.5803 H         1 UNK         0.0600 
    229 H229       -6.2737  -22.4877  -47.0824 H         1 UNK         0.0600 
    230 H230       -8.0127  -20.9455  -50.2683 H         1 UNK         0.3000 
    231 H231       -8.7348  -19.1910  -51.4286 H         1 UNK         0.0600 
    232 H232       -7.3675  -20.2967  -53.1868 H         1 UNK         0.0600 
    233 H233       -5.9648  -19.3334  -52.7509 H         1 UNK         0.0600 
    234 H234       -7.3991  -18.5622  -53.4332 H         1 UNK         0.0600 
    235 H235       -6.1715  -17.2649  -52.2567 H         1 UNK         0.3000 
    236 H236       -6.8671  -15.0876  -50.5648 H         1 UNK         0.0600 
    237 H237       -5.9191  -14.8124  -52.8459 H         1 UNK         0.0600 
    238 H238       -4.9067  -13.9947  -51.6669 H         1 UNK         0.0600 
    239 H239       -4.3986  -15.5437  -52.3278 H         1 UNK         0.0600 
    240 H240       -4.6813  -17.7535  -50.0361 H         1 UNK         0.3000 
    241 H241       -3.3261  -16.4145  -47.7664 H         1 UNK         0.0600 
    242 H242       -6.3625  -18.5282  -46.4546 H         1 UNK         0.3800 
    243 H243       -6.3389  -17.7396  -48.0116 H         1 UNK         0.3800 
    244 H244       -2.7051  -19.1334  -49.0059 H         1 UNK         0.0800 
    245 H245       -1.7864  -18.3268  -47.7540 H         1 UNK         0.0800 
    246 H246        0.1791  -18.3812  -51.3090 H         1 UNK         0.0800 
    247 H247       -0.5392  -19.5196  -50.2008 H         1 UNK         0.0800 
@<TRIPOS>BOND
     1    1    2 1    
     2    1  127 1    
     3    1  128 1    
     4    1  129 1    
     5    2    3 2    
     6    2    4 am   BACKBONE|DICT|INTERRES
     7    4    5 1    
     8    4  130 1    
     9    5    6 1    
    10    5   65 1    
    11    5  131 1    
    12    6    7 1    
    13    6  132 1    
    14    6  133 1    
    15    7    8 1    
    16    8    9 1    
    17    8  134 1    
    18    8  135 1    
    19    9   10 ar   
    20    9   14 ar   
    21   10   11 ar   
    22   10  136 1    
    23   11   12 ar   
    24   11  126 1    
    25   12   13 ar   
    26   12  137 1    
    27   13   14 ar   
    28   13   15 1    
    29   14  138 1    
    30   15   16 1    
    31   15  139 1    
    32   15  140 1    
    33   16   17 1    
    34   17   18 1    
    35   17  141 1    
    36   17  142 1    
    37   18   19 1    
    38   18   67 1    
    39   18  143 1    
    40   19   20 am   BACKBONE|DICT|INTERRES
    41   19  144 1    
    42   20   21 2    
    43   20   22 1    
    44   22   23 1    
    45   22   24 1    
    46   22  145 1    
    47   23  146 1    
    48   23  147 1    
    49   23  148 1    
    50   24   25 am   BACKBONE|DICT|INTERRES
    51   24  149 1    
    52   25   26 2    
    53   25   27 1    
    54   27   28 1    
    55   27   29 1    
    56   27  150 1    
    57   28  151 1    
    58   28  152 1    
    59   28  153 1    
    60   29   30 am   BACKBONE|DICT|INTERRES
    61   29  154 1    
    62   30   31 2    
    63   30   32 1    
    64   32   33 1    
    65   32   34 1    
    66   32  155 1    
    67   33  156 1    
    68   33  157 1    
    69   33  158 1    
    70   34   35 am   BACKBONE|DICT|INTERRES
    71   34  159 1    
    72   35   36 2    
    73   35   37 1    
    74   37   38 1    
    75   37   39 1    
    76   37  160 1    
    77   38  161 1    
    78   38  162 1    
    79   38  163 1    
    80   39   40 am   BACKBONE|DICT|INTERRES
    81   39  164 1    
    82   40   41 2    
    83   40   42 1    
    84   42   43 1    
    85   42   44 1    
    86   42  165 1    
    87   43  166 1    
    88   43  167 1    
    89   43  168 1    
    90   44   45 am   BACKBONE|DICT|INTERRES
    91   44  169 1    
    92   45   46 2    
    93   45   47 1    
    94   47   48 1    
    95   47   49 1    
    96   47  170 1    
    97   48  171 1    
    98   48  172 1    
    99   48  173 1    
   100   49   50 am   BACKBONE|DICT|INTERRES
   101   49  174 1    
   102   50   51 2    
   103   50   52 1    
   104   52   53 1    
   105   52   54 1    
   106   52  175 1    
   107   53  176 1    
   108   53  177 1    
   109   53  178 1    
   110   54   55 am   BACKBONE|DICT|INTERRES
   111   54  179 1    
   112   55   56 2    
   113   55   57 1    
   114   57   58 1    
   115   57   59 1    
   116   57  180 1    
   117   58  181 1    
   118   58  182 1    
   119   58  183 1    
   120   59   60 am   BACKBONE|DICT|INTERRES
   121   59  184 1    
   122   60   61 2    
   123   60   62 1    
   124   62   63 1    
   125   62   64 1    
   126   62  185 1    
   127   63  186 1    
   128   63  187 1    
   129   63  188 1    
   130   64   65 am   BACKBONE|DICT|INTERRES
   131   64  189 1    
   132   65   66 2    
   133   67   68 2    
   134   67   69 am   BACKBONE|DICT|INTERRES
   135   69   70 1    
   136   69  190 1    
   137   70   71 1    
   138   70   72 1    
   139   70  191 1    
   140   71  192 1    
   141   71  193 1    
   142   71  194 1    
   143   72   73 2    
   144   72   74 am   BACKBONE|DICT|INTERRES
   145   74   75 1    
   146   74  195 1    
   147   75   76 1    
   148   75   77 1    
   149   75  196 1    
   150   76  197 1    
   151   76  198 1    
   152   76  199 1    
   153   77   78 2    
   154   77   79 am   BACKBONE|DICT|INTERRES
   155   79   80 1    
   156   79  200 1    
   157   80   81 1    
   158   80   82 1    
   159   80  201 1    
   160   81  202 1    
   161   81  203 1    
   162   81  204 1    
   163   82   83 2    
   164   82   84 am   BACKBONE|DICT|INTERRES
   165   84   85 1    
   166   84  205 1    
   167   85   86 1    
   168   85   87 1    
   169   85  206 1    
   170   86  207 1    
   171   86  208 1    
   172   86  209 1    
   173   87   88 2    
   174   87   89 am   BACKBONE|DICT|INTERRES
   175   89   90 1    
   176   89  210 1    
   177   90   91 1    
   178   90   92 1    
   179   90  211 1    
   180   91  212 1    
   181   91  213 1    
   182   91  214 1    
   183   92   93 2    
   184   92   94 am   BACKBONE|DICT|INTERRES
   185   94   95 1    
   186   94  215 1    
   187   95   96 1    
   188   95   97 1    
   189   95  216 1    
   190   96  217 1    
   191   96  218 1    
   192   96  219 1    
   193   97   98 2    
   194   97   99 am   BACKBONE|DICT|INTERRES
   195   99  100 1    
   196   99  220 1    
   197  100  101 1    
   198  100  102 1    
   199  100  221 1    
   200  101  222 1    
   201  101  223 1    
   202  101  224 1    
   203  102  103 2    
   204  102  104 am   BACKBONE|DICT|INTERRES
   205  104  105 1    
   206  104  225 1    
   207  105  106 1    
   208  105  107 1    
   209  105  226 1    
   210  106  227 1    
   211  106  228 1    
   212  106  229 1    
   213  107  108 2    
   214  107  109 am   BACKBONE|DICT|INTERRES
   215  109  110 1    
   216  109  230 1    
   217  110  111 1    
   218  110  112 1    
   219  110  231 1    
   220  111  232 1    
   221  111  233 1    
   222  111  234 1    
   223  112  113 2    
   224  112  114 am   BACKBONE|DICT|INTERRES
   225  114  115 1    
   226  114  235 1    
   227  115  116 1    
   228  115  117 1    
   229  115  236 1    
   230  116  237 1    
   231  116  238 1    
   232  116  239 1    
   233  117  118 2    
   234  117  119 am   BACKBONE|DICT|INTERRES
   235  119  120 1    
   236  119  240 1    
   237  120  121 1    
   238  120  124 1    
   239  120  241 1    
   240  121  122 am   BACKBONE|DICT|INTERRES
   241  121  123 2    
   242  122  242 1    
   243  122  243 1    
   244  124  125 1    
   245  124  244 1    
   246  124  245 1    
   247  125  126 1    
   248  126  246 1    
   249  126  247 1    
@<TRIPOS>SUBSTRUCTURE
     1 UNK         1 GROUP             0       ****    0 ROOT    
