@<TRIPOS>MOLECULE
3R540
247   249    1
SMALL
USER_CHARGES


@<TRIPOS>ATOM
      1 CA          0.1452  -13.2970  -52.3179 C.3       0 UNK        -0.1800 
      2 C           0.4210  -14.0203  -51.0085 C.2       0 UNK         0.5000 
      3 O           0.1802  -15.2222  -50.9165 O.2       0 UNK        -0.5000 
      4 N           0.8888  -13.2717  -49.9983 N.am      1 UNK        -0.5000 
      5 CA          1.3289  -13.6503  -48.6403 C.3       1 UNK         0.1400 
      6 C6          2.7897  -14.1817  -48.5586 C.3       23 UNK        -0.0398 
      7 S7          3.2190  -15.6259  -49.5906 S.3       23 UNK        -0.2404 
      8 C8          2.4675  -16.9863  -48.6484 C.3       23 UNK        -0.0205 
      9 C9          2.9192  -18.3408  -49.1613 C.ar      23 UNK        -0.0193 
     10 C10         2.4549  -18.8142  -50.3892 C.ar      23 UNK        -0.1150 
     11 C11         2.8236  -20.0804  -50.8533 C.ar      23 UNK        -0.0193 
     12 C12         3.6873  -20.8645  -50.0797 C.ar      23 UNK        -0.1150 
     13 C13         4.1819  -20.3883  -48.8608 C.ar      23 UNK        -0.0193 
     14 C14         3.7897  -19.1271  -48.4053 C.ar      23 UNK        -0.1150 
     15 C15         5.1670  -21.2166  -48.0482 C.3       23 UNK        -0.0205 
     16 S16         4.3791  -22.6124  -47.1872 S.3       23 UNK        -0.2404 
     17 C17         3.2530  -21.7694  -46.0220 C.3       23 UNK        -0.0398 
     18 CA          1.8801  -22.4715  -45.9232 C.3       11 UNK         0.1400 
     19 N           1.1345  -22.0418  -44.7411 N.am      11 UNK        -0.5000 
     20 C           0.0841  -22.6997  -44.2329 C.2       10 UNK         0.5000 
     21 O          -0.3121  -23.7851  -44.6574 O.2       10 UNK        -0.5000 
     22 CA         -0.6682  -22.0209  -43.0735 C.3       10 UNK         0.1400 
     23 CB         -0.0215  -22.3787  -41.7274 C.3       10 UNK        -0.1800 
     24 N          -0.7471  -20.5646  -43.2127 N.am      10 UNK        -0.5000 
     25 C          -1.3870  -19.9325  -44.2075 C.2       9 UNK         0.5000 
     26 O          -1.9979  -20.5145  -45.1015 O.2       9 UNK        -0.5000 
     27 CA         -1.2950  -18.3985  -44.2395 C.3       9 UNK         0.1400 
     28 CB         -2.2471  -17.7713  -43.2101 C.3       9 UNK        -0.1800 
     29 N           0.0627  -17.9126  -44.0093 N.am      9 UNK        -0.5000 
     30 C           1.1157  -18.1561  -44.8016 C.2       8 UNK         0.5000 
     31 O           1.0528  -18.7870  -45.8567 O.2       8 UNK        -0.5000 
     32 CA          2.4831  -17.6777  -44.2813 C.3       8 UNK         0.1400 
     33 CB          2.6837  -16.1718  -44.5099 C.3       8 UNK        -0.1800 
     34 N           2.6516  -17.9735  -42.8590 N.am      8 UNK        -0.5000 
     35 C           2.7575  -19.2063  -42.3445 C.2       7 UNK         0.5000 
     36 O           2.7578  -20.2335  -43.0226 O.2       7 UNK        -0.5000 
     37 CA          2.8414  -19.3032  -40.8104 C.3       7 UNK         0.1400 
     38 CB          4.2883  -19.1074  -40.3343 C.3       7 UNK        -0.1800 
     39 N           1.9736  -18.3326  -40.1394 N.am      7 UNK        -0.5000 
     40 C           0.6340  -18.3825  -40.1557 C.2       6 UNK         0.5000 
     41 O          -0.0095  -19.2660  -40.7199 O.2       6 UNK        -0.5000 
     42 CA         -0.1095  -17.2204  -39.4713 C.3       6 UNK         0.1400 
     43 CB         -0.1959  -17.4483  -37.9548 C.3       6 UNK        -0.1800 
     44 N           0.4985  -15.9128  -39.7374 N.am      6 UNK        -0.5000 
     45 C           0.6058  -15.3683  -40.9556 C.2       5 UNK         0.5000 
     46 O           0.2161  -15.9208  -41.9875 O.2       5 UNK        -0.5000 
     47 CA          1.2989  -14.0045  -41.0485 C.3       5 UNK         0.1400 
     48 CB          2.8267  -14.1649  -40.9263 C.3       5 UNK        -0.1800 
     49 N           0.9538  -13.4185  -42.3380 N.am      5 UNK        -0.5000 
     50 C           1.1183  -12.1449  -42.7057 C.2       4 UNK         0.5000 
     51 O           1.5931  -11.2753  -41.9739 O.2       4 UNK        -0.5000 
     52 CA          0.6797  -11.7787  -44.1356 C.3       4 UNK         0.1400 
     53 CB          1.8711  -11.8865  -45.0997 C.3       4 UNK        -0.1800 
     54 N          -0.4288  -12.6024  -44.6338 N.am      4 UNK        -0.5000 
     55 C          -1.7074  -12.4409  -44.2539 C.2       3 UNK         0.5000 
     56 O          -2.0564  -11.6001  -43.4237 O.2       3 UNK        -0.5000 
     57 CA         -2.7794  -13.3385  -44.9073 C.3       3 UNK         0.1400 
     58 CB         -4.0611  -12.5585  -45.2537 C.3       3 UNK        -0.1800 
     59 N          -2.2786  -13.9939  -46.1146 N.am      3 UNK        -0.5000 
     60 C          -2.4875  -15.2738  -46.4418 C.2       2 UNK         0.5000 
     61 O          -3.2310  -16.0201  -45.8059 O.2       2 UNK        -0.5000 
     62 CA         -1.7530  -15.8322  -47.6817 C.3       2 UNK         0.1400 
     63 CB         -2.7561  -16.2683  -48.7624 C.3       2 UNK        -0.1800 
     64 N          -0.7668  -14.9448  -48.3068 N.am      2 UNK        -0.5000 
     65 C           0.3499  -14.4608  -47.7535 C.2       1 UNK         0.5000 
     66 O           0.6072  -14.5943  -46.5573 O.2       1 UNK        -0.5000 
     67 C           1.0319  -22.3262  -47.2060 C.2       11 UNK         0.5000 
     68 O           0.9715  -23.2702  -47.9938 O.2       11 UNK        -0.5000 
     69 N           0.3422  -21.1862  -47.3684 N.am      12 UNK        -0.5000 
     70 CA         -0.5659  -20.9331  -48.4910 C.3       12 UNK         0.1400 
     71 CB         -1.0327  -19.4713  -48.4680 C.3       12 UNK        -0.1800 
     72 C          -1.7717  -21.8925  -48.5279 C.2       12 UNK         0.5000 
     73 O          -2.1713  -22.3262  -49.6084 O.2       12 UNK        -0.5000 
     74 N          -2.2954  -22.2531  -47.3463 N.am      13 UNK        -0.5000 
     75 CA         -3.4007  -23.1952  -47.1448 C.3       13 UNK         0.1400 
     76 CB         -3.7539  -23.2661  -45.6519 C.3       13 UNK        -0.1800 
     77 C          -3.1583  -24.6088  -47.7098 C.2       13 UNK         0.5000 
     78 O          -4.1292  -25.3153  -47.9833 O.2       13 UNK        -0.5000 
     79 N          -1.8900  -24.9889  -47.9269 N.am      14 UNK        -0.5000 
     80 CA         -1.4942  -26.2420  -48.5757 C.3       14 UNK         0.1400 
     81 CB          0.0281  -26.4122  -48.4699 C.3       14 UNK        -0.1800 
     82 C          -1.9497  -26.3488  -50.0471 C.2       14 UNK         0.5000 
     83 O          -2.0658  -27.4632  -50.5578 O.2       14 UNK        -0.5000 
     84 N          -2.2323  -25.2067  -50.6933 N.am      15 UNK        -0.5000 
     85 CA         -2.8126  -25.1322  -52.0358 C.3       15 UNK         0.1400 
     86 CB         -2.4234  -23.7899  -52.6726 C.3       15 UNK        -0.1800 
     87 C          -4.3435  -25.3509  -52.0536 C.2       15 UNK         0.5000 
     88 O          -4.9276  -25.3806  -53.1382 O.2       15 UNK        -0.5000 
     89 N          -4.9669  -25.5166  -50.8745 N.am      16 UNK        -0.5000 
     90 CA         -6.3733  -25.8595  -50.6438 C.3       16 UNK         0.1400 
     91 CB         -6.6374  -27.3244  -51.0575 C.3       16 UNK        -0.1800 
     92 C          -7.3361  -24.8433  -51.2883 C.2       16 UNK         0.5000 
     93 O          -7.4178  -23.7097  -50.8173 O.2       16 UNK        -0.5000 
     94 N          -8.0275  -25.2407  -52.3646 N.am      17 UNK        -0.5000 
     95 CA         -8.9357  -24.3899  -53.1385 C.3       17 UNK         0.1400 
     96 CB         -9.6704  -25.2577  -54.1715 C.3       17 UNK        -0.1800 
     97 C          -8.2365  -23.2020  -53.8319 C.2       17 UNK         0.5000 
     98 O          -8.8905  -22.1961  -54.1085 O.2       17 UNK        -0.5000 
     99 N          -6.9267  -23.3288  -54.0826 N.am      18 UNK        -0.5000 
    100 CA        -6.0828  -22.3044  -54.6941 C.3       18 UNK         0.1400 
    101 CB        -5.1683  -22.9790  -55.7318 C.3       18 UNK        -0.1800 
    102 C         -5.2757  -21.5032  -53.6515 C.2       18 UNK         0.5000 
    103 O         -4.3541  -20.7881  -54.0378 O.2       18 UNK        -0.5000 
    104 N         -5.6112  -21.6166  -52.3555 N.am      19 UNK        -0.5000 
    105 CA        -4.9244  -20.9240  -51.2577 C.3       19 UNK         0.1400 
    106 CB        -5.4108  -21.4763  -49.9133 C.3       19 UNK        -0.1800 
    107 C         -5.0561  -19.3911  -51.2794 C.2       19 UNK         0.5000 
    108 O         -4.1912  -18.7140  -50.7241 O.2       19 UNK        -0.5000 
    109 N         -6.1064  -18.8668  -51.9266 N.am      20 UNK        -0.5000 
    110 CA        -6.3505  -17.4394  -52.1415 C.3       20 UNK         0.1400 
    111 CB        -7.7324  -17.2642  -52.7934 C.3       20 UNK        -0.1800 
    112 C         -5.2303  -16.8017  -52.9891 C.2       20 UNK         0.5000 
    113 O         -5.2496  -16.9190  -54.2149 O.2       20 UNK        -0.5000 
    114 N         -4.2530  -16.1963  -52.2979 N.am      21 UNK        -0.5000 
    115 CA        -2.9813  -15.6646  -52.8093 C.3       21 UNK         0.1400 
    116 CB        -3.2140  -14.5437  -53.8450 C.3       21 UNK        -0.1800 
    117 C         -2.0036  -16.7525  -53.3140 C.2       21 UNK         0.5000 
    118 O         -1.0265  -16.4212  -53.9878 O.2       21 UNK        -0.5000 
    119 N         -2.2635  -18.0177  -52.9527 N.am      22 UNK        -0.5000 
    120 CA        -1.4829  -19.2159  -53.2996 C.3       22 UNK         0.1400 
    121 C         -1.3503  -19.4881  -54.8356 C.2       22 UNK         0.5000 
    122 N         -0.4913  -20.4125  -55.2444 N.am      22 UNK        -0.7600 
    123 O         -2.0368  -18.9012  -55.6696 O.2       22 UNK        -0.5000 
    124 C124       -0.1349  -19.2306  -52.5277 C.3       23 UNK        -0.0398 
    125 S125        0.5292  -20.9051  -52.2166 S.3       23 UNK        -0.2404 
    126 C126        2.3247  -20.5861  -52.2023 C.3       23 UNK        -0.0205 
    127 H127        0.3631  -13.9493  -53.1639 H         1 UNK         0.0600 
    128 H128        0.7573  -12.4004  -52.4167 H         1 UNK         0.0600 
    129 H129       -0.9033  -13.0054  -52.3699 H         1 UNK         0.0600 
    130 H130        1.0022  -12.2856  -50.1884 H         1 UNK         0.3000 
    131 H131        1.3545  -12.6864  -48.1318 H         1 UNK         0.0600 
    132 H132        3.4593  -13.3794  -48.8706 H         1 UNK         0.0800 
    133 H133        3.0749  -14.3896  -47.5259 H         1 UNK         0.0800 
    134 H134        1.3820  -16.9275  -48.7264 H         1 UNK         0.0800 
    135 H135        2.7119  -16.8843  -47.5926 H         1 UNK         0.0800 
    136 H136        1.8105  -18.1811  -50.9793 H         1 UNK         0.1150 
    137 H137        3.9898  -21.8413  -50.4302 H         1 UNK         0.1150 
    138 H138        4.1627  -18.7558  -47.4613 H         1 UNK         0.1150 
    139 H139        5.9384  -21.6066  -48.7137 H         1 UNK         0.0800 
    140 H140        5.6857  -20.5938  -47.3175 H         1 UNK         0.0800 
    141 H141        3.1283  -20.7178  -46.2781 H         1 UNK         0.0800 
    142 H142        3.7433  -21.7804  -45.0477 H         1 UNK         0.0800 
    143 H143        2.0756  -23.5386  -45.7931 H         1 UNK         0.0600 
    144 H144        1.4392  -21.1842  -44.2938 H         1 UNK         0.3000 
    145 H145       -1.6890  -22.4084  -43.0725 H         1 UNK         0.0600 
    146 H146       -0.6010  -21.9816  -40.8939 H         1 UNK         0.0600 
    147 H147        0.9914  -21.9832  -41.6506 H         1 UNK         0.0600 
    148 H148        0.0364  -23.4599  -41.5962 H         1 UNK         0.0600 
    149 H149       -0.3139  -20.0142  -42.4766 H         1 UNK         0.3000 
    150 H150       -1.5989  -18.0719  -45.2347 H         1 UNK         0.0600 
    151 H151       -3.2764  -18.0819  -43.3928 H         1 UNK         0.0600 
    152 H152       -2.2225  -16.6827  -43.2644 H         1 UNK         0.0600 
    153 H153       -1.9902  -18.0594  -42.1908 H         1 UNK         0.0600 
    154 H154        0.1995  -17.3430  -43.1780 H         1 UNK         0.3000 
    155 H155        3.2586  -18.2129  -44.8336 H         1 UNK         0.0600 
    156 H156        2.6700  -15.9316  -45.5705 H         1 UNK         0.0600 
    157 H157        3.6437  -15.8352  -44.1188 H         1 UNK         0.0600 
    158 H158        1.9016  -15.5791  -44.0374 H         1 UNK         0.0600 
    159 H159        2.6174  -17.1905  -42.2252 H         1 UNK         0.3000 
    160 H160        2.5205  -20.3062  -40.5215 H         1 UNK         0.0600 
    161 H161        4.6615  -18.1105  -40.5724 H         1 UNK         0.0600 
    162 H162        4.9553  -19.8294  -40.8074 H         1 UNK         0.0600 
    163 H163        4.3709  -19.2485  -39.2564 H         1 UNK         0.0600 
    164 H164        2.4241  -17.5724  -39.6520 H         1 UNK         0.3000 
    165 H165       -1.1261  -17.2017  -39.8699 H         1 UNK         0.0600 
    166 H166       -0.8002  -16.6787  -37.4744 H         1 UNK         0.0600 
    167 H167       -0.6594  -18.4102  -37.7309 H         1 UNK         0.0600 
    168 H168        0.7897  -17.4421  -37.4878 H         1 UNK         0.0600 
    169 H169        0.8462  -15.4044  -38.9370 H         1 UNK         0.3000 
    170 H170        0.9222  -13.3637  -40.2489 H         1 UNK         0.0600 
    171 H171        3.2314  -14.7827  -41.7286 H         1 UNK         0.0600 
    172 H172        3.3328  -13.2004  -40.9632 H         1 UNK         0.0600 
    173 H173        3.1009  -14.6324  -39.9799 H         1 UNK         0.0600 
    174 H174        0.5139  -14.0696  -42.9765 H         1 UNK         0.3000 
    175 H175        0.3567  -10.7355  -44.1213 H         1 UNK         0.0600 
    176 H176        2.2295  -12.9128  -45.1874 H         1 UNK         0.0600 
    177 H177        1.6033  -11.5317  -46.0939 H         1 UNK         0.0600 
    178 H178        2.7079  -11.2770  -44.7560 H         1 UNK         0.0600 
    179 H179       -0.1829  -13.3537  -45.2715 H         1 UNK         0.3000 
    180 H180       -3.0288  -14.0911  -44.1563 H         1 UNK         0.0600 
    181 H181       -4.8182  -13.2165  -45.6805 H         1 UNK         0.0600 
    182 H182       -3.8630  -11.7639  -45.9739 H         1 UNK         0.0600 
    183 H183       -4.4982  -12.0994  -44.3662 H         1 UNK         0.0600 
    184 H184       -1.6694  -13.4459  -46.7042 H         1 UNK         0.3000 
    185 H185       -1.2109  -16.7169  -47.3434 H         1 UNK         0.0600 
    186 H186       -3.4689  -16.9953  -48.3704 H         1 UNK         0.0600 
    187 H187       -3.3252  -15.4203  -49.1445 H         1 UNK         0.0600 
    188 H188       -2.2494  -16.7409  -49.6046 H         1 UNK         0.0600 
    189 H189       -0.8284  -14.8567  -49.3153 H         1 UNK         0.3000 
    190 H190        0.4634  -20.4298  -46.7006 H         1 UNK         0.3000 
    191 H191        0.0052  -21.0899  -49.4061 H         1 UNK         0.0600 
    192 H192       -1.6882  -19.2589  -49.3137 H         1 UNK         0.0600 
    193 H193       -0.1862  -18.7885  -48.5326 H         1 UNK         0.0600 
    194 H194       -1.5844  -19.2394  -47.5569 H         1 UNK         0.0600 
    195 H195       -1.9499  -21.7870  -46.5111 H         1 UNK         0.3000 
    196 H196       -4.2681  -22.7920  -47.6658 H         1 UNK         0.0600 
    197 H197       -4.0398  -22.2878  -45.2659 H         1 UNK         0.0600 
    198 H198       -2.9181  -23.6324  -45.0573 H         1 UNK         0.0600 
    199 H199       -4.5960  -23.9377  -45.4803 H         1 UNK         0.0600 
    200 H200       -1.1450  -24.3425  -47.6993 H         1 UNK         0.3000 
    201 H201       -1.9663  -27.0594  -48.0270 H         1 UNK         0.0600 
    202 H202        0.3674  -26.3296  -47.4370 H         1 UNK         0.0600 
    203 H203        0.5568  -25.6626  -49.0594 H         1 UNK         0.0600 
    204 H204        0.3364  -27.3917  -48.8374 H         1 UNK         0.0600 
    205 H205       -2.1139  -24.3226  -50.2082 H         1 UNK         0.3000 
    206 H206       -2.3753  -25.9231  -52.6485 H         1 UNK         0.0600 
    207 H207       -2.8557  -22.9519  -52.1319 H         1 UNK         0.0600 
    208 H208       -1.3416  -23.6553  -52.6821 H         1 UNK         0.0600 
    209 H209       -2.7648  -23.7266  -53.7052 H         1 UNK         0.0600 
    210 H210       -4.4136  -25.4355  -50.0292 H         1 UNK         0.3000 
    211 H211       -6.5345  -25.7883  -49.5671 H         1 UNK         0.0600 
    212 H212       -6.4390  -27.5001  -52.1153 H         1 UNK         0.0600 
    213 H213       -7.6709  -27.6104  -50.8581 H         1 UNK         0.0600 
    214 H214       -6.0029  -28.0051  -50.4897 H         1 UNK         0.0600 
    215 H215       -7.8828  -26.1790  -52.7081 H         1 UNK         0.3000 
    216 H216       -9.6752  -23.9763  -52.4497 H         1 UNK         0.0600 
    217 H217      -10.3791  -24.6626  -54.7490 H         1 UNK         0.0600 
    218 H218      -10.2360  -26.0543  -53.6877 H         1 UNK         0.0600 
    219 H219       -8.9764  -25.7172  -54.8764 H         1 UNK         0.0600 
    220 H220       -6.4498  -24.1768  -53.7907 H         1 UNK         0.3000 
    221 H221       -6.7019  -21.5804  -55.2275 H         1 UNK         0.0600 
    222 H222       -4.5137  -23.7194  -55.2733 H         1 UNK         0.0600 
    223 H223       -5.7545  -23.4848  -56.4991 H         1 UNK         0.0600 
    224 H224       -4.5363  -22.2492  -56.2394 H         1 UNK         0.0600 
    225 H225       -6.3685  -22.2363  -52.0938 H         1 UNK         0.3000 
    226 H226       -3.8585  -21.1356  -51.3404 H         1 UNK         0.0600 
    227 H227       -5.1927  -22.5410  -49.8307 H         1 UNK         0.0600 
    228 H228       -4.9112  -20.9755  -49.0831 H         1 UNK         0.0600 
    229 H229       -6.4845  -21.3369  -49.7838 H         1 UNK         0.0600 
    230 H230       -6.7498  -19.5036  -52.3724 H         1 UNK         0.3000 
    231 H231       -6.3755  -16.9474  -51.1669 H         1 UNK         0.0600 
    232 H232       -7.9440  -16.2107  -52.9804 H         1 UNK         0.0600 
    233 H233       -8.5239  -17.6446  -52.1475 H         1 UNK         0.0600 
    234 H234       -7.7996  -17.7874  -53.7483 H         1 UNK         0.0600 
    235 H235       -4.3232  -16.2235  -51.2898 H         1 UNK         0.3000 
    236 H236       -2.4891  -15.2099  -51.9488 H         1 UNK         0.0600 
    237 H237       -3.6417  -14.9272  -54.7712 H         1 UNK         0.0600 
    238 H238       -3.8845  -13.7782  -53.4548 H         1 UNK         0.0600 
    239 H239       -2.2777  -14.0506  -54.1069 H         1 UNK         0.0600 
    240 H240       -3.0794  -18.1831  -52.3763 H         1 UNK         0.3000 
    241 H241       -2.0854  -20.0404  -52.9188 H         1 UNK         0.0600 
    242 H242       -0.4066  -20.6089  -56.2292 H         1 UNK         0.3800 
    243 H243        0.0676  -20.9238  -54.5772 H         1 UNK         0.3800 
    244 H244       -0.2789  -18.7751  -51.5470 H         1 UNK         0.0800 
    245 H245        0.6016  -18.6124  -53.0433 H         1 UNK         0.0800 
    246 H246        2.8331  -21.5153  -52.4636 H         1 UNK         0.0800 
    247 H247        2.5890  -19.8721  -52.9834 H         1 UNK         0.0800 
@<TRIPOS>BOND
     1    1    2 1    
     2    1  127 1    
     3    1  128 1    
     4    1  129 1    
     5    2    3 2    
     6    2    4 am   BACKBONE|DICT|INTERRES
     7    4    5 1    
     8    4  130 1    
     9    5    6 1    
    10    5   65 1    
    11    5  131 1    
    12    6    7 1    
    13    6  132 1    
    14    6  133 1    
    15    7    8 1    
    16    8    9 1    
    17    8  134 1    
    18    8  135 1    
    19    9   10 ar   
    20    9   14 ar   
    21   10   11 ar   
    22   10  136 1    
    23   11   12 ar   
    24   11  126 1    
    25   12   13 ar   
    26   12  137 1    
    27   13   14 ar   
    28   13   15 1    
    29   14  138 1    
    30   15   16 1    
    31   15  139 1    
    32   15  140 1    
    33   16   17 1    
    34   17   18 1    
    35   17  141 1    
    36   17  142 1    
    37   18   19 1    
    38   18   67 1    
    39   18  143 1    
    40   19   20 am   BACKBONE|DICT|INTERRES
    41   19  144 1    
    42   20   21 2    
    43   20   22 1    
    44   22   23 1    
    45   22   24 1    
    46   22  145 1    
    47   23  146 1    
    48   23  147 1    
    49   23  148 1    
    50   24   25 am   BACKBONE|DICT|INTERRES
    51   24  149 1    
    52   25   26 2    
    53   25   27 1    
    54   27   28 1    
    55   27   29 1    
    56   27  150 1    
    57   28  151 1    
    58   28  152 1    
    59   28  153 1    
    60   29   30 am   BACKBONE|DICT|INTERRES
    61   29  154 1    
    62   30   31 2    
    63   30   32 1    
    64   32   33 1    
    65   32   34 1    
    66   32  155 1    
    67   33  156 1    
    68   33  157 1    
    69   33  158 1    
    70   34   35 am   BACKBONE|DICT|INTERRES
    71   34  159 1    
    72   35   36 2    
    73   35   37 1    
    74   37   38 1    
    75   37   39 1    
    76   37  160 1    
    77   38  161 1    
    78   38  162 1    
    79   38  163 1    
    80   39   40 am   BACKBONE|DICT|INTERRES
    81   39  164 1    
    82   40   41 2    
    83   40   42 1    
    84   42   43 1    
    85   42   44 1    
    86   42  165 1    
    87   43  166 1    
    88   43  167 1    
    89   43  168 1    
    90   44   45 am   BACKBONE|DICT|INTERRES
    91   44  169 1    
    92   45   46 2    
    93   45   47 1    
    94   47   48 1    
    95   47   49 1    
    96   47  170 1    
    97   48  171 1    
    98   48  172 1    
    99   48  173 1    
   100   49   50 am   BACKBONE|DICT|INTERRES
   101   49  174 1    
   102   50   51 2    
   103   50   52 1    
   104   52   53 1    
   105   52   54 1    
   106   52  175 1    
   107   53  176 1    
   108   53  177 1    
   109   53  178 1    
   110   54   55 am   BACKBONE|DICT|INTERRES
   111   54  179 1    
   112   55   56 2    
   113   55   57 1    
   114   57   58 1    
   115   57   59 1    
   116   57  180 1    
   117   58  181 1    
   118   58  182 1    
   119   58  183 1    
   120   59   60 am   BACKBONE|DICT|INTERRES
   121   59  184 1    
   122   60   61 2    
   123   60   62 1    
   124   62   63 1    
   125   62   64 1    
   126   62  185 1    
   127   63  186 1    
   128   63  187 1    
   129   63  188 1    
   130   64   65 am   BACKBONE|DICT|INTERRES
   131   64  189 1    
   132   65   66 2    
   133   67   68 2    
   134   67   69 am   BACKBONE|DICT|INTERRES
   135   69   70 1    
   136   69  190 1    
   137   70   71 1    
   138   70   72 1    
   139   70  191 1    
   140   71  192 1    
   141   71  193 1    
   142   71  194 1    
   143   72   73 2    
   144   72   74 am   BACKBONE|DICT|INTERRES
   145   74   75 1    
   146   74  195 1    
   147   75   76 1    
   148   75   77 1    
   149   75  196 1    
   150   76  197 1    
   151   76  198 1    
   152   76  199 1    
   153   77   78 2    
   154   77   79 am   BACKBONE|DICT|INTERRES
   155   79   80 1    
   156   79  200 1    
   157   80   81 1    
   158   80   82 1    
   159   80  201 1    
   160   81  202 1    
   161   81  203 1    
   162   81  204 1    
   163   82   83 2    
   164   82   84 am   BACKBONE|DICT|INTERRES
   165   84   85 1    
   166   84  205 1    
   167   85   86 1    
   168   85   87 1    
   169   85  206 1    
   170   86  207 1    
   171   86  208 1    
   172   86  209 1    
   173   87   88 2    
   174   87   89 am   BACKBONE|DICT|INTERRES
   175   89   90 1    
   176   89  210 1    
   177   90   91 1    
   178   90   92 1    
   179   90  211 1    
   180   91  212 1    
   181   91  213 1    
   182   91  214 1    
   183   92   93 2    
   184   92   94 am   BACKBONE|DICT|INTERRES
   185   94   95 1    
   186   94  215 1    
   187   95   96 1    
   188   95   97 1    
   189   95  216 1    
   190   96  217 1    
   191   96  218 1    
   192   96  219 1    
   193   97   98 2    
   194   97   99 am   BACKBONE|DICT|INTERRES
   195   99  100 1    
   196   99  220 1    
   197  100  101 1    
   198  100  102 1    
   199  100  221 1    
   200  101  222 1    
   201  101  223 1    
   202  101  224 1    
   203  102  103 2    
   204  102  104 am   BACKBONE|DICT|INTERRES
   205  104  105 1    
   206  104  225 1    
   207  105  106 1    
   208  105  107 1    
   209  105  226 1    
   210  106  227 1    
   211  106  228 1    
   212  106  229 1    
   213  107  108 2    
   214  107  109 am   BACKBONE|DICT|INTERRES
   215  109  110 1    
   216  109  230 1    
   217  110  111 1    
   218  110  112 1    
   219  110  231 1    
   220  111  232 1    
   221  111  233 1    
   222  111  234 1    
   223  112  113 2    
   224  112  114 am   BACKBONE|DICT|INTERRES
   225  114  115 1    
   226  114  235 1    
   227  115  116 1    
   228  115  117 1    
   229  115  236 1    
   230  116  237 1    
   231  116  238 1    
   232  116  239 1    
   233  117  118 2    
   234  117  119 am   BACKBONE|DICT|INTERRES
   235  119  120 1    
   236  119  240 1    
   237  120  121 1    
   238  120  124 1    
   239  120  241 1    
   240  121  122 am   BACKBONE|DICT|INTERRES
   241  121  123 2    
   242  122  242 1    
   243  122  243 1    
   244  124  125 1    
   245  124  244 1    
   246  124  245 1    
   247  125  126 1    
   248  126  246 1    
   249  126  247 1    
@<TRIPOS>SUBSTRUCTURE
     1 UNK         1 GROUP             0       ****    0 ROOT    
