@<TRIPOS>MOLECULE
3R540
247   249    1
SMALL
USER_CHARGES


@<TRIPOS>ATOM
      1 CA         -4.7547   -8.9252  -47.3215 C.3       0 UNK        -0.1800 
      2 C          -3.6513   -9.5620  -48.1550 C.2       0 UNK         0.5000 
      3 O          -3.1407   -8.9302  -49.0808 O.2       0 UNK        -0.5000 
      4 N          -3.2904  -10.8108  -47.8370 N.am      1 UNK        -0.5000 
      5 CA         -2.2200  -11.5716  -48.4916 C.3       1 UNK         0.1400 
      6 C6         -2.2818  -13.0796  -48.1395 C.3       23 UNK        -0.0398 
      7 S7         -3.8615  -13.8345  -48.6488 S.3       23 UNK        -0.2404 
      8 C8         -3.6358  -15.5563  -48.0999 C.3       23 UNK        -0.0205 
      9 C9         -2.6505  -16.3290  -48.9676 C.ar      23 UNK        -0.0193 
     10 C10        -2.9026  -16.5082  -50.3312 C.ar      23 UNK        -0.1150 
     11 C11        -2.0249  -17.2494  -51.1276 C.ar      23 UNK        -0.0193 
     12 C12        -0.8826  -17.8074  -50.5473 C.ar      23 UNK        -0.1150 
     13 C13        -0.6248  -17.6513  -49.1832 C.ar      23 UNK        -0.0193 
     14 C14        -1.5076  -16.9002  -48.4006 C.ar      23 UNK        -0.1150 
     15 C15         0.6018  -18.3047  -48.5589 C.3       23 UNK        -0.0205 
     16 S16         0.5596  -20.1253  -48.6722 S.3       23 UNK        -0.2404 
     17 C17        -1.0254  -20.5129  -47.8579 C.3       23 UNK        -0.0398 
     18 CA         -1.0468  -21.9375  -47.2540 C.3       11 UNK         0.1400 
     19 N          -0.2058  -22.0742  -46.0611 N.am      11 UNK        -0.5000 
     20 C           0.0196  -23.2286  -45.4182 C.2       10 UNK         0.5000 
     21 O          -0.4162  -24.3156  -45.8005 O.2       10 UNK        -0.5000 
     22 CA          0.8110  -23.1559  -44.0987 C.3       10 UNK         0.1400 
     23 CB          2.3218  -23.0757  -44.3608 C.3       10 UNK        -0.1800 
     24 N           0.3884  -22.0413  -43.2470 N.am      10 UNK        -0.5000 
     25 C          -0.8311  -21.9360  -42.6983 C.2       9 UNK         0.5000 
     26 O          -1.7078  -22.7896  -42.8198 O.2       9 UNK        -0.5000 
     27 CA         -1.1519  -20.6412  -41.9305 C.3       9 UNK         0.1400 
     28 CB         -0.5599  -20.6791  -40.5141 C.3       9 UNK        -0.1800 
     29 N          -0.6928  -19.4449  -42.6352 N.am      9 UNK        -0.5000 
     30 C          -1.1383  -19.0635  -43.8412 C.2       8 UNK         0.5000 
     31 O          -2.0363  -19.6404  -44.4543 O.2       8 UNK        -0.5000 
     32 CA         -0.4165  -17.8809  -44.5075 C.3       8 UNK         0.1400 
     33 CB         -0.9560  -16.5364  -43.9999 C.3       8 UNK        -0.1800 
     34 N           1.0328  -17.9314  -44.3280 N.am      8 UNK        -0.5000 
     35 C           1.8298  -18.9087  -44.7782 C.2       7 UNK         0.5000 
     36 O           1.4282  -19.8615  -45.4402 O.2       7 UNK        -0.5000 
     37 CA          3.3103  -18.8428  -44.3719 C.3       7 UNK         0.1400 
     38 CB          4.0943  -17.8643  -45.2592 C.3       7 UNK        -0.1800 
     39 N           3.4673  -18.4740  -42.9662 N.am      7 UNK        -0.5000 
     40 C           3.1501  -19.2722  -41.9380 C.2       6 UNK         0.5000 
     41 O           2.7301  -20.4222  -42.0705 O.2       6 UNK        -0.5000 
     42 CA          3.3004  -18.6711  -40.5280 C.3       6 UNK         0.1400 
     43 CB          4.7475  -18.8101  -40.0323 C.3       6 UNK        -0.1800 
     44 N           2.9000  -17.2632  -40.4666 N.am      6 UNK        -0.5000 
     45 C           1.6363  -16.8354  -40.5942 C.2       5 UNK         0.5000 
     46 O           0.6755  -17.5859  -40.7634 O.2       5 UNK        -0.5000 
     47 CA          1.4147  -15.3092  -40.5802 C.3       5 UNK         0.1400 
     48 CB          1.3683  -14.7835  -39.1376 C.3       5 UNK        -0.1800 
     49 N           2.4049  -14.5419  -41.3477 N.am      5 UNK        -0.5000 
     50 C           2.6840  -14.7401  -42.6426 C.2       4 UNK         0.5000 
     51 O           2.2088  -15.6652  -43.3011 O.2       4 UNK        -0.5000 
     52 CA          3.6861  -13.7774  -43.3079 C.3       4 UNK         0.1400 
     53 CB          5.1233  -14.1448  -42.9060 C.3       4 UNK        -0.1800 
     54 N           3.5816  -13.8352  -44.7685 N.am      4 UNK        -0.5000 
     55 C           2.5336  -13.3938  -45.4761 C.2       3 UNK         0.5000 
     56 O           1.6028  -12.7426  -44.9949 O.2       3 UNK        -0.5000 
     57 CA          2.5017  -13.8040  -46.9615 C.3       3 UNK         0.1400 
     58 CB          1.7198  -15.1178  -47.1319 C.3       3 UNK        -0.1800 
     59 N           1.8836  -12.7910  -47.8139 N.am      3 UNK        -0.5000 
     60 C           2.3514  -11.5542  -48.0286 C.2       2 UNK         0.5000 
     61 O           3.4176  -11.1376  -47.5730 O.2       2 UNK        -0.5000 
     62 CA          1.4955  -10.6300  -48.9205 C.3       2 UNK         0.1400 
     63 CB          2.1319  -10.4873  -50.3123 C.3       2 UNK        -0.1800 
     64 N           0.1104  -11.0871  -49.0811 N.am      2 UNK        -0.5000 
     65 C          -0.8347  -10.9908  -48.1364 C.2       1 UNK         0.5000 
     66 O          -0.6393  -10.4980  -47.0226 O.2       1 UNK        -0.5000 
     67 C          -2.4964  -22.3917  -46.9886 C.2       11 UNK         0.5000 
     68 O          -3.0596  -23.1179  -47.8067 O.2       11 UNK        -0.5000 
     69 N          -3.0661  -21.9838  -45.8484 N.am      12 UNK        -0.5000 
     70 CA         -4.4164  -22.3517  -45.4336 C.3       12 UNK         0.1400 
     71 CB         -4.8591  -21.4457  -44.2739 C.3       12 UNK        -0.1800 
     72 C          -4.5492  -23.8371  -45.0506 C.2       12 UNK         0.5000 
     73 O          -5.4546  -24.5084  -45.5461 O.2       12 UNK        -0.5000 
     74 N          -3.6749  -24.3147  -44.1560 N.am      13 UNK        -0.5000 
     75 CA         -3.8099  -25.6218  -43.5153 C.3       13 UNK         0.1400 
     76 CB         -3.1879  -25.5688  -42.1106 C.3       13 UNK        -0.1800 
     77 C          -3.1944  -26.7737  -44.3232 C.2       13 UNK         0.5000 
     78 O          -3.8222  -27.8282  -44.4306 O.2       13 UNK        -0.5000 
     79 N          -1.9706  -26.5829  -44.8335 N.am      14 UNK        -0.5000 
     80 CA         -1.1821  -27.6502  -45.4502 C.3       14 UNK         0.1400 
     81 CB          0.3025  -27.4905  -45.0803 C.3       14 UNK        -0.1800 
     82 C          -1.3746  -27.6927  -46.9710 C.2       14 UNK         0.5000 
     83 O          -1.6301  -28.7682  -47.5147 O.2       14 UNK        -0.5000 
     84 N          -1.2494  -26.5343  -47.6342 N.am      15 UNK        -0.5000 
     85 CA         -1.3811  -26.4317  -49.0913 C.3       15 UNK         0.1400 
     86 CB         -0.6876  -25.1561  -49.5916 C.3       15 UNK        -0.1800 
     87 C          -2.8475  -26.4659  -49.5601 C.2       15 UNK         0.5000 
     88 O          -3.1131  -26.9493  -50.6609 O.2       15 UNK        -0.5000 
     89 N          -3.7573  -25.9563  -48.7145 N.am      16 UNK        -0.5000 
     90 CA         -5.1836  -25.7330  -48.9742 C.3       16 UNK         0.1400 
     91 CB         -5.9333  -27.0681  -49.1667 C.3       16 UNK        -0.1800 
     92 C          -5.3987  -24.7279  -50.1255 C.2       16 UNK         0.5000 
     93 O          -6.1566  -24.9982  -51.0596 O.2       16 UNK        -0.5000 
     94 N          -4.6985  -23.5886  -50.0251 N.am      17 UNK        -0.5000 
     95 CA         -4.5820  -22.5166  -51.0150 C.3       17 UNK         0.1400 
     96 CB         -5.9397  -21.8132  -51.2286 C.3       17 UNK        -0.1800 
     97 C          -3.9043  -23.0117  -52.3118 C.2       17 UNK         0.5000 
     98 O          -2.9779  -23.8206  -52.2321 O.2       17 UNK        -0.5000 
     99 N          -4.3404  -22.4948  -53.4714 N.am      18 UNK        -0.5000 
    100 CA        -3.8900  -22.8434  -54.8284 C.3       18 UNK         0.1400 
    101 CB        -4.2500  -24.3074  -55.1574 C.3       18 UNK        -0.1800 
    102 C         -2.4073  -22.5244  -55.1293 C.2       18 UNK         0.5000 
    103 O         -1.8701  -23.0097  -56.1265 O.2       18 UNK        -0.5000 
    104 N         -1.7703  -21.7087  -54.2797 N.am      19 UNK        -0.5000 
    105 CA        -0.3646  -21.3183  -54.3906 C.3       19 UNK         0.1400 
    106 CB         0.1253  -20.8653  -53.0078 C.3       19 UNK        -0.1800 
    107 C         -0.1286  -20.2161  -55.4408 C.2       19 UNK         0.5000 
    108 O          0.9773  -20.1142  -55.9733 O.2       19 UNK        -0.5000 
    109 N         -1.1664  -19.4201  -55.7197 N.am      20 UNK        -0.5000 
    110 CA        -1.1894  -18.3404  -56.7007 C.3       20 UNK         0.1400 
    111 CB        -0.3886  -17.1204  -56.1885 C.3       20 UNK        -0.1800 
    112 C         -2.6627  -18.0367  -57.0259 C.2       20 UNK         0.5000 
    113 O         -3.4490  -18.9728  -57.1925 O.2       20 UNK        -0.5000 
    114 N         -3.0344  -16.7484  -57.0597 N.am      21 UNK        -0.5000 
    115 CA        -4.3903  -16.2406  -57.3144 C.3       21 UNK         0.1400 
    116 CB        -4.3414  -14.7054  -57.3558 C.3       21 UNK        -0.1800 
    117 C         -5.4596  -16.7190  -56.3074 C.2       21 UNK         0.5000 
    118 O         -6.6510  -16.6602  -56.6133 O.2       21 UNK        -0.5000 
    119 N         -5.0135  -17.2077  -55.1440 N.am      22 UNK        -0.5000 
    120 CA        -5.8139  -17.9455  -54.1575 C.3       22 UNK         0.1400 
    121 C         -6.3312  -19.3368  -54.6369 C.2       22 UNK         0.5000 
    122 N         -5.8439  -19.8934  -55.7402 N.am      22 UNK        -0.7600 
    123 O         -7.2005  -19.9201  -53.9969 O.2       22 UNK        -0.5000 
    124 C124       -5.0713  -18.0441  -52.7997 C.3       23 UNK        -0.0398 
    125 S125       -3.4276  -18.8479  -52.9137 S.3       23 UNK        -0.2404 
    126 C126       -2.2995  -17.4481  -52.6114 C.3       23 UNK        -0.0205 
    127 H127       -4.3838   -8.0231  -46.8349 H         1 UNK         0.0600 
    128 H128       -5.1213   -9.6018  -46.5491 H         1 UNK         0.0600 
    129 H129       -5.5951   -8.6496  -47.9586 H         1 UNK         0.0600 
    130 H130       -3.7409  -11.2742  -47.0615 H         1 UNK         0.3000 
    131 H131       -2.3582  -11.4710  -49.5706 H         1 UNK         0.0600 
    132 H132       -1.4762  -13.6238  -48.6359 H         1 UNK         0.0800 
    133 H133       -2.1463  -13.2331  -47.0672 H         1 UNK         0.0800 
    134 H134       -3.3290  -15.5634  -47.0527 H         1 UNK         0.0800 
    135 H135       -4.6010  -16.0630  -48.1378 H         1 UNK         0.0800 
    136 H136       -3.7856  -16.0647  -50.7662 H         1 UNK         0.1150 
    137 H137       -0.1931  -18.3785  -51.1506 H         1 UNK         0.1150 
    138 H138       -1.3140  -16.7661  -47.3475 H         1 UNK         0.1150 
    139 H139        1.4955  -17.9424  -49.0683 H         1 UNK         0.0800 
    140 H140        0.7101  -18.0156  -47.5141 H         1 UNK         0.0800 
    141 H141       -1.8032  -20.3974  -48.6157 H         1 UNK         0.0800 
    142 H142       -1.2355  -19.7697  -47.0883 H         1 UNK         0.0800 
    143 H143       -0.6350  -22.6166  -48.0002 H         1 UNK         0.0600 
    144 H144        0.2521  -21.2282  -45.7271 H         1 UNK         0.3000 
    145 H145        0.6171  -24.0805  -43.5508 H         1 UNK         0.0600 
    146 H146        2.8842  -23.0818  -43.4269 H         1 UNK         0.0600 
    147 H147        2.6593  -23.9289  -44.9506 H         1 UNK         0.0600 
    148 H148        2.5928  -22.1728  -44.9072 H         1 UNK         0.0600 
    149 H149        1.0676  -21.3071  -43.0824 H         1 UNK         0.3000 
    150 H150       -2.2379  -20.5736  -41.8387 H         1 UNK         0.0600 
    151 H151       -0.9045  -21.5599  -39.9709 H         1 UNK         0.0600 
    152 H152       -0.8613  -19.8039  -39.9385 H         1 UNK         0.0600 
    153 H153        0.5293  -20.7088  -40.5308 H         1 UNK         0.0600 
    154 H154        0.0118  -18.8822  -42.1696 H         1 UNK         0.3000 
    155 H155       -0.6166  -17.9449  -45.5758 H         1 UNK         0.0600 
    156 H156       -0.7675  -16.4055  -42.9340 H         1 UNK         0.0600 
    157 H157       -2.0327  -16.4626  -44.1571 H         1 UNK         0.0600 
    158 H158       -0.4907  -15.7019  -44.5253 H         1 UNK         0.0600 
    159 H159        1.4561  -17.1528  -43.8234 H         1 UNK         0.3000 
    160 H160        3.7355  -19.8385  -44.5152 H         1 UNK         0.0600 
    161 H161        3.7831  -16.8331  -45.1000 H         1 UNK         0.0600 
    162 H162        3.9509  -18.0935  -46.3161 H         1 UNK         0.0600 
    163 H163        5.1635  -17.9230  -45.0557 H         1 UNK         0.0600 
    164 H164        3.7343  -17.5202  -42.7737 H         1 UNK         0.3000 
    165 H165        2.6546  -19.2393  -39.8550 H         1 UNK         0.0600 
    166 H166        4.8476  -18.4590  -39.0051 H         1 UNK         0.0600 
    167 H167        5.0673  -19.8529  -40.0508 H         1 UNK         0.0600 
    168 H168        5.4432  -18.2422  -40.6512 H         1 UNK         0.0600 
    169 H169        3.6321  -16.5802  -40.3387 H         1 UNK         0.3000 
    170 H170        0.4407  -15.1228  -41.0371 H         1 UNK         0.0600 
    171 H171        0.6279  -15.3258  -38.5476 H         1 UNK         0.0600 
    172 H172        2.3312  -14.8930  -38.6372 H         1 UNK         0.0600 
    173 H173        1.0931  -13.7290  -39.1103 H         1 UNK         0.0600 
    174 H174        2.8493  -13.7748  -40.8641 H         1 UNK         0.3000 
    175 H175        3.4678  -12.7597  -42.9784 H         1 UNK         0.0600 
    176 H176        5.3797  -15.1611  -43.2088 H         1 UNK         0.0600 
    177 H177        5.8452  -13.4672  -43.3625 H         1 UNK         0.0600 
    178 H178        5.2600  -14.0799  -41.8258 H         1 UNK         0.0600 
    179 H179        4.2883  -14.3799  -45.2393 H         1 UNK         0.3000 
    180 H180        3.5261  -13.9560  -47.3078 H         1 UNK         0.0600 
    181 H181        0.6766  -15.0061  -46.8331 H         1 UNK         0.0600 
    182 H182        2.1455  -15.9144  -46.5224 H         1 UNK         0.0600 
    183 H183        1.7377  -15.4568  -48.1677 H         1 UNK         0.0600 
    184 H184        0.9947  -13.0319  -48.2218 H         1 UNK         0.3000 
    185 H185        1.4829   -9.6443  -48.4503 H         1 UNK         0.0600 
    186 H186        3.1547  -10.1150  -50.2389 H         1 UNK         0.0600 
    187 H187        2.1677  -11.4420  -50.8387 H         1 UNK         0.0600 
    188 H188        1.5758   -9.7823  -50.9305 H         1 UNK         0.0600 
    189 H189       -0.1238  -11.4934  -49.9759 H         1 UNK         0.3000 
    190 H190       -2.5573  -21.3496  -45.2388 H         1 UNK         0.3000 
    191 H191       -5.0885  -22.1667  -46.2745 H         1 UNK         0.0600 
    192 H192       -4.8633  -20.3977  -44.5742 H         1 UNK         0.0600 
    193 H193       -5.8688  -21.6946  -43.9453 H         1 UNK         0.0600 
    194 H194       -4.1985  -21.5410  -43.4114 H         1 UNK         0.0600 
    195 H195       -2.9518  -23.7005  -43.7850 H         1 UNK         0.3000 
    196 H196       -4.8726  -25.8408  -43.3876 H         1 UNK         0.0600 
    197 H197       -3.3348  -26.5119  -41.5828 H         1 UNK         0.0600 
    198 H198       -3.6431  -24.7834  -41.5069 H         1 UNK         0.0600 
    199 H199       -2.1144  -25.3801  -42.1501 H         1 UNK         0.0600 
    200 H200       -1.5407  -25.6657  -44.7930 H         1 UNK         0.3000 
    201 H201       -1.5019  -28.6157  -45.0515 H         1 UNK         0.0600 
    202 H202        0.4380  -27.4641  -43.9990 H         1 UNK         0.0600 
    203 H203        0.7394  -26.5826  -45.4942 H         1 UNK         0.0600 
    204 H204        0.8861  -28.3301  -45.4597 H         1 UNK         0.0600 
    205 H205       -1.0200  -25.6914  -47.1156 H         1 UNK         0.3000 
    206 H206       -0.8658  -27.2829  -49.5420 H         1 UNK         0.0600 
    207 H207        0.3090  -25.0422  -49.1648 H         1 UNK         0.0600 
    208 H208       -0.5798  -25.1802  -50.6767 H         1 UNK         0.0600 
    209 H209       -1.2675  -24.2669  -49.3546 H         1 UNK         0.0600 
    210 H210       -3.4087  -25.5533  -47.8558 H         1 UNK         0.3000 
    211 H211       -5.5888  -25.2597  -48.0800 H         1 UNK         0.0600 
    212 H212       -5.6266  -27.5830  -50.0773 H         1 UNK         0.0600 
    213 H213       -7.0089  -26.9018  -49.2339 H         1 UNK         0.0600 
    214 H214       -5.7604  -27.7402  -48.3261 H         1 UNK         0.0600 
    215 H215       -4.0829  -23.4896  -49.2186 H         1 UNK         0.3000 
    216 H216       -3.8989  -21.7847  -50.5813 H         1 UNK         0.0600 
    217 H217       -5.8213  -20.9003  -51.8097 H         1 UNK         0.0600 
    218 H218       -6.3859  -21.5263  -50.2765 H         1 UNK         0.0600 
    219 H219       -6.6545  -22.4485  -51.7527 H         1 UNK         0.0600 
    220 H220       -5.0928  -21.8208  -53.4303 H         1 UNK         0.3000 
    221 H221       -4.4636  -22.2137  -55.5070 H         1 UNK         0.0600 
    222 H222       -3.6614  -25.0113  -54.5683 H         1 UNK         0.0600 
    223 H223       -5.3037  -24.5073  -54.9628 H         1 UNK         0.0600 
    224 H224       -4.0687  -24.5310  -56.2093 H         1 UNK         0.0600 
    225 H225       -2.2822  -21.3517  -53.4864 H         1 UNK         0.3000 
    226 H226        0.2212  -22.1902  -54.6894 H         1 UNK         0.0600 
    227 H227        0.0600  -21.6752  -52.2807 H         1 UNK         0.0600 
    228 H228        1.1662  -20.5412  -53.0427 H         1 UNK         0.0600 
    229 H229       -0.4689  -20.0335  -52.6335 H         1 UNK         0.0600 
    230 H230       -2.0550  -19.6229  -55.2825 H         1 UNK         0.3000 
    231 H231       -0.7305  -18.6997  -57.6237 H         1 UNK         0.0600 
    232 H232       -0.8298  -16.6922  -55.2883 H         1 UNK         0.0600 
    233 H233       -0.3363  -16.3355  -56.9438 H         1 UNK         0.0600 
    234 H234        0.6402  -17.3908  -55.9518 H         1 UNK         0.0600 
    235 H235       -2.3254  -16.0475  -56.8988 H         1 UNK         0.3000 
    236 H236       -4.6954  -16.6009  -58.2989 H         1 UNK         0.0600 
    237 H237       -3.6600  -14.3521  -58.1300 H         1 UNK         0.0600 
    238 H238       -5.3246  -14.2875  -57.5766 H         1 UNK         0.0600 
    239 H239       -4.0142  -14.2884  -56.4025 H         1 UNK         0.0600 
    240 H240       -4.0175  -17.2184  -54.9908 H         1 UNK         0.3000 
    241 H241       -6.7139  -17.3530  -53.9833 H         1 UNK         0.0600 
    242 H242       -6.2305  -20.7661  -56.0596 H         1 UNK         0.3800 
    243 H243       -5.1033  -19.4486  -56.2736 H         1 UNK         0.3800 
    244 H244       -4.9592  -17.0402  -52.3941 H         1 UNK         0.0800 
    245 H245       -5.6747  -18.5782  -52.0649 H         1 UNK         0.0800 
    246 H246       -2.6986  -16.5322  -53.0495 H         1 UNK         0.0800 
    247 H247       -1.3612  -17.6454  -53.1313 H         1 UNK         0.0800 
@<TRIPOS>BOND
     1    1    2 1    
     2    1  127 1    
     3    1  128 1    
     4    1  129 1    
     5    2    3 2    
     6    2    4 am   BACKBONE|DICT|INTERRES
     7    4    5 1    
     8    4  130 1    
     9    5    6 1    
    10    5   65 1    
    11    5  131 1    
    12    6    7 1    
    13    6  132 1    
    14    6  133 1    
    15    7    8 1    
    16    8    9 1    
    17    8  134 1    
    18    8  135 1    
    19    9   10 ar   
    20    9   14 ar   
    21   10   11 ar   
    22   10  136 1    
    23   11   12 ar   
    24   11  126 1    
    25   12   13 ar   
    26   12  137 1    
    27   13   14 ar   
    28   13   15 1    
    29   14  138 1    
    30   15   16 1    
    31   15  139 1    
    32   15  140 1    
    33   16   17 1    
    34   17   18 1    
    35   17  141 1    
    36   17  142 1    
    37   18   19 1    
    38   18   67 1    
    39   18  143 1    
    40   19   20 am   BACKBONE|DICT|INTERRES
    41   19  144 1    
    42   20   21 2    
    43   20   22 1    
    44   22   23 1    
    45   22   24 1    
    46   22  145 1    
    47   23  146 1    
    48   23  147 1    
    49   23  148 1    
    50   24   25 am   BACKBONE|DICT|INTERRES
    51   24  149 1    
    52   25   26 2    
    53   25   27 1    
    54   27   28 1    
    55   27   29 1    
    56   27  150 1    
    57   28  151 1    
    58   28  152 1    
    59   28  153 1    
    60   29   30 am   BACKBONE|DICT|INTERRES
    61   29  154 1    
    62   30   31 2    
    63   30   32 1    
    64   32   33 1    
    65   32   34 1    
    66   32  155 1    
    67   33  156 1    
    68   33  157 1    
    69   33  158 1    
    70   34   35 am   BACKBONE|DICT|INTERRES
    71   34  159 1    
    72   35   36 2    
    73   35   37 1    
    74   37   38 1    
    75   37   39 1    
    76   37  160 1    
    77   38  161 1    
    78   38  162 1    
    79   38  163 1    
    80   39   40 am   BACKBONE|DICT|INTERRES
    81   39  164 1    
    82   40   41 2    
    83   40   42 1    
    84   42   43 1    
    85   42   44 1    
    86   42  165 1    
    87   43  166 1    
    88   43  167 1    
    89   43  168 1    
    90   44   45 am   BACKBONE|DICT|INTERRES
    91   44  169 1    
    92   45   46 2    
    93   45   47 1    
    94   47   48 1    
    95   47   49 1    
    96   47  170 1    
    97   48  171 1    
    98   48  172 1    
    99   48  173 1    
   100   49   50 am   BACKBONE|DICT|INTERRES
   101   49  174 1    
   102   50   51 2    
   103   50   52 1    
   104   52   53 1    
   105   52   54 1    
   106   52  175 1    
   107   53  176 1    
   108   53  177 1    
   109   53  178 1    
   110   54   55 am   BACKBONE|DICT|INTERRES
   111   54  179 1    
   112   55   56 2    
   113   55   57 1    
   114   57   58 1    
   115   57   59 1    
   116   57  180 1    
   117   58  181 1    
   118   58  182 1    
   119   58  183 1    
   120   59   60 am   BACKBONE|DICT|INTERRES
   121   59  184 1    
   122   60   61 2    
   123   60   62 1    
   124   62   63 1    
   125   62   64 1    
   126   62  185 1    
   127   63  186 1    
   128   63  187 1    
   129   63  188 1    
   130   64   65 am   BACKBONE|DICT|INTERRES
   131   64  189 1    
   132   65   66 2    
   133   67   68 2    
   134   67   69 am   BACKBONE|DICT|INTERRES
   135   69   70 1    
   136   69  190 1    
   137   70   71 1    
   138   70   72 1    
   139   70  191 1    
   140   71  192 1    
   141   71  193 1    
   142   71  194 1    
   143   72   73 2    
   144   72   74 am   BACKBONE|DICT|INTERRES
   145   74   75 1    
   146   74  195 1    
   147   75   76 1    
   148   75   77 1    
   149   75  196 1    
   150   76  197 1    
   151   76  198 1    
   152   76  199 1    
   153   77   78 2    
   154   77   79 am   BACKBONE|DICT|INTERRES
   155   79   80 1    
   156   79  200 1    
   157   80   81 1    
   158   80   82 1    
   159   80  201 1    
   160   81  202 1    
   161   81  203 1    
   162   81  204 1    
   163   82   83 2    
   164   82   84 am   BACKBONE|DICT|INTERRES
   165   84   85 1    
   166   84  205 1    
   167   85   86 1    
   168   85   87 1    
   169   85  206 1    
   170   86  207 1    
   171   86  208 1    
   172   86  209 1    
   173   87   88 2    
   174   87   89 am   BACKBONE|DICT|INTERRES
   175   89   90 1    
   176   89  210 1    
   177   90   91 1    
   178   90   92 1    
   179   90  211 1    
   180   91  212 1    
   181   91  213 1    
   182   91  214 1    
   183   92   93 2    
   184   92   94 am   BACKBONE|DICT|INTERRES
   185   94   95 1    
   186   94  215 1    
   187   95   96 1    
   188   95   97 1    
   189   95  216 1    
   190   96  217 1    
   191   96  218 1    
   192   96  219 1    
   193   97   98 2    
   194   97   99 am   BACKBONE|DICT|INTERRES
   195   99  100 1    
   196   99  220 1    
   197  100  101 1    
   198  100  102 1    
   199  100  221 1    
   200  101  222 1    
   201  101  223 1    
   202  101  224 1    
   203  102  103 2    
   204  102  104 am   BACKBONE|DICT|INTERRES
   205  104  105 1    
   206  104  225 1    
   207  105  106 1    
   208  105  107 1    
   209  105  226 1    
   210  106  227 1    
   211  106  228 1    
   212  106  229 1    
   213  107  108 2    
   214  107  109 am   BACKBONE|DICT|INTERRES
   215  109  110 1    
   216  109  230 1    
   217  110  111 1    
   218  110  112 1    
   219  110  231 1    
   220  111  232 1    
   221  111  233 1    
   222  111  234 1    
   223  112  113 2    
   224  112  114 am   BACKBONE|DICT|INTERRES
   225  114  115 1    
   226  114  235 1    
   227  115  116 1    
   228  115  117 1    
   229  115  236 1    
   230  116  237 1    
   231  116  238 1    
   232  116  239 1    
   233  117  118 2    
   234  117  119 am   BACKBONE|DICT|INTERRES
   235  119  120 1    
   236  119  240 1    
   237  120  121 1    
   238  120  124 1    
   239  120  241 1    
   240  121  122 am   BACKBONE|DICT|INTERRES
   241  121  123 2    
   242  122  242 1    
   243  122  243 1    
   244  124  125 1    
   245  124  244 1    
   246  124  245 1    
   247  125  126 1    
   248  126  246 1    
   249  126  247 1    
@<TRIPOS>SUBSTRUCTURE
     1 UNK         1 GROUP             0       ****    0 ROOT    
