@<TRIPOS>MOLECULE
3R540
247   249    1
SMALL
USER_CHARGES


@<TRIPOS>ATOM
      1 CA          1.6413   -9.0990  -47.9169 C.3       0 UNK        -0.1800 
      2 C           0.2692   -9.6698  -47.5878 C.2       0 UNK         0.5000 
      3 O          -0.6017   -8.9344  -47.1242 O.2       0 UNK        -0.5000 
      4 N           0.0847  -10.9779  -47.8190 N.am      1 UNK        -0.5000 
      5 CA         -1.1555  -11.7473  -47.6160 C.3       1 UNK         0.1400 
      6 C6         -2.3358  -11.2577  -48.5053 C.3       23 UNK        -0.0398 
      7 S7         -1.9278  -11.2547  -50.2874 S.3       23 UNK        -0.2404 
      8 C8         -2.7975  -12.7419  -50.8791 C.3       23 UNK        -0.0205 
      9 C9         -2.2667  -14.0076  -50.2242 C.ar      23 UNK        -0.0193 
     10 C10        -1.0404  -14.5470  -50.6253 C.ar      23 UNK        -0.1150 
     11 C11        -0.5342  -15.6928  -50.0057 C.ar      23 UNK        -0.0193 
     12 C12        -1.2719  -16.3049  -48.9904 C.ar      23 UNK        -0.1150 
     13 C13        -2.5037  -15.7834  -48.5884 C.ar      23 UNK        -0.0193 
     14 C14        -2.9946  -14.6309  -49.2061 C.ar      23 UNK        -0.1150 
     15 C15        -3.2824  -16.4592  -47.4697 C.3       23 UNK        -0.0205 
     16 S16        -4.9572  -16.9982  -47.9427 S.3       23 UNK        -0.2404 
     17 C17        -4.6817  -17.9530  -49.4774 C.3       23 UNK        -0.0398 
     18 CA         -4.2688  -19.4342  -49.3029 C.3       11 UNK         0.1400 
     19 N          -2.9155  -19.5979  -48.7609 N.am      11 UNK        -0.5000 
     20 C          -2.1614  -20.6809  -48.9908 C.2       10 UNK         0.5000 
     21 O          -2.5263  -21.6188  -49.6961 O.2       10 UNK        -0.5000 
     22 CA         -0.7866  -20.7537  -48.3066 C.3       10 UNK         0.1400 
     23 CB          0.2841  -20.1128  -49.1948 C.3       10 UNK        -0.1800 
     24 N          -0.7421  -20.1563  -46.9696 N.am      10 UNK        -0.5000 
     25 C          -1.4098  -20.6391  -45.9098 C.2       9 UNK         0.5000 
     26 O          -2.2464  -21.5372  -46.0011 O.2       9 UNK        -0.5000 
     27 CA         -1.0914  -20.0556  -44.5175 C.3       9 UNK         0.1400 
     28 CB         -0.2148  -21.0358  -43.7236 C.3       9 UNK        -0.1800 
     29 N          -0.4059  -18.7655  -44.5880 N.am      9 UNK        -0.5000 
     30 C          -1.0237  -17.5847  -44.7049 C.2       8 UNK         0.5000 
     31 O          -2.2430  -17.4539  -44.6062 O.2       8 UNK        -0.5000 
     32 CA         -0.1565  -16.3388  -44.9978 C.3       8 UNK         0.1400 
     33 CB         -0.2812  -15.3045  -43.8692 C.3       8 UNK        -0.1800 
     34 N           1.2679  -16.5938  -45.2439 N.am      8 UNK        -0.5000 
     35 C           1.7820  -17.2859  -46.2701 C.2       7 UNK         0.5000 
     36 O           1.0971  -17.9205  -47.0703 O.2       7 UNK        -0.5000 
     37 CA          3.3153  -17.2521  -46.3986 C.3       7 UNK         0.1400 
     38 CB          3.8439  -17.9347  -47.6781 C.3       7 UNK        -0.1800 
     39 N           3.8189  -15.8828  -46.2523 N.am      7 UNK        -0.5000 
     40 C           3.6291  -14.8434  -47.0819 C.2       6 UNK         0.5000 
     41 O           3.0858  -14.9376  -48.1823 O.2       6 UNK        -0.5000 
     42 CA          4.0819  -13.4473  -46.5965 C.3       6 UNK         0.1400 
     43 CB          2.9295  -12.4377  -46.7097 C.3       6 UNK        -0.1800 
     44 N           4.5692  -13.4354  -45.2157 N.am      6 UNK        -0.5000 
     45 C           5.7929  -13.8158  -44.8267 C.2       5 UNK         0.5000 
     46 O           6.6799  -14.1598  -45.6081 O.2       5 UNK        -0.5000 
     47 CA          6.0631  -13.8561  -43.3101 C.3       5 UNK         0.1400 
     48 CB          6.7958  -12.5818  -42.8638 C.3       5 UNK        -0.1800 
     49 N           4.8687  -14.0264  -42.4766 N.am      5 UNK        -0.5000 
     50 C           4.0084  -15.0516  -42.4978 C.2       4 UNK         0.5000 
     51 O           4.0612  -15.9692  -43.3171 O.2       4 UNK        -0.5000 
     52 CA          2.8778  -15.0464  -41.4495 C.3       4 UNK         0.1400 
     53 CB          3.3824  -15.5712  -40.0923 C.3       4 UNK        -0.1800 
     54 N           2.1716  -13.7643  -41.3014 N.am      4 UNK        -0.5000 
     55 C           2.6311  -12.5884  -40.8465 C.2       3 UNK         0.5000 
     56 O           3.7926  -12.4057  -40.4775 O.2       3 UNK        -0.5000 
     57 CA          1.6188  -11.4242  -40.7859 C.3       3 UNK         0.1400 
     58 CB          2.2955  -10.0455  -40.9420 C.3       3 UNK        -0.1800 
     59 N           0.4824  -11.5521  -41.7106 N.am      3 UNK        -0.5000 
     60 C           0.5199  -11.5378  -43.0511 C.2       2 UNK         0.5000 
     61 O           1.5600  -11.5215  -43.7154 O.2       2 UNK        -0.5000 
     62 CA         -0.8450  -11.5344  -43.7601 C.3       2 UNK         0.1400 
     63 CB         -1.6537  -10.2698  -43.4011 C.3       2 UNK        -0.1800 
     64 N          -0.6374  -11.5931  -45.2033 N.am      2 UNK        -0.5000 
     65 C          -1.5653  -11.8753  -46.1265 C.2       1 UNK         0.5000 
     66 O          -2.7088  -12.2316  -45.8378 O.2       1 UNK        -0.5000 
     67 C          -5.3076  -20.2813  -48.5356 C.2       11 UNK         0.5000 
     68 O          -6.2837  -20.7296  -49.1373 O.2       11 UNK        -0.5000 
     69 N          -5.0551  -20.5465  -47.2446 N.am      12 UNK        -0.5000 
     70 CA         -5.8359  -21.4855  -46.4390 C.3       12 UNK         0.1400 
     71 CB         -5.5391  -21.2756  -44.9466 C.3       12 UNK        -0.1800 
     72 C          -5.5664  -22.9381  -46.8683 C.2       12 UNK         0.5000 
     73 O          -6.5083  -23.7192  -46.9901 O.2       12 UNK        -0.5000 
     74 N          -4.2960  -23.2561  -47.1557 N.am      13 UNK        -0.5000 
     75 CA         -3.8692  -24.5296  -47.7359 C.3       13 UNK         0.1400 
     76 CB         -2.3368  -24.6126  -47.7203 C.3       13 UNK        -0.1800 
     77 C          -4.4338  -24.7582  -49.1526 C.2       13 UNK         0.5000 
     78 O          -4.7960  -25.8888  -49.4795 O.2       13 UNK        -0.5000 
     79 N          -4.5473  -23.6864  -49.9512 N.am      14 UNK        -0.5000 
     80 CA         -5.2066  -23.6913  -51.2580 C.3       14 UNK         0.1400 
     81 CB         -4.9716  -22.3562  -51.9808 C.3       14 UNK        -0.1800 
     82 C          -6.7142  -23.9751  -51.1416 C.2       14 UNK         0.5000 
     83 O          -7.2278  -24.8151  -51.8793 O.2       14 UNK        -0.5000 
     84 N          -7.3871  -23.3054  -50.1933 N.am      15 UNK        -0.5000 
     85 CA         -8.8079  -23.4959  -49.8840 C.3       15 UNK         0.1400 
     86 CB         -9.2670  -22.4169  -48.8919 C.3       15 UNK        -0.1800 
     87 C          -9.1252  -24.9058  -49.3476 C.2       15 UNK         0.5000 
     88 O         -10.1712  -25.4636  -49.6807 O.2       15 UNK        -0.5000 
     89 N          -8.1951  -25.4729  -48.5677 N.am      16 UNK        -0.5000 
     90 CA         -8.2204  -26.8550  -48.0832 C.3       16 UNK         0.1400 
     91 CB         -7.2427  -26.9803  -46.9037 C.3       16 UNK        -0.1800 
     92 C          -7.8860  -27.9000  -49.1704 C.2       16 UNK         0.5000 
     93 O          -8.0352  -29.0953  -48.9133 O.2       16 UNK        -0.5000 
     94 N          -7.4335  -27.4409  -50.3474 N.am      17 UNK        -0.5000 
     95 CA         -7.0065  -28.2176  -51.5143 C.3       17 UNK         0.1400 
     96 CB         -8.1824  -29.0230  -52.1062 C.3       17 UNK        -0.1800 
     97 C          -5.7504  -29.0741  -51.2511 C.2       17 UNK         0.5000 
     98 O          -5.5993  -30.1423  -51.8472 O.2       17 UNK        -0.5000 
     99 N          -4.8623  -28.5854  -50.3747 N.am      18 UNK        -0.5000 
    100 CA        -3.5629  -29.1873  -50.0921 C.3       18 UNK         0.1400 
    101 CB        -3.1046  -28.7978  -48.6760 C.3       18 UNK        -0.1800 
    102 C         -2.5487  -28.7650  -51.1670 C.2       18 UNK         0.5000 
    103 O         -2.0778  -29.6145  -51.9242 O.2       18 UNK        -0.5000 
    104 N         -2.2701  -27.4574  -51.2384 N.am      19 UNK        -0.5000 
    105 CA        -1.3911  -26.8109  -52.2101 C.3       19 UNK         0.1400 
    106 CB         0.0685  -27.2865  -52.0548 C.3       19 UNK        -0.1800 
    107 C         -1.4552  -25.2952  -51.9922 C.2       19 UNK         0.5000 
    108 O         -1.4841  -24.8513  -50.8440 O.2       19 UNK        -0.5000 
    109 N         -1.4185  -24.5265  -53.0855 N.am      20 UNK        -0.5000 
    110 CA        -1.2732  -23.0717  -53.0689 C.3       20 UNK         0.1400 
    111 CB        -1.9903  -22.4819  -54.2964 C.3       20 UNK        -0.1800 
    112 C          0.2252  -22.7277  -53.0401 C.2       20 UNK         0.5000 
    113 O          0.8124  -22.4285  -54.0813 O.2       20 UNK        -0.5000 
    114 N          0.8292  -22.8457  -51.8509 N.am      21 UNK        -0.5000 
    115 CA         2.2779  -22.8152  -51.6210 C.3       21 UNK         0.1400 
    116 CB         2.5544  -23.0856  -50.1340 C.3       21 UNK        -0.1800 
    117 C          3.0170  -21.5460  -52.0981 C.2       21 UNK         0.5000 
    118 O          4.2036  -21.6400  -52.4155 O.2       21 UNK        -0.5000 
    119 N          2.3209  -20.4026  -52.1613 N.am      22 UNK        -0.5000 
    120 CA         2.8382  -19.1429  -52.7243 C.3       22 UNK         0.1400 
    121 C          2.5033  -18.9254  -54.2306 C.2       22 UNK         0.5000 
    122 N          1.8492  -19.8550  -54.9177 N.am      22 UNK        -0.7600 
    123 O          2.8684  -17.9004  -54.8004 O.2       22 UNK        -0.5000 
    124 C124        2.4923  -17.9174  -51.8387 C.3       23 UNK        -0.0398 
    125 S125        0.7166  -17.5176  -51.6922 S.3       23 UNK        -0.2404 
    126 C126        0.8276  -16.2444  -50.3957 C.3       23 UNK        -0.0205 
    127 H127        2.1478   -8.7909  -47.0022 H         1 UNK         0.0600 
    128 H128        1.5399   -8.2268  -48.5628 H         1 UNK         0.0600 
    129 H129        2.2724   -9.8259  -48.4284 H         1 UNK         0.0600 
    130 H130        0.8451  -11.5081  -48.2187 H         1 UNK         0.3000 
    131 H131       -0.9168  -12.7656  -47.9260 H         1 UNK         0.0600 
    132 H132       -3.2224  -11.8740  -48.3520 H         1 UNK         0.0800 
    133 H133       -2.6328  -10.2467  -48.2241 H         1 UNK         0.0800 
    134 H134       -3.8683  -12.6317  -50.7003 H         1 UNK         0.0800 
    135 H135       -2.6756  -12.8164  -51.9606 H         1 UNK         0.0800 
    136 H136       -0.4712  -14.0619  -51.4059 H         1 UNK         0.1150 
    137 H137       -0.8762  -17.1825  -48.5036 H         1 UNK         0.1150 
    138 H138       -3.9429  -14.2202  -48.8889 H         1 UNK         0.1150 
    139 H139       -2.7413  -17.3306  -47.1071 H         1 UNK         0.0800 
    140 H140       -3.3583  -15.7715  -46.6261 H         1 UNK         0.0800 
    141 H141       -3.9515  -17.4409  -50.1041 H         1 UNK         0.0800 
    142 H142       -5.6120  -17.9097  -50.0463 H         1 UNK         0.0800 
    143 H143       -4.2521  -19.8429  -50.3156 H         1 UNK         0.0600 
    144 H144       -2.5590  -18.8630  -48.1711 H         1 UNK         0.3000 
    145 H145       -0.5352  -21.8107  -48.1991 H         1 UNK         0.0600 
    146 H146        1.2803  -20.2272  -48.7681 H         1 UNK         0.0600 
    147 H147        0.2908  -20.5666  -50.1847 H         1 UNK         0.0600 
    148 H148        0.1033  -19.0486  -49.3258 H         1 UNK         0.0600 
    149 H149       -0.0835  -19.3918  -46.8458 H         1 UNK         0.3000 
    150 H150       -2.0377  -19.9407  -43.9846 H         1 UNK         0.0600 
    151 H151       -0.7038  -22.0061  -43.6250 H         1 UNK         0.0600 
    152 H152       -0.0237  -20.6661  -42.7160 H         1 UNK         0.0600 
    153 H153        0.7476  -21.2011  -44.2095 H         1 UNK         0.0600 
    154 H154        0.5991  -18.7871  -44.6757 H         1 UNK         0.3000 
    155 H155       -0.5590  -15.8884  -45.9075 H         1 UNK         0.0600 
    156 H156        0.3183  -14.4188  -44.0789 H         1 UNK         0.0600 
    157 H157        0.0388  -15.7161  -42.9122 H         1 UNK         0.0600 
    158 H158       -1.3153  -14.9767  -43.7543 H         1 UNK         0.0600 
    159 H159        1.9186  -16.1399  -44.6195 H         1 UNK         0.3000 
    160 H160        3.7046  -17.8128  -45.5477 H         1 UNK         0.0600 
    161 H161        3.4504  -17.4724  -48.5821 H         1 UNK         0.0600 
    162 H162        3.5568  -18.9866  -47.7036 H         1 UNK         0.0600 
    163 H163        4.9318  -17.8927  -47.7260 H         1 UNK         0.0600 
    164 H164        4.2433  -15.6888  -45.3523 H         1 UNK         0.3000 
    165 H165        4.8868  -13.1189  -47.2572 H         1 UNK         0.0600 
    166 H166        2.0576  -12.7622  -46.1408 H         1 UNK         0.0600 
    167 H167        3.2238  -11.4533  -46.3448 H         1 UNK         0.0600 
    168 H168        2.6230  -12.3204  -47.7491 H         1 UNK         0.0600 
    169 H169        3.9064  -13.1577  -44.5053 H         1 UNK         0.3000 
    170 H170        6.7155  -14.7109  -43.1218 H         1 UNK         0.0600 
    171 H171        7.7088  -12.4303  -43.4413 H         1 UNK         0.0600 
    172 H172        6.1726  -11.6959  -42.9931 H         1 UNK         0.0600 
    173 H173        7.0824  -12.6391  -41.8135 H         1 UNK         0.0600 
    174 H174        4.7067  -13.3169  -41.7649 H         1 UNK         0.3000 
    175 H175        2.1296  -15.7559  -41.8038 H         1 UNK         0.0600 
    176 H176        4.1537  -14.9300  -39.6649 H         1 UNK         0.0600 
    177 H177        2.5685  -15.6428  -39.3708 H         1 UNK         0.0600 
    178 H178        3.8117  -16.5684  -40.1971 H         1 UNK         0.0600 
    179 H179        1.2038  -13.7782  -41.5879 H         1 UNK         0.3000 
    180 H180        1.1920  -11.4620  -39.7827 H         1 UNK         0.0600 
    181 H181        2.8189   -9.9564  -41.8944 H         1 UNK         0.0600 
    182 H182        3.0270   -9.8747  -40.1513 H         1 UNK         0.0600 
    183 H183        1.5651   -9.2386  -40.8836 H         1 UNK         0.0600 
    184 H184       -0.4236  -11.5894  -41.2638 H         1 UNK         0.3000 
    185 H185       -1.3937  -12.4230  -43.4429 H         1 UNK         0.0600 
    186 H186       -2.6304  -10.2684  -43.8847 H         1 UNK         0.0600 
    187 H187       -1.8342  -10.1982  -42.3282 H         1 UNK         0.0600 
    188 H188       -1.1308   -9.3631  -43.7084 H         1 UNK         0.0600 
    189 H189        0.3007  -11.3497  -45.4949 H         1 UNK         0.3000 
    190 H190       -4.2129  -20.1803  -46.8265 H         1 UNK         0.3000 
    191 H191       -6.8960  -21.2788  -46.6012 H         1 UNK         0.0600 
    192 H192       -5.7485  -20.2494  -44.6440 H         1 UNK         0.0600 
    193 H193       -6.1618  -21.9286  -44.3340 H         1 UNK         0.0600 
    194 H194       -4.5004  -21.4924  -44.6993 H         1 UNK         0.0600 
    195 H195       -3.5678  -22.5747  -46.9625 H         1 UNK         0.3000 
    196 H196       -4.2527  -25.3281  -47.0981 H         1 UNK         0.0600 
    197 H197       -1.9906  -25.5691  -48.1124 H         1 UNK         0.0600 
    198 H198       -1.9458  -24.5132  -46.7077 H         1 UNK         0.0600 
    199 H199       -1.8862  -23.8309  -48.3302 H         1 UNK         0.0600 
    200 H200       -4.1084  -22.8196  -49.6606 H         1 UNK         0.3000 
    201 H201       -4.7519  -24.4857  -51.8538 H         1 UNK         0.0600 
    202 H202       -3.9187  -22.0846  -51.9925 H         1 UNK         0.0600 
    203 H203       -5.5174  -21.5372  -51.5147 H         1 UNK         0.0600 
    204 H204       -5.3056  -22.4161  -53.0171 H         1 UNK         0.0600 
    205 H205       -6.8986  -22.5951  -49.6576 H         1 UNK         0.3000 
    206 H206       -9.3685  -23.3631  -50.8115 H         1 UNK         0.0600 
    207 H207       -9.1043  -21.4168  -49.2940 H         1 UNK         0.0600 
    208 H208      -10.3320  -22.5123  -48.6768 H         1 UNK         0.0600 
    209 H209       -8.7336  -22.4867  -47.9440 H         1 UNK         0.0600 
    210 H210       -7.4070  -24.9055  -48.2696 H         1 UNK         0.3000 
    211 H211       -9.2259  -27.0736  -47.7184 H         1 UNK         0.0600 
    212 H212       -6.2147  -26.7947  -47.2152 H         1 UNK         0.0600 
    213 H213       -7.2776  -27.9798  -46.4687 H         1 UNK         0.0600 
    214 H214       -7.4863  -26.2729  -46.1109 H         1 UNK         0.0600 
    215 H215       -7.3421  -26.4382  -50.4538 H         1 UNK         0.3000 
    216 H216       -6.7080  -27.4851  -52.2651 H         1 UNK         0.0600 
    217 H217       -9.0475  -28.3838  -52.2828 H         1 UNK         0.0600 
    218 H218       -8.4924  -29.8346  -51.4476 H         1 UNK         0.0600 
    219 H219       -7.9088  -29.4675  -53.0638 H         1 UNK         0.0600 
    220 H220       -5.0324  -27.6672  -49.9700 H         1 UNK         0.3000 
    221 H221       -3.6544  -30.2753  -50.1212 H         1 UNK         0.0600 
    222 H222       -3.0257  -27.7189  -48.5493 H         1 UNK         0.0600 
    223 H223       -3.8031  -29.1675  -47.9251 H         1 UNK         0.0600 
    224 H224       -2.1277  -29.2274  -48.4514 H         1 UNK         0.0600 
    225 H225       -2.7106  -26.8194  -50.5867 H         1 UNK         0.3000 
    226 H226       -1.7500  -27.0453  -53.2142 H         1 UNK         0.0600 
    227 H227        0.1831  -28.3395  -52.3092 H         1 UNK         0.0600 
    228 H228        0.7344  -26.7281  -52.7141 H         1 UNK         0.0600 
    229 H229        0.4271  -27.1471  -51.0341 H         1 UNK         0.0600 
    230 H230       -1.3526  -24.9662  -53.9925 H         1 UNK         0.3000 
    231 H231       -1.7320  -22.6549  -52.1707 H         1 UNK         0.0600 
    232 H232       -1.9085  -21.3943  -54.3084 H         1 UNK         0.0600 
    233 H233       -3.0515  -22.7288  -54.2894 H         1 UNK         0.0600 
    234 H234       -1.5708  -22.8544  -55.2318 H         1 UNK         0.0600 
    235 H235        0.2598  -23.1399  -51.0680 H         1 UNK         0.3000 
    236 H236        2.6985  -23.6472  -52.1896 H         1 UNK         0.0600 
    237 H237        2.1485  -24.0496  -49.8266 H         1 UNK         0.0600 
    238 H238        3.6262  -23.1077  -49.9324 H         1 UNK         0.0600 
    239 H239        2.1177  -22.3200  -49.4947 H         1 UNK         0.0600 
    240 H240        1.3444  -20.4067  -51.9093 H         1 UNK         0.3000 
    241 H241        3.9283  -19.1951  -52.7126 H         1 UNK         0.0600 
    242 H242        1.5607  -20.7320  -54.4930 H         1 UNK         0.3800 
    243 H243        1.6537  -19.6945  -55.8927 H         1 UNK         0.3800 
    244 H244        3.0122  -17.0308  -52.2059 H         1 UNK         0.0800 
    245 H245        2.8844  -18.0908  -50.8362 H         1 UNK         0.0800 
    246 H246        1.3122  -16.6682  -49.5152 H         1 UNK         0.0800 
    247 H247        1.4739  -15.4335  -50.7355 H         1 UNK         0.0800 
@<TRIPOS>BOND
     1    1    2 1    
     2    1  127 1    
     3    1  128 1    
     4    1  129 1    
     5    2    3 2    
     6    2    4 am   BACKBONE|DICT|INTERRES
     7    4    5 1    
     8    4  130 1    
     9    5    6 1    
    10    5   65 1    
    11    5  131 1    
    12    6    7 1    
    13    6  132 1    
    14    6  133 1    
    15    7    8 1    
    16    8    9 1    
    17    8  134 1    
    18    8  135 1    
    19    9   10 ar   
    20    9   14 ar   
    21   10   11 ar   
    22   10  136 1    
    23   11   12 ar   
    24   11  126 1    
    25   12   13 ar   
    26   12  137 1    
    27   13   14 ar   
    28   13   15 1    
    29   14  138 1    
    30   15   16 1    
    31   15  139 1    
    32   15  140 1    
    33   16   17 1    
    34   17   18 1    
    35   17  141 1    
    36   17  142 1    
    37   18   19 1    
    38   18   67 1    
    39   18  143 1    
    40   19   20 am   BACKBONE|DICT|INTERRES
    41   19  144 1    
    42   20   21 2    
    43   20   22 1    
    44   22   23 1    
    45   22   24 1    
    46   22  145 1    
    47   23  146 1    
    48   23  147 1    
    49   23  148 1    
    50   24   25 am   BACKBONE|DICT|INTERRES
    51   24  149 1    
    52   25   26 2    
    53   25   27 1    
    54   27   28 1    
    55   27   29 1    
    56   27  150 1    
    57   28  151 1    
    58   28  152 1    
    59   28  153 1    
    60   29   30 am   BACKBONE|DICT|INTERRES
    61   29  154 1    
    62   30   31 2    
    63   30   32 1    
    64   32   33 1    
    65   32   34 1    
    66   32  155 1    
    67   33  156 1    
    68   33  157 1    
    69   33  158 1    
    70   34   35 am   BACKBONE|DICT|INTERRES
    71   34  159 1    
    72   35   36 2    
    73   35   37 1    
    74   37   38 1    
    75   37   39 1    
    76   37  160 1    
    77   38  161 1    
    78   38  162 1    
    79   38  163 1    
    80   39   40 am   BACKBONE|DICT|INTERRES
    81   39  164 1    
    82   40   41 2    
    83   40   42 1    
    84   42   43 1    
    85   42   44 1    
    86   42  165 1    
    87   43  166 1    
    88   43  167 1    
    89   43  168 1    
    90   44   45 am   BACKBONE|DICT|INTERRES
    91   44  169 1    
    92   45   46 2    
    93   45   47 1    
    94   47   48 1    
    95   47   49 1    
    96   47  170 1    
    97   48  171 1    
    98   48  172 1    
    99   48  173 1    
   100   49   50 am   BACKBONE|DICT|INTERRES
   101   49  174 1    
   102   50   51 2    
   103   50   52 1    
   104   52   53 1    
   105   52   54 1    
   106   52  175 1    
   107   53  176 1    
   108   53  177 1    
   109   53  178 1    
   110   54   55 am   BACKBONE|DICT|INTERRES
   111   54  179 1    
   112   55   56 2    
   113   55   57 1    
   114   57   58 1    
   115   57   59 1    
   116   57  180 1    
   117   58  181 1    
   118   58  182 1    
   119   58  183 1    
   120   59   60 am   BACKBONE|DICT|INTERRES
   121   59  184 1    
   122   60   61 2    
   123   60   62 1    
   124   62   63 1    
   125   62   64 1    
   126   62  185 1    
   127   63  186 1    
   128   63  187 1    
   129   63  188 1    
   130   64   65 am   BACKBONE|DICT|INTERRES
   131   64  189 1    
   132   65   66 2    
   133   67   68 2    
   134   67   69 am   BACKBONE|DICT|INTERRES
   135   69   70 1    
   136   69  190 1    
   137   70   71 1    
   138   70   72 1    
   139   70  191 1    
   140   71  192 1    
   141   71  193 1    
   142   71  194 1    
   143   72   73 2    
   144   72   74 am   BACKBONE|DICT|INTERRES
   145   74   75 1    
   146   74  195 1    
   147   75   76 1    
   148   75   77 1    
   149   75  196 1    
   150   76  197 1    
   151   76  198 1    
   152   76  199 1    
   153   77   78 2    
   154   77   79 am   BACKBONE|DICT|INTERRES
   155   79   80 1    
   156   79  200 1    
   157   80   81 1    
   158   80   82 1    
   159   80  201 1    
   160   81  202 1    
   161   81  203 1    
   162   81  204 1    
   163   82   83 2    
   164   82   84 am   BACKBONE|DICT|INTERRES
   165   84   85 1    
   166   84  205 1    
   167   85   86 1    
   168   85   87 1    
   169   85  206 1    
   170   86  207 1    
   171   86  208 1    
   172   86  209 1    
   173   87   88 2    
   174   87   89 am   BACKBONE|DICT|INTERRES
   175   89   90 1    
   176   89  210 1    
   177   90   91 1    
   178   90   92 1    
   179   90  211 1    
   180   91  212 1    
   181   91  213 1    
   182   91  214 1    
   183   92   93 2    
   184   92   94 am   BACKBONE|DICT|INTERRES
   185   94   95 1    
   186   94  215 1    
   187   95   96 1    
   188   95   97 1    
   189   95  216 1    
   190   96  217 1    
   191   96  218 1    
   192   96  219 1    
   193   97   98 2    
   194   97   99 am   BACKBONE|DICT|INTERRES
   195   99  100 1    
   196   99  220 1    
   197  100  101 1    
   198  100  102 1    
   199  100  221 1    
   200  101  222 1    
   201  101  223 1    
   202  101  224 1    
   203  102  103 2    
   204  102  104 am   BACKBONE|DICT|INTERRES
   205  104  105 1    
   206  104  225 1    
   207  105  106 1    
   208  105  107 1    
   209  105  226 1    
   210  106  227 1    
   211  106  228 1    
   212  106  229 1    
   213  107  108 2    
   214  107  109 am   BACKBONE|DICT|INTERRES
   215  109  110 1    
   216  109  230 1    
   217  110  111 1    
   218  110  112 1    
   219  110  231 1    
   220  111  232 1    
   221  111  233 1    
   222  111  234 1    
   223  112  113 2    
   224  112  114 am   BACKBONE|DICT|INTERRES
   225  114  115 1    
   226  114  235 1    
   227  115  116 1    
   228  115  117 1    
   229  115  236 1    
   230  116  237 1    
   231  116  238 1    
   232  116  239 1    
   233  117  118 2    
   234  117  119 am   BACKBONE|DICT|INTERRES
   235  119  120 1    
   236  119  240 1    
   237  120  121 1    
   238  120  124 1    
   239  120  241 1    
   240  121  122 am   BACKBONE|DICT|INTERRES
   241  121  123 2    
   242  122  242 1    
   243  122  243 1    
   244  124  125 1    
   245  124  244 1    
   246  124  245 1    
   247  125  126 1    
   248  126  246 1    
   249  126  247 1    
@<TRIPOS>SUBSTRUCTURE
     1 UNK         1 GROUP             0       ****    0 ROOT    
