@<TRIPOS>MOLECULE
3R540
247   249    1
SMALL
USER_CHARGES


@<TRIPOS>ATOM
      1 CA         -4.3706  -14.0312  -49.8422 C.3       0 UNK        -0.1800 
      2 C          -3.1307  -13.9026  -48.9703 C.2       0 UNK         0.5000 
      3 O          -3.0398  -12.9741  -48.1671 O.2       0 UNK        -0.5000 
      4 N          -2.1938  -14.8540  -49.0849 N.am      1 UNK        -0.5000 
      5 CA         -1.0010  -14.9495  -48.2338 C.3       1 UNK         0.1400 
      6 C6          0.0188  -16.0167  -48.7005 C.3       23 UNK        -0.0398 
      7 S7          0.5267  -15.9141  -50.4429 S.3       23 UNK        -0.2404 
      8 C8          2.0666  -16.9056  -50.4177 C.3       23 UNK        -0.0205 
      9 C9          1.8628  -18.3930  -50.7072 C.ar      23 UNK        -0.0193 
     10 C10         1.2080  -18.7845  -51.8792 C.ar      23 UNK        -0.1150 
     11 C11         1.1328  -20.1306  -52.2412 C.ar      23 UNK        -0.0193 
     12 C12         1.7004  -21.0962  -51.4079 C.ar      23 UNK        -0.1150 
     13 C13         2.3562  -20.7340  -50.2279 C.ar      23 UNK        -0.0193 
     14 C14         2.4308  -19.3762  -49.8809 C.ar      23 UNK        -0.1150 
     15 C15         3.0598  -21.8304  -49.4211 C.3       23 UNK        -0.0205 
     16 S16         2.8834  -21.7337  -47.6071 S.3       23 UNK        -0.2404 
     17 C17         1.0799  -21.8336  -47.3842 C.3       23 UNK        -0.0398 
     18 CA          0.5097  -23.2040  -46.9559 C.3       11 UNK         0.1400 
     19 N           1.1676  -23.7668  -45.7743 N.am      11 UNK        -0.5000 
     20 C           0.9940  -25.0273  -45.3490 C.2       10 UNK         0.5000 
     21 O           0.2918  -25.8531  -45.9330 O.2       10 UNK        -0.5000 
     22 CA          1.6785  -25.4178  -44.0250 C.3       10 UNK         0.1400 
     23 CB          3.1293  -25.8543  -44.2771 C.3       10 UNK        -0.1800 
     24 N           1.6645  -24.3414  -43.0329 N.am      10 UNK        -0.5000 
     25 C           0.5577  -23.8028  -42.5012 C.2       9 UNK         0.5000 
     26 O          -0.5797  -24.1956  -42.7560 O.2       9 UNK        -0.5000 
     27 CA          0.7443  -22.5897  -41.5689 C.3       9 UNK         0.1400 
     28 CB          0.7790  -23.0425  -40.1020 C.3       9 UNK        -0.1800 
     29 N           1.9413  -21.7925  -41.8570 N.am      9 UNK        -0.5000 
     30 C           2.1902  -21.1702  -43.0169 C.2       8 UNK         0.5000 
     31 O           1.4444  -21.2311  -43.9994 O.2       8 UNK        -0.5000 
     32 CA          3.5316  -20.4190  -43.1042 C.3       8 UNK         0.1400 
     33 CB          4.6722  -21.4094  -43.3891 C.3       8 UNK        -0.1800 
     34 N           3.5114  -19.4202  -44.1686 N.am      8 UNK        -0.5000 
     35 C           2.8820  -18.2416  -44.1030 C.2       7 UNK         0.5000 
     36 O           2.3569  -17.7900  -43.0819 O.2       7 UNK        -0.5000 
     37 CA          2.7943  -17.4773  -45.4326 C.3       7 UNK         0.1400 
     38 CB          1.7387  -18.1250  -46.3351 C.3       7 UNK        -0.1800 
     39 N           2.4464  -16.0720  -45.2433 N.am      7 UNK        -0.5000 
     40 C           3.3355  -15.0806  -45.1123 C.2       6 UNK         0.5000 
     41 O           4.5558  -15.2458  -45.1374 O.2       6 UNK        -0.5000 
     42 CA          2.7697  -13.6603  -44.9480 C.3       6 UNK         0.1400 
     43 CB          2.6645  -12.9694  -46.3172 C.3       6 UNK        -0.1800 
     44 N           1.4464  -13.6601  -44.3304 N.am      6 UNK        -0.5000 
     45 C           1.2042  -13.5796  -43.0166 C.2       5 UNK         0.5000 
     46 O           2.0879  -13.5319  -42.1589 O.2       5 UNK        -0.5000 
     47 CA         -0.2861  -13.5211  -42.6144 C.3       5 UNK         0.1400 
     48 CB         -0.5143  -12.9873  -41.1853 C.3       5 UNK        -0.1800 
     49 N          -1.0947  -12.7813  -43.5910 N.am      5 UNK        -0.5000 
     50 C          -0.9795  -11.4922  -43.9487 C.2       4 UNK         0.5000 
     51 O          -0.2173  -10.6903  -43.4080 O.2       4 UNK        -0.5000 
     52 CA         -1.8383  -11.0229  -45.1413 C.3       4 UNK         0.1400 
     53 CB         -0.9719  -10.9304  -46.4076 C.3       4 UNK        -0.1800 
     54 N          -2.9763  -11.9011  -45.4186 N.am      4 UNK        -0.5000 
     55 C          -4.0748  -11.9948  -44.6566 C.2       3 UNK         0.5000 
     56 O          -4.2898  -11.2881  -43.6716 O.2       3 UNK        -0.5000 
     57 CA         -5.0786  -13.0968  -45.0392 C.3       3 UNK         0.1400 
     58 CB         -6.0196  -12.6200  -46.1562 C.3       3 UNK        -0.1800 
     59 N          -4.4059  -14.3290  -45.4566 N.am      3 UNK        -0.5000 
     60 C          -3.7446  -15.1524  -44.6299 C.2       2 UNK         0.5000 
     61 O          -3.6558  -14.9784  -43.4152 O.2       2 UNK        -0.5000 
     62 CA         -3.0329  -16.3544  -45.2748 C.3       2 UNK         0.1400 
     63 CB         -4.0023  -17.5382  -45.4282 C.3       2 UNK        -0.1800 
     64 N          -2.4600  -16.0207  -46.5782 N.am      2 UNK        -0.5000 
     65 C          -1.3844  -15.2415  -46.7684 C.2       1 UNK         0.5000 
     66 O          -0.7131  -14.7589  -45.8561 O.2       1 UNK        -0.5000 
     67 C          -1.0021  -23.0328  -46.7124 C.2       11 UNK         0.5000 
     68 O          -1.7959  -23.2502  -47.6273 O.2       11 UNK        -0.5000 
     69 N          -1.3678  -22.6056  -45.4951 N.am      12 UNK        -0.5000 
     70 CA         -2.7502  -22.3722  -45.0795 C.3       12 UNK         0.1400 
     71 CB         -2.7693  -21.5499  -43.7830 C.3       12 UNK        -0.1800 
     72 C          -3.5333  -23.6857  -44.9252 C.2       12 UNK         0.5000 
     73 O          -4.6742  -23.7630  -45.3787 O.2       12 UNK        -0.5000 
     74 N          -2.8875  -24.7111  -44.3518 N.am      13 UNK        -0.5000 
     75 CA         -3.4155  -26.0714  -44.2170 C.3       13 UNK         0.1400 
     76 CB         -2.4425  -26.9097  -43.3743 C.3       13 UNK        -0.1800 
     77 C          -3.6809  -26.7528  -45.5735 C.2       13 UNK         0.5000 
     78 O          -4.6523  -27.4982  -45.7023 O.2       13 UNK        -0.5000 
     79 N          -2.8339  -26.4540  -46.5673 N.am      14 UNK        -0.5000 
     80 CA         -2.9827  -26.8924  -47.9557 C.3       14 UNK         0.1400 
     81 CB         -1.6053  -26.8177  -48.6356 C.3       14 UNK        -0.1800 
     82 C          -4.0151  -26.0670  -48.7538 C.2       14 UNK         0.5000 
     83 O          -4.3398  -26.4490  -49.8780 O.2       14 UNK        -0.5000 
     84 N          -4.4694  -24.9352  -48.1900 N.am      15 UNK        -0.5000 
     85 CA         -5.3097  -23.8890  -48.7924 C.3       15 UNK         0.1400 
     86 CB         -6.6877  -24.4389  -49.2102 C.3       15 UNK        -0.1800 
     87 C          -4.6162  -23.1131  -49.9345 C.2       15 UNK         0.5000 
     88 O          -5.2608  -22.3208  -50.6228 O.2       15 UNK        -0.5000 
     89 N          -3.3020  -23.3088  -50.0886 N.am      16 UNK        -0.5000 
     90 CA         -2.4548  -22.6693  -51.0879 C.3       16 UNK         0.1400 
     91 CB         -1.1071  -23.4043  -51.1291 C.3       16 UNK        -0.1800 
     92 C          -2.2686  -21.1732  -50.7934 C.2       16 UNK         0.5000 
     93 O          -2.3443  -20.3584  -51.7112 O.2       16 UNK        -0.5000 
     94 N          -2.0985  -20.8339  -49.5078 N.am      17 UNK        -0.5000 
     95 CA         -2.0124  -19.4500  -49.0363 C.3       17 UNK         0.1400 
     96 CB         -1.3667  -19.4093  -47.6464 C.3       17 UNK        -0.1800 
     97 C          -3.3658  -18.7235  -49.0141 C.2       17 UNK         0.5000 
     98 O          -3.3788  -17.4931  -49.0301 O.2       17 UNK        -0.5000 
     99 N          -4.4710  -19.4783  -48.9667 N.am      18 UNK        -0.5000 
    100 CA        -5.8240  -18.9387  -49.0947 C.3       18 UNK         0.1400 
    101 CB        -6.8418  -19.9430  -48.5321 C.3       18 UNK        -0.1800 
    102 C         -6.1361  -18.5799  -50.5584 C.2       18 UNK         0.5000 
    103 O         -6.7416  -17.5384  -50.8121 O.2       18 UNK        -0.5000 
    104 N         -5.6867  -19.4322  -51.4919 N.am      19 UNK        -0.5000 
    105 CA        -5.7546  -19.1949  -52.9328 C.3       19 UNK         0.1400 
    106 CB        -5.4439  -20.5016  -53.6799 C.3       19 UNK        -0.1800 
    107 C         -4.8050  -18.0719  -53.3890 C.2       19 UNK         0.5000 
    108 O         -5.1999  -17.2445  -54.2110 O.2       19 UNK        -0.5000 
    109 N         -3.5702  -18.0796  -52.8627 N.am      20 UNK        -0.5000 
    110 CA        -2.4347  -17.1801  -53.1179 C.3       20 UNK         0.1400 
    111 CB        -2.7715  -15.7235  -52.7628 C.3       20 UNK        -0.1800 
    112 C         -1.8419  -17.2923  -54.5358 C.2       20 UNK         0.5000 
    113 O         -0.6202  -17.3083  -54.6819 O.2       20 UNK        -0.5000 
    114 N         -2.7028  -17.4127  -55.5512 N.am      21 UNK        -0.5000 
    115 CA        -2.3611  -17.8491  -56.8990 C.3       21 UNK         0.1400 
    116 CB        -3.4763  -17.4125  -57.8639 C.3       21 UNK        -0.1800 
    117 C         -2.1786  -19.3764  -56.8740 C.2       21 UNK         0.5000 
    118 O         -3.1670  -20.1115  -56.9246 O.2       21 UNK        -0.5000 
    119 N         -0.9259  -19.8127  -56.7067 N.am      22 UNK        -0.5000 
    120 CA        -0.5234  -21.2175  -56.5495 C.3       22 UNK         0.1400 
    121 C         -0.9091  -22.1159  -57.7598 C.2       22 UNK         0.5000 
    122 N         -1.3219  -23.3528  -57.5178 N.am      22 UNK        -0.7600 
    123 O         -0.7902  -21.7171  -58.9165 O.2       22 UNK        -0.5000 
    124 C124        0.9966  -21.3457  -56.2649 C.3       23 UNK        -0.0398 
    125 S125        1.6627  -20.2793  -54.9367 S.3       23 UNK        -0.2404 
    126 C126        0.4981  -20.5381  -53.5622 C.3       23 UNK        -0.0205 
    127 H127       -5.2255  -13.5565  -49.3609 H         1 UNK         0.0600 
    128 H128       -4.6260  -15.0773  -50.0146 H         1 UNK         0.0600 
    129 H129       -4.2079  -13.5457  -50.8042 H         1 UNK         0.0600 
    130 H130       -2.3572  -15.6400  -49.7006 H         1 UNK         0.3000 
    131 H131       -0.5048  -13.9770  -48.2564 H         1 UNK         0.0600 
    132 H132        0.9178  -15.9059  -48.0945 H         1 UNK         0.0800 
    133 H133       -0.3552  -17.0240  -48.5336 H         1 UNK         0.0800 
    134 H134        2.7296  -16.5090  -51.1877 H         1 UNK         0.0800 
    135 H135        2.5932  -16.7591  -49.4741 H         1 UNK         0.0800 
    136 H136        0.8017  -18.0335  -52.5416 H         1 UNK         0.1150 
    137 H137        1.6725  -22.1344  -51.7059 H         1 UNK         0.1150 
    138 H138        2.9773  -19.0857  -48.9954 H         1 UNK         0.1150 
    139 H139        2.7109  -22.8157  -49.7344 H         1 UNK         0.0800 
    140 H140        4.1228  -21.7967  -49.6620 H         1 UNK         0.0800 
    141 H141        0.5983  -21.5085  -48.3070 H         1 UNK         0.0800 
    142 H142        0.8300  -21.0963  -46.6228 H         1 UNK         0.0800 
    143 H143        0.6406  -23.9032  -47.7847 H         1 UNK         0.0600 
    144 H144        1.7178  -23.1243  -45.2194 H         1 UNK         0.3000 
    145 H145        1.1318  -26.2657  -43.6070 H         1 UNK         0.0600 
    146 H146        3.5991  -26.2109  -43.3603 H         1 UNK         0.0600 
    147 H147        3.1712  -26.6695  -45.0007 H         1 UNK         0.0600 
    148 H148        3.7345  -25.0356  -44.6690 H         1 UNK         0.0600 
    149 H149        2.5581  -23.9572  -42.7651 H         1 UNK         0.3000 
    150 H150       -0.1227  -21.9403  -41.7050 H         1 UNK         0.0600 
    151 H151        1.6456  -23.6717  -39.8951 H         1 UNK         0.0600 
    152 H152       -0.1126  -23.6183  -39.8496 H         1 UNK         0.0600 
    153 H153        0.8137  -22.1883  -39.4255 H         1 UNK         0.0600 
    154 H154        2.6113  -21.7088  -41.1059 H         1 UNK         0.3000 
    155 H155        3.7211  -19.9200  -42.1515 H         1 UNK         0.0600 
    156 H156        4.5172  -21.9438  -44.3278 H         1 UNK         0.0600 
    157 H157        4.7561  -22.1545  -42.5970 H         1 UNK         0.0600 
    158 H158        5.6324  -20.8968  -43.4509 H         1 UNK         0.0600 
    159 H159        3.8658  -19.7284  -45.0622 H         1 UNK         0.3000 
    160 H160        3.7629  -17.5562  -45.9315 H         1 UNK         0.0600 
    161 H161        0.7257  -17.9494  -45.9714 H         1 UNK         0.0600 
    162 H162        1.8891  -19.1994  -46.3905 H         1 UNK         0.0600 
    163 H163        1.8163  -17.7559  -47.3533 H         1 UNK         0.0600 
    164 H164        1.4656  -15.8553  -45.1390 H         1 UNK         0.3000 
    165 H165        3.4644  -13.0892  -44.3283 H         1 UNK         0.0600 
    166 H166        2.3092  -11.9439  -46.2137 H         1 UNK         0.0600 
    167 H167        3.6363  -12.9286  -46.8109 H         1 UNK         0.0600 
    168 H168        1.9786  -13.4952  -46.9830 H         1 UNK         0.0600 
    169 H169        0.6499  -13.7645  -44.9524 H         1 UNK         0.3000 
    170 H170       -0.6470  -14.5503  -42.6426 H         1 UNK         0.0600 
    171 H171       -0.0286  -13.6274  -40.4481 H         1 UNK         0.0600 
    172 H172       -0.1142  -11.9812  -41.0576 H         1 UNK         0.0600 
    173 H173       -1.5763  -12.9603  -40.9413 H         1 UNK         0.0600 
    174 H174       -1.7362  -13.3472  -44.1287 H         1 UNK         0.3000 
    175 H175       -2.2173  -10.0260  -44.9074 H         1 UNK         0.0600 
    176 H176       -0.1281  -10.2556  -46.2581 H         1 UNK         0.0600 
    177 H177       -0.5680  -11.9037  -46.6890 H         1 UNK         0.0600 
    178 H178       -1.5468  -10.5505  -47.2524 H         1 UNK         0.0600 
    179 H179       -2.9190  -12.4632  -46.2629 H         1 UNK         0.3000 
    180 H180       -5.6842  -13.3193  -44.1579 H         1 UNK         0.0600 
    181 H181       -5.4748  -12.3689  -47.0665 H         1 UNK         0.0600 
    182 H182       -6.5676  -11.7289  -45.8478 H         1 UNK         0.0600 
    183 H183       -6.7562  -13.3841  -46.4052 H         1 UNK         0.0600 
    184 H184       -4.3999  -14.5294  -46.4452 H         1 UNK         0.3000 
    185 H185       -2.2225  -16.6595  -44.6091 H         1 UNK         0.0600 
    186 H186       -4.4766  -17.7806  -44.4763 H         1 UNK         0.0600 
    187 H187       -4.7955  -17.3209  -46.1445 H         1 UNK         0.0600 
    188 H188       -3.4854  -18.4363  -45.7637 H         1 UNK         0.0600 
    189 H189       -2.9349  -16.3867  -47.3976 H         1 UNK         0.3000 
    190 H190       -0.6488  -22.4416  -44.8035 H         1 UNK         0.3000 
    191 H191       -3.2442  -21.7839  -45.8558 H         1 UNK         0.0600 
    192 H192       -2.2392  -20.6052  -43.9076 H         1 UNK         0.0600 
    193 H193       -3.7924  -21.3124  -43.4892 H         1 UNK         0.0600 
    194 H194       -2.3079  -22.0875  -42.9548 H         1 UNK         0.0600 
    195 H195       -1.9688  -24.5421  -43.9482 H         1 UNK         0.3000 
    196 H196       -4.3667  -26.0096  -43.6845 H         1 UNK         0.0600 
    197 H197       -2.8143  -27.9264  -43.2413 H         1 UNK         0.0600 
    198 H198       -2.3098  -26.4792  -42.3815 H         1 UNK         0.0600 
    199 H199       -1.4600  -26.9759  -43.8434 H         1 UNK         0.0600 
    200 H200       -2.0324  -25.8717  -46.3609 H         1 UNK         0.3000 
    201 H201       -3.3140  -27.9328  -47.9656 H         1 UNK         0.0600 
    202 H202       -1.6548  -27.1687  -49.6671 H         1 UNK         0.0600 
    203 H203       -0.8761  -27.4402  -48.1167 H         1 UNK         0.0600 
    204 H204       -1.2191  -25.7979  -48.6538 H         1 UNK         0.0600 
    205 H205       -4.1548  -24.7269  -47.2503 H         1 UNK         0.3000 
    206 H206       -5.4794  -23.1570  -48.0018 H         1 UNK         0.0600 
    207 H207       -7.1620  -24.9776  -48.3898 H         1 UNK         0.0600 
    208 H208       -7.3597  -23.6291  -49.4968 H         1 UNK         0.0600 
    209 H209       -6.6159  -25.1158  -50.0616 H         1 UNK         0.0600 
    210 H210       -2.8322  -23.8846  -49.4020 H         1 UNK         0.3000 
    211 H211       -2.9374  -22.7700  -52.0623 H         1 UNK         0.0600 
    212 H212       -0.5344  -23.2599  -50.2120 H         1 UNK         0.0600 
    213 H213       -0.4988  -23.0525  -51.9591 H         1 UNK         0.0600 
    214 H214       -1.2469  -24.4764  -51.2694 H         1 UNK         0.0600 
    215 H215       -2.0725  -21.5739  -48.8158 H         1 UNK         0.3000 
    216 H216       -1.3706  -18.8913  -49.7218 H         1 UNK         0.0600 
    217 H217       -1.5374  -18.4612  -47.1419 H         1 UNK         0.0600 
    218 H218       -0.2897  -19.5089  -47.7372 H         1 UNK         0.0600 
    219 H219       -1.7464  -20.1893  -46.9895 H         1 UNK         0.0600 
    220 H220       -4.3744  -20.4816  -48.9662 H         1 UNK         0.3000 
    221 H221       -5.8942  -18.0239  -48.5016 H         1 UNK         0.0600 
    222 H222       -6.8585  -20.8722  -49.1008 H         1 UNK         0.0600 
    223 H223       -6.6207  -20.1884  -47.4933 H         1 UNK         0.0600 
    224 H224       -7.8497  -19.5274  -48.5602 H         1 UNK         0.0600 
    225 H225       -5.2621  -20.3034  -51.1956 H         1 UNK         0.3000 
    226 H226       -6.7744  -18.8945  -53.1824 H         1 UNK         0.0600 
    227 H227       -5.5008  -20.3577  -54.7598 H         1 UNK         0.0600 
    228 H228       -4.4435  -20.8709  -53.4520 H         1 UNK         0.0600 
    229 H229       -6.1554  -21.2844  -53.4164 H         1 UNK         0.0600 
    230 H230       -3.3272  -18.8785  -52.2814 H         1 UNK         0.3000 
    231 H231       -1.6539  -17.5078  -52.4295 H         1 UNK         0.0600 
    232 H232       -3.5311  -15.3028  -53.4218 H         1 UNK         0.0600 
    233 H233       -1.8860  -15.0906  -52.8348 H         1 UNK         0.0600 
    234 H234       -3.1365  -15.6578  -51.7413 H         1 UNK         0.0600 
    235 H235       -3.6919  -17.3813  -55.3204 H         1 UNK         0.3000 
    236 H236       -1.4287  -17.3768  -57.2161 H         1 UNK         0.0600 
    237 H237       -3.5638  -16.3264  -57.8962 H         1 UNK         0.0600 
    238 H238       -3.2678  -17.7534  -58.8787 H         1 UNK         0.0600 
    239 H239       -4.4472  -17.8160  -57.5732 H         1 UNK         0.0600 
    240 H240       -0.1833  -19.1338  -56.6156 H         1 UNK         0.3000 
    241 H241       -1.0651  -21.5940  -55.6802 H         1 UNK         0.0600 
    242 H242       -1.4198  -23.7077  -56.5791 H         1 UNK         0.3800 
    243 H243       -1.5586  -23.9491  -58.2959 H         1 UNK         0.3800 
    244 H244        1.2416  -22.3786  -56.0112 H         1 UNK         0.0800 
    245 H245        1.5662  -21.1184  -57.1681 H         1 UNK         0.0800 
    246 H246       -0.4118  -19.9612  -53.7322 H         1 UNK         0.0800 
    247 H247        0.2027  -21.5860  -53.5345 H         1 UNK         0.0800 
@<TRIPOS>BOND
     1    1    2 1    
     2    1  127 1    
     3    1  128 1    
     4    1  129 1    
     5    2    3 2    
     6    2    4 am   BACKBONE|DICT|INTERRES
     7    4    5 1    
     8    4  130 1    
     9    5    6 1    
    10    5   65 1    
    11    5  131 1    
    12    6    7 1    
    13    6  132 1    
    14    6  133 1    
    15    7    8 1    
    16    8    9 1    
    17    8  134 1    
    18    8  135 1    
    19    9   10 ar   
    20    9   14 ar   
    21   10   11 ar   
    22   10  136 1    
    23   11   12 ar   
    24   11  126 1    
    25   12   13 ar   
    26   12  137 1    
    27   13   14 ar   
    28   13   15 1    
    29   14  138 1    
    30   15   16 1    
    31   15  139 1    
    32   15  140 1    
    33   16   17 1    
    34   17   18 1    
    35   17  141 1    
    36   17  142 1    
    37   18   19 1    
    38   18   67 1    
    39   18  143 1    
    40   19   20 am   BACKBONE|DICT|INTERRES
    41   19  144 1    
    42   20   21 2    
    43   20   22 1    
    44   22   23 1    
    45   22   24 1    
    46   22  145 1    
    47   23  146 1    
    48   23  147 1    
    49   23  148 1    
    50   24   25 am   BACKBONE|DICT|INTERRES
    51   24  149 1    
    52   25   26 2    
    53   25   27 1    
    54   27   28 1    
    55   27   29 1    
    56   27  150 1    
    57   28  151 1    
    58   28  152 1    
    59   28  153 1    
    60   29   30 am   BACKBONE|DICT|INTERRES
    61   29  154 1    
    62   30   31 2    
    63   30   32 1    
    64   32   33 1    
    65   32   34 1    
    66   32  155 1    
    67   33  156 1    
    68   33  157 1    
    69   33  158 1    
    70   34   35 am   BACKBONE|DICT|INTERRES
    71   34  159 1    
    72   35   36 2    
    73   35   37 1    
    74   37   38 1    
    75   37   39 1    
    76   37  160 1    
    77   38  161 1    
    78   38  162 1    
    79   38  163 1    
    80   39   40 am   BACKBONE|DICT|INTERRES
    81   39  164 1    
    82   40   41 2    
    83   40   42 1    
    84   42   43 1    
    85   42   44 1    
    86   42  165 1    
    87   43  166 1    
    88   43  167 1    
    89   43  168 1    
    90   44   45 am   BACKBONE|DICT|INTERRES
    91   44  169 1    
    92   45   46 2    
    93   45   47 1    
    94   47   48 1    
    95   47   49 1    
    96   47  170 1    
    97   48  171 1    
    98   48  172 1    
    99   48  173 1    
   100   49   50 am   BACKBONE|DICT|INTERRES
   101   49  174 1    
   102   50   51 2    
   103   50   52 1    
   104   52   53 1    
   105   52   54 1    
   106   52  175 1    
   107   53  176 1    
   108   53  177 1    
   109   53  178 1    
   110   54   55 am   BACKBONE|DICT|INTERRES
   111   54  179 1    
   112   55   56 2    
   113   55   57 1    
   114   57   58 1    
   115   57   59 1    
   116   57  180 1    
   117   58  181 1    
   118   58  182 1    
   119   58  183 1    
   120   59   60 am   BACKBONE|DICT|INTERRES
   121   59  184 1    
   122   60   61 2    
   123   60   62 1    
   124   62   63 1    
   125   62   64 1    
   126   62  185 1    
   127   63  186 1    
   128   63  187 1    
   129   63  188 1    
   130   64   65 am   BACKBONE|DICT|INTERRES
   131   64  189 1    
   132   65   66 2    
   133   67   68 2    
   134   67   69 am   BACKBONE|DICT|INTERRES
   135   69   70 1    
   136   69  190 1    
   137   70   71 1    
   138   70   72 1    
   139   70  191 1    
   140   71  192 1    
   141   71  193 1    
   142   71  194 1    
   143   72   73 2    
   144   72   74 am   BACKBONE|DICT|INTERRES
   145   74   75 1    
   146   74  195 1    
   147   75   76 1    
   148   75   77 1    
   149   75  196 1    
   150   76  197 1    
   151   76  198 1    
   152   76  199 1    
   153   77   78 2    
   154   77   79 am   BACKBONE|DICT|INTERRES
   155   79   80 1    
   156   79  200 1    
   157   80   81 1    
   158   80   82 1    
   159   80  201 1    
   160   81  202 1    
   161   81  203 1    
   162   81  204 1    
   163   82   83 2    
   164   82   84 am   BACKBONE|DICT|INTERRES
   165   84   85 1    
   166   84  205 1    
   167   85   86 1    
   168   85   87 1    
   169   85  206 1    
   170   86  207 1    
   171   86  208 1    
   172   86  209 1    
   173   87   88 2    
   174   87   89 am   BACKBONE|DICT|INTERRES
   175   89   90 1    
   176   89  210 1    
   177   90   91 1    
   178   90   92 1    
   179   90  211 1    
   180   91  212 1    
   181   91  213 1    
   182   91  214 1    
   183   92   93 2    
   184   92   94 am   BACKBONE|DICT|INTERRES
   185   94   95 1    
   186   94  215 1    
   187   95   96 1    
   188   95   97 1    
   189   95  216 1    
   190   96  217 1    
   191   96  218 1    
   192   96  219 1    
   193   97   98 2    
   194   97   99 am   BACKBONE|DICT|INTERRES
   195   99  100 1    
   196   99  220 1    
   197  100  101 1    
   198  100  102 1    
   199  100  221 1    
   200  101  222 1    
   201  101  223 1    
   202  101  224 1    
   203  102  103 2    
   204  102  104 am   BACKBONE|DICT|INTERRES
   205  104  105 1    
   206  104  225 1    
   207  105  106 1    
   208  105  107 1    
   209  105  226 1    
   210  106  227 1    
   211  106  228 1    
   212  106  229 1    
   213  107  108 2    
   214  107  109 am   BACKBONE|DICT|INTERRES
   215  109  110 1    
   216  109  230 1    
   217  110  111 1    
   218  110  112 1    
   219  110  231 1    
   220  111  232 1    
   221  111  233 1    
   222  111  234 1    
   223  112  113 2    
   224  112  114 am   BACKBONE|DICT|INTERRES
   225  114  115 1    
   226  114  235 1    
   227  115  116 1    
   228  115  117 1    
   229  115  236 1    
   230  116  237 1    
   231  116  238 1    
   232  116  239 1    
   233  117  118 2    
   234  117  119 am   BACKBONE|DICT|INTERRES
   235  119  120 1    
   236  119  240 1    
   237  120  121 1    
   238  120  124 1    
   239  120  241 1    
   240  121  122 am   BACKBONE|DICT|INTERRES
   241  121  123 2    
   242  122  242 1    
   243  122  243 1    
   244  124  125 1    
   245  124  244 1    
   246  124  245 1    
   247  125  126 1    
   248  126  246 1    
   249  126  247 1    
@<TRIPOS>SUBSTRUCTURE
     1 UNK         1 GROUP             0       ****    0 ROOT    
