@<TRIPOS>MOLECULE
3R540
247   249    1
SMALL
USER_CHARGES


@<TRIPOS>ATOM
      1 CA          6.4563  -16.0271  -45.4636 C.3       0 UNK        -0.1800 
      2 C           5.7181  -16.1741  -46.7866 C.2       0 UNK         0.5000 
      3 O           6.3123  -16.5955  -47.7787 O.2       0 UNK        -0.5000 
      4 N           4.4293  -15.8249  -46.8041 N.am      1 UNK        -0.5000 
      5 CA          3.5327  -15.9386  -47.9485 C.3       1 UNK         0.1400 
      6 C6          3.7970  -14.8244  -49.0007 C.3       23 UNK        -0.0398 
      7 S7          2.6453  -14.7411  -50.4208 S.3       23 UNK        -0.2404 
      8 C8          3.3901  -15.9073  -51.6077 C.3       23 UNK        -0.0205 
      9 C9          2.9663  -17.3389  -51.3182 C.ar      23 UNK        -0.0193 
     10 C10         1.7149  -17.7970  -51.7397 C.ar      23 UNK        -0.1150 
     11 C11         1.2983  -19.1002  -51.4506 C.ar      23 UNK        -0.0193 
     12 C12         2.1341  -19.9376  -50.7071 C.ar      23 UNK        -0.1150 
     13 C13         3.3796  -19.4825  -50.2622 C.ar      23 UNK        -0.0193 
     14 C14         3.8070  -18.1979  -50.6065 C.ar      23 UNK        -0.1150 
     15 C15         4.2385  -20.3563  -49.3600 C.3       23 UNK        -0.0205 
     16 S16         4.2049  -19.8013  -47.6169 S.3       23 UNK        -0.2404 
     17 C17         2.4188  -19.7634  -47.2410 C.3       23 UNK        -0.0398 
     18 CA          1.8456  -21.1706  -46.9776 C.3       11 UNK         0.1400 
     19 N           2.3649  -21.7741  -45.7491 N.am      11 UNK        -0.5000 
     20 C           2.3102  -23.0835  -45.4723 C.2       10 UNK         0.5000 
     21 O           1.8463  -23.9238  -46.2422 O.2       10 UNK        -0.5000 
     22 CA          2.8158  -23.5168  -44.0839 C.3       10 UNK         0.1400 
     23 CB          4.3455  -23.6538  -44.0825 C.3       10 UNK        -0.1800 
     24 N           2.4088  -22.5886  -43.0270 N.am      10 UNK        -0.5000 
     25 C           1.1390  -22.3882  -42.6464 C.2       9 UNK         0.5000 
     26 O           0.1854  -23.0126  -43.1100 O.2       9 UNK        -0.5000 
     27 CA          0.8854  -21.2735  -41.6125 C.3       9 UNK         0.1400 
     28 CB          0.9332  -21.8378  -40.1855 C.3       9 UNK        -0.1800 
     29 N           1.8136  -20.1442  -41.7147 N.am      9 UNK        -0.5000 
     30 C           1.9646  -19.3618  -42.7904 C.2       8 UNK         0.5000 
     31 O           1.3649  -19.5426  -43.8525 O.2       8 UNK        -0.5000 
     32 CA          2.9523  -18.1896  -42.6415 C.3       8 UNK         0.1400 
     33 CB          3.1476  -17.4156  -43.9538 C.3       8 UNK        -0.1800 
     34 N           2.5054  -17.2503  -41.6164 N.am      8 UNK        -0.5000 
     35 C           2.7110  -17.3755  -40.2992 C.2       7 UNK         0.5000 
     36 O           3.2778  -18.3425  -39.7881 O.2       7 UNK        -0.5000 
     37 CA          2.1728  -16.2444  -39.4098 C.3       7 UNK         0.1400 
     38 CB          3.0327  -14.9788  -39.5587 C.3       7 UNK        -0.1800 
     39 N           0.7921  -15.9328  -39.7702 N.am      7 UNK        -0.5000 
     40 C          -0.2877  -16.3301  -39.0842 C.2       6 UNK         0.5000 
     41 O          -0.2367  -16.9318  -38.0107 O.2       6 UNK        -0.5000 
     42 CA         -1.6644  -16.0113  -39.7039 C.3       6 UNK         0.1400 
     43 CB         -2.2068  -14.6834  -39.1541 C.3       6 UNK        -0.1800 
     44 N          -1.6423  -15.9472  -41.1668 N.am      6 UNK        -0.5000 
     45 C          -1.3795  -16.9855  -41.9724 C.2       5 UNK         0.5000 
     46 O          -1.2080  -18.1345  -41.5664 O.2       5 UNK        -0.5000 
     47 CA         -1.2765  -16.6971  -43.4842 C.3       5 UNK         0.1400 
     48 CB         -2.6117  -17.0357  -44.1698 C.3       5 UNK        -0.1800 
     49 N          -0.8881  -15.3282  -43.8553 N.am      5 UNK        -0.5000 
     50 C           0.1828  -14.6444  -43.4215 C.2       4 UNK         0.5000 
     51 O           0.9668  -15.0773  -42.5745 O.2       4 UNK        -0.5000 
     52 CA          0.4038  -13.2497  -44.0391 C.3       4 UNK         0.1400 
     53 CB          1.8268  -12.7171  -43.7912 C.3       4 UNK        -0.1800 
     54 N           0.1669  -13.3105  -45.4782 N.am      4 UNK        -0.5000 
     55 C          -0.7112  -12.5795  -46.1779 C.2       3 UNK         0.5000 
     56 O          -1.4113  -11.6959  -45.6829 O.2       3 UNK        -0.5000 
     57 CA         -0.8496  -12.9003  -47.6851 C.3       3 UNK         0.1400 
     58 CB         -0.0296  -11.9066  -48.5218 C.3       3 UNK        -0.1800 
     59 N          -0.4292  -14.2607  -48.0310 N.am      3 UNK        -0.5000 
     60 C          -1.0150  -15.3817  -47.5871 C.2       2 UNK         0.5000 
     61 O          -2.0872  -15.3843  -46.9844 O.2       2 UNK        -0.5000 
     62 CA         -0.2525  -16.7114  -47.7839 C.3       2 UNK         0.1400 
     63 CB         -0.9415  -17.5872  -48.8386 C.3       2 UNK        -0.1800 
     64 N           1.1645  -16.5633  -48.1404 N.am      2 UNK        -0.5000 
     65 C           2.1003  -15.9618  -47.3927 C.2       1 UNK         0.5000 
     66 O           1.8621  -15.4239  -46.3095 O.2       1 UNK        -0.5000 
     67 C           0.3076  -21.1449  -46.9850 C.2       11 UNK         0.5000 
     68 O          -0.2876  -21.3565  -48.0402 O.2       11 UNK        -0.5000 
     69 N          -0.3098  -20.9371  -45.8134 N.am      12 UNK        -0.5000 
     70 CA         -1.7567  -21.0338  -45.6142 C.3       12 UNK         0.1400 
     71 CB         -2.1079  -20.6136  -44.1800 C.3       12 UNK        -0.1800 
     72 C          -2.2856  -22.4493  -45.9111 C.2       12 UNK         0.5000 
     73 O          -3.2853  -22.5902  -46.6157 O.2       12 UNK        -0.5000 
     74 N          -1.5736  -23.4685  -45.4091 N.am      13 UNK        -0.5000 
     75 CA         -1.8455  -24.8830  -45.6632 C.3       13 UNK         0.1400 
     76 CB         -0.9819  -25.7442  -44.7294 C.3       13 UNK        -0.1800 
     77 C          -1.6275  -25.2855  -47.1339 C.2       13 UNK         0.5000 
     78 O          -2.3832  -26.1099  -47.6480 O.2       13 UNK        -0.5000 
     79 N          -0.6167  -24.6938  -47.7874 N.am      14 UNK        -0.5000 
     80 CA         -0.3384  -24.8758  -49.2131 C.3       14 UNK         0.1400 
     81 CB          1.0504  -24.3118  -49.5512 C.3       14 UNK        -0.1800 
     82 C          -1.4177  -24.2394  -50.1086 C.2       14 UNK         0.5000 
     83 O          -1.8083  -24.8463  -51.1064 O.2       14 UNK        -0.5000 
     84 N          -1.8824  -23.0388  -49.7335 N.am      15 UNK        -0.5000 
     85 CA         -2.9612  -22.3161  -50.4036 C.3       15 UNK         0.1400 
     86 CB         -3.0404  -20.8809  -49.8569 C.3       15 UNK        -0.1800 
     87 C          -4.3170  -23.0223  -50.2474 C.2       15 UNK         0.5000 
     88 O          -5.0072  -23.2438  -51.2432 O.2       15 UNK        -0.5000 
     89 N          -4.6818  -23.3288  -48.9918 N.am      16 UNK        -0.5000 
     90 CA         -5.8919  -24.0337  -48.5425 C.3       16 UNK         0.1400 
     91 CB         -5.8298  -25.5090  -48.9877 C.3       16 UNK        -0.1800 
     92 C          -7.2308  -23.3756  -48.9535 C.2       16 UNK         0.5000 
     93 O          -8.2777  -24.0142  -48.8352 O.2       16 UNK        -0.5000 
     94 N          -7.1731  -22.1325  -49.4586 N.am      17 UNK        -0.5000 
     95 CA         -8.2360  -21.4023  -50.1605 C.3       17 UNK         0.1400 
     96 CB         -9.3686  -21.0132  -49.1878 C.3       17 UNK        -0.1800 
     97 C          -8.7476  -22.1451  -51.4191 C.2       17 UNK         0.5000 
     98 O          -9.9171  -22.0054  -51.7817 O.2       17 UNK        -0.5000 
     99 N          -7.8702  -22.9392  -52.0535 N.am      18 UNK        -0.5000 
    100 CA        -8.2060  -23.8247  -53.1700 C.3       18 UNK         0.1400 
    101 CB        -7.0780  -24.8515  -53.3524 C.3       18 UNK        -0.1800 
    102 C         -8.4764  -23.0822  -54.4905 C.2       18 UNK         0.5000 
    103 O         -9.2666  -23.5659  -55.3027 O.2       18 UNK        -0.5000 
    104 N         -7.8267  -21.9294  -54.6839 N.am      19 UNK        -0.5000 
    105 CA        -7.9653  -21.0719  -55.8544 C.3       19 UNK         0.1400 
    106 CB        -7.1442  -21.6386  -57.0279 C.3       19 UNK        -0.1800 
    107 C         -7.4825  -19.6631  -55.4979 C.2       19 UNK         0.5000 
    108 O         -6.5998  -19.5126  -54.6474 O.2       19 UNK        -0.5000 
    109 N         -8.0173  -18.6581  -56.2028 N.am      20 UNK        -0.5000 
    110 CA        -7.6621  -17.2394  -56.0659 C.3       20 UNK         0.1400 
    111 CB        -8.6530  -16.4002  -56.8877 C.3       20 UNK        -0.1800 
    112 C         -6.2085  -16.9090  -56.4688 C.2       20 UNK         0.5000 
    113 O         -5.7119  -15.8363  -56.1244 O.2       20 UNK        -0.5000 
    114 N         -5.5489  -17.8415  -57.1702 N.am      21 UNK        -0.5000 
    115 CA        -4.1348  -17.7963  -57.5394 C.3       21 UNK         0.1400 
    116 CB        -3.8529  -18.9303  -58.5376 C.3       21 UNK        -0.1800 
    117 C         -3.1712  -17.8871  -56.3370 C.2       21 UNK         0.5000 
    118 O         -2.0173  -17.4786  -56.4745 O.2       21 UNK        -0.5000 
    119 N         -3.6441  -18.4057  -55.1945 N.am      22 UNK        -0.5000 
    120 CA        -2.8725  -18.4931  -53.9449 C.3       22 UNK         0.1400 
    121 C         -3.7120  -18.1992  -52.6697 C.2       22 UNK         0.5000 
    122 N         -5.0295  -18.3609  -52.6673 N.am      22 UNK        -0.7600 
    123 O         -3.1580  -17.7872  -51.6562 O.2       22 UNK        -0.5000 
    124 C124       -2.0789  -19.8303  -53.8350 C.3       23 UNK        -0.0398 
    125 S125       -0.2771  -19.5769  -53.6920 S.3       23 UNK        -0.2404 
    126 C126       -0.0791  -19.5783  -51.8846 C.3       23 UNK        -0.0205 
    127 H127        6.6839  -17.0101  -45.0512 H         1 UNK         0.0600 
    128 H128        5.8673  -15.4759  -44.7303 H         1 UNK         0.0600 
    129 H129        7.3943  -15.4923  -45.6131 H         1 UNK         0.0600 
    130 H130        3.9630  -15.5054  -45.9634 H         1 UNK         0.3000 
    131 H131        3.7080  -16.9133  -48.3939 H         1 UNK         0.0600 
    132 H132        4.8120  -14.9179  -49.3884 H         1 UNK         0.0800 
    133 H133        3.7644  -13.8505  -48.5093 H         1 UNK         0.0800 
    134 H134        3.0687  -15.6349  -52.6141 H         1 UNK         0.0800 
    135 H135        4.4770  -15.8121  -51.6016 H         1 UNK         0.0800 
    136 H136        1.0581  -17.1355  -52.2877 H         1 UNK         0.1150 
    137 H137        1.7999  -20.9315  -50.4437 H         1 UNK         0.1150 
    138 H138        4.7723  -17.8481  -50.2663 H         1 UNK         0.1150 
    139 H139        3.9190  -21.3979  -49.4145 H         1 UNK         0.0800 
    140 H140        5.2697  -20.3376  -49.7151 H         1 UNK         0.0800 
    141 H141        1.8935  -19.2740  -48.0598 H         1 UNK         0.0800 
    142 H142        2.2606  -19.1205  -46.3749 H         1 UNK         0.0800 
    143 H143        2.1443  -21.8093  -47.8104 H         1 UNK         0.0600 
    144 H144        2.7106  -21.1377  -45.0461 H         1 UNK         0.3000 
    145 H145        2.3840  -24.4952  -43.8624 H         1 UNK         0.0600 
    146 H146        4.7066  -24.0306  -43.1254 H         1 UNK         0.0600 
    147 H147        4.6743  -24.3544  -44.8514 H         1 UNK         0.0600 
    148 H148        4.8376  -22.6998  -44.2759 H         1 UNK         0.0600 
    149 H149        3.1344  -22.0385  -42.5919 H         1 UNK         0.3000 
    150 H150       -0.1189  -20.8842  -41.7899 H         1 UNK         0.0600 
    151 H151        0.2328  -22.6660  -40.0690 H         1 UNK         0.0600 
    152 H152        0.6608  -21.0776  -39.4528 H         1 UNK         0.0600 
    153 H153        1.9272  -22.2084  -39.9322 H         1 UNK         0.0600 
    154 H154        2.3270  -19.8942  -40.8772 H         1 UNK         0.3000 
    155 H155        3.9203  -18.6037  -42.3522 H         1 UNK         0.0600 
    156 H156        3.8059  -16.5591  -43.8121 H         1 UNK         0.0600 
    157 H157        3.5949  -18.0480  -44.7207 H         1 UNK         0.0600 
    158 H158        2.1969  -17.0452  -44.3366 H         1 UNK         0.0600 
    159 H159        1.9940  -16.4386  -41.9559 H         1 UNK         0.3000 
    160 H160        2.2352  -16.5738  -38.3705 H         1 UNK         0.0600 
    161 H161        3.0067  -14.5859  -40.5761 H         1 UNK         0.0600 
    162 H162        4.0750  -15.1835  -39.3111 H         1 UNK         0.0600 
    163 H163        2.6881  -14.1907  -38.8890 H         1 UNK         0.0600 
    164 H164        0.6567  -15.4835  -40.6699 H         1 UNK         0.3000 
    165 H165       -2.3502  -16.8095  -39.4121 H         1 UNK         0.0600 
    166 H166       -3.2125  -14.4837  -39.5245 H         1 UNK         0.0600 
    167 H167       -2.2615  -14.7051  -38.0648 H         1 UNK         0.0600 
    168 H168       -1.5712  -13.8423  -39.4341 H         1 UNK         0.0600 
    169 H169       -1.7814  -15.0398  -41.5855 H         1 UNK         0.3000 
    170 H170       -0.5092  -17.3681  -43.8756 H         1 UNK         0.0600 
    171 H171       -3.0848  -17.9146  -43.7314 H         1 UNK         0.0600 
    172 H172       -3.3272  -16.2171  -44.0864 H         1 UNK         0.0600 
    173 H173       -2.4660  -17.2520  -45.2271 H         1 UNK         0.0600 
    174 H174       -1.4598  -14.8934  -44.5666 H         1 UNK         0.3000 
    175 H175       -0.3069  -12.5743  -43.5595 H         1 UNK         0.0600 
    176 H176        2.0304  -12.6188  -42.7242 H         1 UNK         0.0600 
    177 H177        2.5815  -13.3831  -44.2120 H         1 UNK         0.0600 
    178 H178        1.9618  -11.7326  -44.2392 H         1 UNK         0.0600 
    179 H179        0.6946  -14.0379  -45.9565 H         1 UNK         0.3000 
    180 H180       -1.9029  -12.7924  -47.9514 H         1 UNK         0.0600 
    181 H181        1.0372  -11.9862  -48.3085 H         1 UNK         0.0600 
    182 H182       -0.3308  -10.8788  -48.3148 H         1 UNK         0.0600 
    183 H183       -0.1718  -12.0774  -49.5891 H         1 UNK         0.0600 
    184 H184        0.4412  -14.3491  -48.5343 H         1 UNK         0.3000 
    185 H185       -0.2916  -17.2399  -46.8289 H         1 UNK         0.0600 
    186 H186       -1.9896  -17.7566  -48.5881 H         1 UNK         0.0600 
    187 H187       -0.9125  -17.1206  -49.8239 H         1 UNK         0.0600 
    188 H188       -0.4675  -18.5660  -48.9122 H         1 UNK         0.0600 
    189 H189        1.4334  -16.9333  -49.0419 H         1 UNK         0.3000 
    190 H190        0.2536  -20.7028  -45.0019 H         1 UNK         0.3000 
    191 H191       -2.2317  -20.3348  -46.3058 H         1 UNK         0.0600 
    192 H192       -1.8541  -21.3835  -43.4524 H         1 UNK         0.0600 
    193 H193       -3.1768  -20.4209  -44.0849 H         1 UNK         0.0600 
    194 H194       -1.5778  -19.7074  -43.8920 H         1 UNK         0.0600 
    195 H195       -0.7979  -23.2614  -44.7867 H         1 UNK         0.3000 
    196 H196       -2.8945  -25.0688  -45.4229 H         1 UNK         0.0600 
    197 H197       -1.1812  -26.8058  -44.8804 H         1 UNK         0.0600 
    198 H198       -1.1891  -25.5195  -43.6830 H         1 UNK         0.0600 
    199 H199        0.0824  -25.5813  -44.9010 H         1 UNK         0.0600 
    200 H200        0.0104  -24.0886  -47.2709 H         1 UNK         0.3000 
    201 H201       -0.3239  -25.9484  -49.4178 H         1 UNK         0.0600 
    202 H202        1.8251  -24.7714  -48.9373 H         1 UNK         0.0600 
    203 H203        1.0967  -23.2340  -49.4008 H         1 UNK         0.0600 
    204 H204        1.3041  -24.5052  -50.5941 H         1 UNK         0.0600 
    205 H205       -1.4515  -22.5756  -48.9380 H         1 UNK         0.3000 
    206 H206       -2.7258  -22.2684  -51.4682 H         1 UNK         0.0600 
    207 H207       -2.1013  -20.3491  -49.9941 H         1 UNK         0.0600 
    208 H208       -3.8155  -20.3095  -50.3684 H         1 UNK         0.0600 
    209 H209       -3.2681  -20.8619  -48.7909 H         1 UNK         0.0600 
    210 H210       -4.0529  -23.0598  -48.2369 H         1 UNK         0.3000 
    211 H211       -5.8651  -24.0121  -47.4523 H         1 UNK         0.0600 
    212 H212       -4.8959  -25.9757  -48.6759 H         1 UNK         0.0600 
    213 H213       -6.6413  -26.0900  -48.5482 H         1 UNK         0.0600 
    214 H214       -5.9060  -25.6065  -50.0710 H         1 UNK         0.0600 
    215 H215       -6.2587  -21.7068  -49.4982 H         1 UNK         0.3000 
    216 H216       -7.7820  -20.4790  -50.5227 H         1 UNK         0.0600 
    217 H217       -9.9214  -21.8855  -48.8383 H         1 UNK         0.0600 
    218 H218      -10.0841  -20.3446  -49.6677 H         1 UNK         0.0600 
    219 H219       -8.9763  -20.4925  -48.3143 H         1 UNK         0.0600 
    220 H220       -6.9183  -23.0018  -51.7028 H         1 UNK         0.3000 
    221 H221       -9.1161  -24.3682  -52.9072 H         1 UNK         0.0600 
    222 H222       -6.9243  -25.4339  -52.4439 H         1 UNK         0.0600 
    223 H223       -6.1327  -24.3690  -53.6042 H         1 UNK         0.0600 
    224 H224       -7.3128  -25.5536  -54.1534 H         1 UNK         0.0600 
    225 H225       -7.2127  -21.5715  -53.9634 H         1 UNK         0.3000 
    226 H226       -9.0195  -21.0166  -56.1346 H         1 UNK         0.0600 
    227 H227       -7.4929  -22.6305  -57.3156 H         1 UNK         0.0600 
    228 H228       -7.2257  -21.0023  -57.9099 H         1 UNK         0.0600 
    229 H229       -6.0860  -21.7178  -56.7750 H         1 UNK         0.0600 
    230 H230       -8.7220  -18.8714  -56.8944 H         1 UNK         0.3000 
    231 H231       -7.7725  -16.9676  -55.0140 H         1 UNK         0.0600 
    232 H232       -8.6005  -16.6425  -57.9499 H         1 UNK         0.0600 
    233 H233       -8.4450  -15.3344  -56.7836 H         1 UNK         0.0600 
    234 H234       -9.6786  -16.5621  -56.5553 H         1 UNK         0.0600 
    235 H235       -6.0499  -18.6806  -57.4194 H         1 UNK         0.3000 
    236 H236       -3.9470  -16.8433  -58.0383 H         1 UNK         0.0600 
    237 H237       -4.4725  -18.8351  -59.4295 H         1 UNK         0.0600 
    238 H238       -2.8121  -18.9146  -58.8640 H         1 UNK         0.0600 
    239 H239       -4.0441  -19.9100  -58.0975 H         1 UNK         0.0600 
    240 H240       -4.6083  -18.7074  -55.1516 H         1 UNK         0.3000 
    241 H241       -2.1582  -17.6671  -53.9611 H         1 UNK         0.0600 
    242 H242       -5.5312  -18.1297  -51.8260 H         1 UNK         0.3800 
    243 H243       -5.5451  -18.7543  -53.4512 H         1 UNK         0.3800 
    244 H244       -2.2399  -20.4454  -54.7216 H         1 UNK         0.0800 
    245 H245       -2.4237  -20.4474  -53.0042 H         1 UNK         0.0800 
    246 H246       -0.8258  -18.9221  -51.4415 H         1 UNK         0.0800 
    247 H247       -0.2773  -20.5830  -51.5078 H         1 UNK         0.0800 
@<TRIPOS>BOND
     1    1    2 1    
     2    1  127 1    
     3    1  128 1    
     4    1  129 1    
     5    2    3 2    
     6    2    4 am   BACKBONE|DICT|INTERRES
     7    4    5 1    
     8    4  130 1    
     9    5    6 1    
    10    5   65 1    
    11    5  131 1    
    12    6    7 1    
    13    6  132 1    
    14    6  133 1    
    15    7    8 1    
    16    8    9 1    
    17    8  134 1    
    18    8  135 1    
    19    9   10 ar   
    20    9   14 ar   
    21   10   11 ar   
    22   10  136 1    
    23   11   12 ar   
    24   11  126 1    
    25   12   13 ar   
    26   12  137 1    
    27   13   14 ar   
    28   13   15 1    
    29   14  138 1    
    30   15   16 1    
    31   15  139 1    
    32   15  140 1    
    33   16   17 1    
    34   17   18 1    
    35   17  141 1    
    36   17  142 1    
    37   18   19 1    
    38   18   67 1    
    39   18  143 1    
    40   19   20 am   BACKBONE|DICT|INTERRES
    41   19  144 1    
    42   20   21 2    
    43   20   22 1    
    44   22   23 1    
    45   22   24 1    
    46   22  145 1    
    47   23  146 1    
    48   23  147 1    
    49   23  148 1    
    50   24   25 am   BACKBONE|DICT|INTERRES
    51   24  149 1    
    52   25   26 2    
    53   25   27 1    
    54   27   28 1    
    55   27   29 1    
    56   27  150 1    
    57   28  151 1    
    58   28  152 1    
    59   28  153 1    
    60   29   30 am   BACKBONE|DICT|INTERRES
    61   29  154 1    
    62   30   31 2    
    63   30   32 1    
    64   32   33 1    
    65   32   34 1    
    66   32  155 1    
    67   33  156 1    
    68   33  157 1    
    69   33  158 1    
    70   34   35 am   BACKBONE|DICT|INTERRES
    71   34  159 1    
    72   35   36 2    
    73   35   37 1    
    74   37   38 1    
    75   37   39 1    
    76   37  160 1    
    77   38  161 1    
    78   38  162 1    
    79   38  163 1    
    80   39   40 am   BACKBONE|DICT|INTERRES
    81   39  164 1    
    82   40   41 2    
    83   40   42 1    
    84   42   43 1    
    85   42   44 1    
    86   42  165 1    
    87   43  166 1    
    88   43  167 1    
    89   43  168 1    
    90   44   45 am   BACKBONE|DICT|INTERRES
    91   44  169 1    
    92   45   46 2    
    93   45   47 1    
    94   47   48 1    
    95   47   49 1    
    96   47  170 1    
    97   48  171 1    
    98   48  172 1    
    99   48  173 1    
   100   49   50 am   BACKBONE|DICT|INTERRES
   101   49  174 1    
   102   50   51 2    
   103   50   52 1    
   104   52   53 1    
   105   52   54 1    
   106   52  175 1    
   107   53  176 1    
   108   53  177 1    
   109   53  178 1    
   110   54   55 am   BACKBONE|DICT|INTERRES
   111   54  179 1    
   112   55   56 2    
   113   55   57 1    
   114   57   58 1    
   115   57   59 1    
   116   57  180 1    
   117   58  181 1    
   118   58  182 1    
   119   58  183 1    
   120   59   60 am   BACKBONE|DICT|INTERRES
   121   59  184 1    
   122   60   61 2    
   123   60   62 1    
   124   62   63 1    
   125   62   64 1    
   126   62  185 1    
   127   63  186 1    
   128   63  187 1    
   129   63  188 1    
   130   64   65 am   BACKBONE|DICT|INTERRES
   131   64  189 1    
   132   65   66 2    
   133   67   68 2    
   134   67   69 am   BACKBONE|DICT|INTERRES
   135   69   70 1    
   136   69  190 1    
   137   70   71 1    
   138   70   72 1    
   139   70  191 1    
   140   71  192 1    
   141   71  193 1    
   142   71  194 1    
   143   72   73 2    
   144   72   74 am   BACKBONE|DICT|INTERRES
   145   74   75 1    
   146   74  195 1    
   147   75   76 1    
   148   75   77 1    
   149   75  196 1    
   150   76  197 1    
   151   76  198 1    
   152   76  199 1    
   153   77   78 2    
   154   77   79 am   BACKBONE|DICT|INTERRES
   155   79   80 1    
   156   79  200 1    
   157   80   81 1    
   158   80   82 1    
   159   80  201 1    
   160   81  202 1    
   161   81  203 1    
   162   81  204 1    
   163   82   83 2    
   164   82   84 am   BACKBONE|DICT|INTERRES
   165   84   85 1    
   166   84  205 1    
   167   85   86 1    
   168   85   87 1    
   169   85  206 1    
   170   86  207 1    
   171   86  208 1    
   172   86  209 1    
   173   87   88 2    
   174   87   89 am   BACKBONE|DICT|INTERRES
   175   89   90 1    
   176   89  210 1    
   177   90   91 1    
   178   90   92 1    
   179   90  211 1    
   180   91  212 1    
   181   91  213 1    
   182   91  214 1    
   183   92   93 2    
   184   92   94 am   BACKBONE|DICT|INTERRES
   185   94   95 1    
   186   94  215 1    
   187   95   96 1    
   188   95   97 1    
   189   95  216 1    
   190   96  217 1    
   191   96  218 1    
   192   96  219 1    
   193   97   98 2    
   194   97   99 am   BACKBONE|DICT|INTERRES
   195   99  100 1    
   196   99  220 1    
   197  100  101 1    
   198  100  102 1    
   199  100  221 1    
   200  101  222 1    
   201  101  223 1    
   202  101  224 1    
   203  102  103 2    
   204  102  104 am   BACKBONE|DICT|INTERRES
   205  104  105 1    
   206  104  225 1    
   207  105  106 1    
   208  105  107 1    
   209  105  226 1    
   210  106  227 1    
   211  106  228 1    
   212  106  229 1    
   213  107  108 2    
   214  107  109 am   BACKBONE|DICT|INTERRES
   215  109  110 1    
   216  109  230 1    
   217  110  111 1    
   218  110  112 1    
   219  110  231 1    
   220  111  232 1    
   221  111  233 1    
   222  111  234 1    
   223  112  113 2    
   224  112  114 am   BACKBONE|DICT|INTERRES
   225  114  115 1    
   226  114  235 1    
   227  115  116 1    
   228  115  117 1    
   229  115  236 1    
   230  116  237 1    
   231  116  238 1    
   232  116  239 1    
   233  117  118 2    
   234  117  119 am   BACKBONE|DICT|INTERRES
   235  119  120 1    
   236  119  240 1    
   237  120  121 1    
   238  120  124 1    
   239  120  241 1    
   240  121  122 am   BACKBONE|DICT|INTERRES
   241  121  123 2    
   242  122  242 1    
   243  122  243 1    
   244  124  125 1    
   245  124  244 1    
   246  124  245 1    
   247  125  126 1    
   248  126  246 1    
   249  126  247 1    
@<TRIPOS>SUBSTRUCTURE
     1 UNK         1 GROUP             0       ****    0 ROOT    
