@<TRIPOS>MOLECULE
3R540
247   249    1
SMALL
USER_CHARGES


@<TRIPOS>ATOM
      1 CA          0.6606  -14.7058  -50.3112 C.3       0 UNK        -0.1800 
      2 C           1.9473  -14.0812  -49.7944 C.2       0 UNK         0.5000 
      3 O           2.3910  -13.0597  -50.3190 O.2       0 UNK        -0.5000 
      4 N           2.5549  -14.7047  -48.7793 N.am      1 UNK        -0.5000 
      5 CA          3.8254  -14.2891  -48.1802 C.3       1 UNK         0.1400 
      6 C6          4.4775  -15.4149  -47.3368 C.3       23 UNK        -0.0398 
      7 S7          4.6819  -16.9718  -48.2652 S.3       23 UNK        -0.2404 
      8 C8          3.4042  -17.9930  -47.4703 C.3       23 UNK        -0.0205 
      9 C9          3.1220  -19.2492  -48.2744 C.ar      23 UNK        -0.0193 
     10 C10         2.1318  -19.2393  -49.2610 C.ar      23 UNK        -0.1150 
     11 C11         1.8488  -20.3967  -49.9896 C.ar      23 UNK        -0.0193 
     12 C12         2.5695  -21.5655  -49.7309 C.ar      23 UNK        -0.1150 
     13 C13         3.5434  -21.5964  -48.7277 C.ar      23 UNK        -0.0193 
     14 C14         3.8234  -20.4297  -48.0109 C.ar      23 UNK        -0.1150 
     15 C15         4.3026  -22.8810  -48.4229 C.3       23 UNK        -0.0205 
     16 S16         3.5084  -23.8644  -47.1050 S.3       23 UNK        -0.2404 
     17 C17         2.0572  -24.5519  -47.9808 C.3       23 UNK        -0.0398 
     18 CA          0.6748  -24.2556  -47.3271 C.3       11 UNK         0.1400 
     19 N           0.5976  -22.9054  -46.7382 N.am      11 UNK        -0.5000 
     20 C          -0.2513  -22.4929  -45.7847 C.2       10 UNK         0.5000 
     21 O          -1.2059  -23.1703  -45.3981 O.2       10 UNK        -0.5000 
     22 CA          0.0013  -21.1181  -45.1348 C.3       10 UNK         0.1400 
     23 CB          0.9420  -20.2038  -45.9334 C.3       10 UNK        -0.1800 
     24 N          -1.2665  -20.4233  -44.9219 N.am      10 UNK        -0.5000 
     25 C          -1.7432  -20.0329  -43.7331 C.2       9 UNK         0.5000 
     26 O          -1.1516  -20.1959  -42.6638 O.2       9 UNK        -0.5000 
     27 CA         -3.1167  -19.3362  -43.7661 C.3       9 UNK         0.1400 
     28 CB         -3.5603  -18.7607  -42.4041 C.3       9 UNK        -0.1800 
     29 N          -3.1860  -18.3316  -44.8303 N.am      9 UNK        -0.5000 
     30 C          -2.5523  -17.1548  -44.9047 C.2       8 UNK         0.5000 
     31 O          -1.8221  -16.6920  -44.0235 O.2       8 UNK        -0.5000 
     32 CA         -2.7944  -16.3554  -46.1946 C.3       8 UNK         0.1400 
     33 CB         -4.2714  -15.9262  -46.3123 C.3       8 UNK        -0.1800 
     34 N          -1.9332  -15.1813  -46.1855 N.am      8 UNK        -0.5000 
     35 C          -1.7021  -14.3457  -47.2041 C.2       7 UNK         0.5000 
     36 O          -2.1558  -14.5047  -48.3391 O.2       7 UNK        -0.5000 
     37 CA         -0.8223  -13.1197  -46.8718 C.3       7 UNK         0.1400 
     38 CB         -0.9123  -11.9936  -47.9222 C.3       7 UNK        -0.1800 
     39 N          -1.0774  -12.5946  -45.5232 N.am      7 UNK        -0.5000 
     40 C          -2.2381  -12.1120  -45.0465 C.2       6 UNK         0.5000 
     41 O          -3.2599  -11.9794  -45.7206 O.2       6 UNK        -0.5000 
     42 CA         -2.2801  -11.7385  -43.5518 C.3       6 UNK         0.1400 
     43 CB         -3.0334  -12.8192  -42.7593 C.3       6 UNK        -0.1800 
     44 N          -0.9515  -11.5744  -42.9637 N.am      6 UNK        -0.5000 
     45 C          -0.1514  -10.5155  -43.1262 C.2       5 UNK         0.5000 
     46 O          -0.4707   -9.5120  -43.7640 O.2       5 UNK        -0.5000 
     47 CA          1.2527  -10.6030  -42.4972 C.3       5 UNK         0.1400 
     48 CB          1.2120  -10.3092  -40.9857 C.3       5 UNK        -0.1800 
     49 N           1.9643  -11.8566  -42.7865 N.am      5 UNK        -0.5000 
     50 C           1.6911  -13.1097  -42.3852 C.2       4 UNK         0.5000 
     51 O           0.7343  -13.4033  -41.6679 O.2       4 UNK        -0.5000 
     52 CA          2.6141  -14.2361  -42.8928 C.3       4 UNK         0.1400 
     53 CB          1.8686  -15.1357  -43.8944 C.3       4 UNK        -0.1800 
     54 N           3.8368  -13.7250  -43.5174 N.am      4 UNK        -0.5000 
     55 C           4.9170  -13.3159  -42.8336 C.2       3 UNK         0.5000 
     56 O           5.0171  -13.4011  -41.6093 O.2       3 UNK        -0.5000 
     57 CA          6.0762  -12.6914  -43.6379 C.3       3 UNK         0.1400 
     58 CB          7.1998  -13.7196  -43.8402 C.3       3 UNK        -0.1800 
     59 N           5.6811  -12.1643  -44.9458 N.am      3 UNK        -0.5000 
     60 C           4.8495  -11.1333  -45.1566 C.2       2 UNK         0.5000 
     61 O           4.3199  -10.4852  -44.2542 O.2       2 UNK        -0.5000 
     62 CA          4.5028  -10.8251  -46.6272 C.3       2 UNK         0.1400 
     63 CB          5.4929   -9.8090  -47.2151 C.3       2 UNK        -0.1800 
     64 N           4.4813  -12.0277  -47.4686 N.am      2 UNK        -0.5000 
     65 C           3.6215  -13.0416  -47.3025 C.2       1 UNK         0.5000 
     66 O           2.7383  -13.0478  -46.4424 O.2       1 UNK        -0.5000 
     67 C          -0.4807  -24.5802  -48.3114 C.2       11 UNK         0.5000 
     68 O          -0.2579  -25.2469  -49.3239 O.2       11 UNK        -0.5000 
     69 N          -1.6923  -24.0957  -48.0178 N.am      12 UNK        -0.5000 
     70 CA         -2.8536  -24.0650  -48.9072 C.3       12 UNK         0.1400 
     71 CB         -4.0066  -23.3610  -48.1825 C.3       12 UNK        -0.1800 
     72 C          -3.3018  -25.4416  -49.4229 C.2       12 UNK         0.5000 
     73 O          -3.6784  -25.5558  -50.5892 O.2       12 UNK        -0.5000 
     74 N          -3.2313  -26.4600  -48.5568 N.am      13 UNK        -0.5000 
     75 CA         -3.5874  -27.8415  -48.8817 C.3       13 UNK         0.1400 
     76 CB         -3.7525  -28.6386  -47.5791 C.3       13 UNK        -0.1800 
     77 C          -2.5638  -28.5247  -49.8079 C.2       13 UNK         0.5000 
     78 O          -2.9529  -29.3559  -50.6283 O.2       13 UNK        -0.5000 
     79 N          -1.2820  -28.1589  -49.6695 N.am      14 UNK        -0.5000 
     80 CA         -0.1844  -28.6706  -50.4911 C.3       14 UNK         0.1400 
     81 CB          1.1412  -28.5079  -49.7312 C.3       14 UNK        -0.1800 
     82 C          -0.1223  -27.9611  -51.8536 C.2       14 UNK         0.5000 
     83 O           0.1130  -28.6112  -52.8726 O.2       14 UNK        -0.5000 
     84 N          -0.3538  -26.6422  -51.8443 N.am      15 UNK        -0.5000 
     85 CA         -0.3792  -25.7848  -53.0289 C.3       15 UNK         0.1400 
     86 CB         -0.2565  -24.3258  -52.5684 C.3       15 UNK        -0.1800 
     87 C          -1.6456  -25.9567  -53.8902 C.2       15 UNK         0.5000 
     88 O          -1.6368  -25.5426  -55.0499 O.2       15 UNK        -0.5000 
     89 N          -2.7078  -26.5300  -53.3023 N.am      16 UNK        -0.5000 
     90 CA         -4.0715  -26.6343  -53.8344 C.3       16 UNK         0.1400 
     91 CB         -4.1212  -27.5246  -55.0935 C.3       16 UNK        -0.1800 
     92 C          -4.7010  -25.2392  -54.0356 C.2       16 UNK         0.5000 
     93 O          -5.2983  -24.9582  -55.0761 O.2       16 UNK        -0.5000 
     94 N          -4.5279  -24.3890  -53.0178 N.am      17 UNK        -0.5000 
     95 CA         -4.9429  -22.9883  -52.9718 C.3       17 UNK         0.1400 
     96 CB         -3.6850  -22.1040  -52.9256 C.3       17 UNK        -0.1800 
     97 C          -5.8634  -22.7346  -51.7645 C.2       17 UNK         0.5000 
     98 O          -5.8971  -21.6188  -51.2425 O.2       17 UNK        -0.5000 
     99 N          -6.5904  -23.7757  -51.3319 N.am      18 UNK        -0.5000 
    100 CA        -7.4753  -23.7963  -50.1626 C.3       18 UNK         0.1400 
    101 CB        -8.0541  -25.2092  -50.0009 C.3       18 UNK        -0.1800 
    102 C         -8.6004  -22.7448  -50.1903 C.2       18 UNK         0.5000 
    103 O         -8.9850  -22.2484  -49.1321 O.2       18 UNK        -0.5000 
    104 N         -9.0733  -22.3898  -51.3930 N.am      19 UNK        -0.5000 
    105 CA       -10.0815  -21.3505  -51.6205 C.3       19 UNK         0.1400 
    106 CB       -10.5573  -21.4280  -53.0792 C.3       19 UNK        -0.1800 
    107 C         -9.5836  -19.9276  -51.2919 C.2       19 UNK         0.5000 
    108 O        -10.3912  -19.0774  -50.9160 O.2       19 UNK        -0.5000 
    109 N         -8.2709  -19.7000  -51.4306 N.am      20 UNK        -0.5000 
    110 CA        -7.5939  -18.4394  -51.1170 C.3       20 UNK         0.1400 
    111 CB        -6.6231  -18.1207  -52.2667 C.3       20 UNK        -0.1800 
    112 C         -6.8240  -18.5105  -49.7840 C.2       20 UNK         0.5000 
    113 O         -6.2447  -17.5060  -49.3681 O.2       20 UNK        -0.5000 
    114 N         -6.7677  -19.7056  -49.1752 N.am      21 UNK        -0.5000 
    115 CA        -5.9506  -20.0862  -48.0184 C.3       21 UNK         0.1400 
    116 CB        -6.5104  -19.4548  -46.7287 C.3       21 UNK        -0.1800 
    117 C         -4.4432  -19.8146  -48.2291 C.2       21 UNK         0.5000 
    118 O         -3.7307  -19.5136  -47.2714 O.2       21 UNK        -0.5000 
    119 N         -3.9877  -19.9187  -49.4852 N.am      22 UNK        -0.5000 
    120 CA        -2.6491  -19.5279  -49.9628 C.3       22 UNK         0.1400 
    121 C         -2.3394  -17.9980  -49.8924 C.2       22 UNK         0.5000 
    122 N         -3.3059  -17.1187  -49.6559 N.am      22 UNK        -0.7600 
    123 O         -1.1959  -17.5929  -50.0733 O.2       22 UNK        -0.5000 
    124 C124       -1.5032  -20.3991  -49.3542 C.3       23 UNK        -0.0398 
    125 S125       -0.6603  -21.4112  -50.6127 S.3       23 UNK        -0.2404 
    126 C126        0.7745  -20.3871  -51.0657 C.3       23 UNK        -0.0205 
    127 H127        0.2125  -15.3637  -49.5669 H         1 UNK         0.0600 
    128 H128        0.8609  -15.2925  -51.2075 H         1 UNK         0.0600 
    129 H129       -0.0688  -13.9371  -50.5643 H         1 UNK         0.0600 
    130 H130        2.1381  -15.5345  -48.3875 H         1 UNK         0.3000 
    131 H131        4.5116  -14.0383  -48.9923 H         1 UNK         0.0600 
    132 H132        3.9005  -15.6095  -46.4305 H         1 UNK         0.0800 
    133 H133        5.4674  -15.1044  -46.9981 H         1 UNK         0.0800 
    134 H134        3.7264  -18.2551  -46.4612 H         1 UNK         0.0800 
    135 H135        2.4830  -17.4198  -47.3576 H         1 UNK         0.0800 
    136 H136        1.5784  -18.3316  -49.4594 H         1 UNK         0.1150 
    137 H137        2.3574  -22.4509  -50.3122 H         1 UNK         0.1150 
    138 H138        4.5802  -20.4427  -47.2389 H         1 UNK         0.1150 
    139 H139        4.4053  -23.4867  -49.3247 H         1 UNK         0.0800 
    140 H140        5.3190  -22.6371  -48.1099 H         1 UNK         0.0800 
    141 H141        2.0788  -24.2039  -49.0120 H         1 UNK         0.0800 
    142 H142        2.2006  -25.6314  -48.0471 H         1 UNK         0.0800 
    143 H143        0.5636  -24.9592  -46.4997 H         1 UNK         0.0600 
    144 H144        1.3401  -22.2809  -47.0202 H         1 UNK         0.3000 
    145 H145        0.4830  -21.3277  -44.1779 H         1 UNK         0.0600 
    146 H146        1.0354  -19.2260  -45.4600 H         1 UNK         0.0600 
    147 H147        1.9441  -20.6286  -45.9809 H         1 UNK         0.0600 
    148 H148        0.5863  -20.0463  -46.9504 H         1 UNK         0.0600 
    149 H149       -1.8433  -20.2792  -45.7398 H         1 UNK         0.3000 
    150 H150       -3.8377  -20.1086  -44.0379 H         1 UNK         0.0600 
    151 H151       -3.6513  -19.5530  -41.6604 H         1 UNK         0.0600 
    152 H152       -4.5323  -18.2735  -42.4799 H         1 UNK         0.0600 
    153 H153       -2.8485  -18.0325  -42.0148 H         1 UNK         0.0600 
    154 H154       -3.6620  -18.6466  -45.6735 H         1 UNK         0.3000 
    155 H155       -2.5173  -16.9889  -47.0376 H         1 UNK         0.0600 
    156 H156       -4.4676  -15.4155  -47.2548 H         1 UNK         0.0600 
    157 H157       -4.5578  -15.2549  -45.5019 H         1 UNK         0.0600 
    158 H158       -4.9376  -16.7862  -46.2783 H         1 UNK         0.0600 
    159 H159       -1.5015  -15.0098  -45.2859 H         1 UNK         0.3000 
    160 H160        0.2043  -13.4849  -46.8720 H         1 UNK         0.0600 
    161 H161       -1.9291  -11.6147  -48.0264 H         1 UNK         0.0600 
    162 H162       -0.5952  -12.3444  -48.9033 H         1 UNK         0.0600 
    163 H163       -0.2664  -11.1570  -47.6560 H         1 UNK         0.0600 
    164 H164       -0.3003  -12.6427  -44.8812 H         1 UNK         0.3000 
    165 H165       -2.8253  -10.7970  -43.4585 H         1 UNK         0.0600 
    166 H166       -2.5271  -13.7843  -42.8137 H         1 UNK         0.0600 
    167 H167       -3.1235  -12.5464  -41.7077 H         1 UNK         0.0600 
    168 H168       -4.0439  -12.9570  -43.1464 H         1 UNK         0.0600 
    169 H169       -0.5873  -12.3504  -42.4151 H         1 UNK         0.3000 
    170 H170        1.8504   -9.8173  -42.9623 H         1 UNK         0.0600 
    171 H171        0.7797   -9.3264  -40.7939 H         1 UNK         0.0600 
    172 H172        0.6125  -11.0386  -40.4407 H         1 UNK         0.0600 
    173 H173        2.2146  -10.3123  -40.5580 H         1 UNK         0.0600 
    174 H174        2.7761  -11.7325  -43.3795 H         1 UNK         0.3000 
    175 H175        2.8852  -14.8493  -42.0308 H         1 UNK         0.0600 
    176 H176        1.5061  -14.5756  -44.7556 H         1 UNK         0.0600 
    177 H177        2.5094  -15.9385  -44.2592 H         1 UNK         0.0600 
    178 H178        1.0013  -15.6040  -43.4266 H         1 UNK         0.0600 
    179 H179        3.8056  -13.5877  -44.5188 H         1 UNK         0.3000 
    180 H180        6.4714  -11.8615  -43.0484 H         1 UNK         0.0600 
    181 H181        6.8673  -14.5658  -44.4430 H         1 UNK         0.0600 
    182 H182        7.5463  -14.1142  -42.8840 H         1 UNK         0.0600 
    183 H183        8.0615  -13.2713  -44.3351 H         1 UNK         0.0600 
    184 H184        6.0714  -12.6288  -45.7519 H         1 UNK         0.3000 
    185 H185        3.5047  -10.3821  -46.6454 H         1 UNK         0.0600 
    186 H186        5.2125   -9.5271  -48.2301 H         1 UNK         0.0600 
    187 H187        5.5136   -8.8952  -46.6196 H         1 UNK         0.0600 
    188 H188        6.5088  -10.2050  -47.2442 H         1 UNK         0.0600 
    189 H189        5.1774  -12.0808  -48.1987 H         1 UNK         0.3000 
    190 H190       -1.7875  -23.6297  -47.1200 H         1 UNK         0.3000 
    191 H191       -2.5772  -23.4642  -49.7744 H         1 UNK         0.0600 
    192 H192       -4.7453  -23.0137  -48.9015 H         1 UNK         0.0600 
    193 H193       -3.6568  -22.4908  -47.6293 H         1 UNK         0.0600 
    194 H194       -4.5083  -24.0187  -47.4714 H         1 UNK         0.0600 
    195 H195       -2.9050  -26.2754  -47.6194 H         1 UNK         0.3000 
    196 H196       -4.5490  -27.8345  -49.3997 H         1 UNK         0.0600 
    197 H197       -4.0416  -29.6698  -47.7864 H         1 UNK         0.0600 
    198 H198       -4.5286  -28.2056  -46.9477 H         1 UNK         0.0600 
    199 H199       -2.8267  -28.6665  -47.0030 H         1 UNK         0.0600 
    200 H200       -1.0548  -27.4208  -49.0181 H         1 UNK         0.3000 
    201 H201       -0.3416  -29.7364  -50.6711 H         1 UNK         0.0600 
    202 H202        1.1167  -29.0358  -48.7778 H         1 UNK         0.0600 
    203 H203        1.3668  -27.4606  -49.5296 H         1 UNK         0.0600 
    204 H204        1.9722  -28.9162  -50.3077 H         1 UNK         0.0600 
    205 H205       -0.4771  -26.1764  -50.9485 H         1 UNK         0.3000 
    206 H206        0.4844  -26.0254  -53.6522 H         1 UNK         0.0600 
    207 H207        0.6539  -24.1652  -51.9904 H         1 UNK         0.0600 
    208 H208       -0.2292  -23.6422  -53.4177 H         1 UNK         0.0600 
    209 H209       -1.1034  -24.0395  -51.9437 H         1 UNK         0.0600 
    210 H210       -2.6055  -26.7883  -52.3303 H         1 UNK         0.3000 
    211 H211       -4.6620  -27.1277  -53.0609 H         1 UNK         0.0600 
    212 H212       -3.6085  -27.0673  -55.9398 H         1 UNK         0.0600 
    213 H213       -5.1522  -27.7068  -55.3988 H         1 UNK         0.0600 
    214 H214       -3.6615  -28.4951  -54.9070 H         1 UNK         0.0600 
    215 H215       -4.0802  -24.7462  -52.1749 H         1 UNK         0.3000 
    216 H216       -5.5152  -22.7287  -53.8641 H         1 UNK         0.0600 
    217 H217       -3.9427  -21.0451  -52.9669 H         1 UNK         0.0600 
    218 H218       -3.0254  -22.3107  -53.7686 H         1 UNK         0.0600 
    219 H219       -3.1184  -22.2717  -52.0101 H         1 UNK         0.0600 
    220 H220       -6.4859  -24.6498  -51.8255 H         1 UNK         0.3000 
    221 H221       -6.8692  -23.5844  -49.2821 H         1 UNK         0.0600 
    222 H222       -8.6459  -25.5033  -50.8686 H         1 UNK         0.0600 
    223 H223       -7.2616  -25.9462  -49.8679 H         1 UNK         0.0600 
    224 H224       -8.7019  -25.2695  -49.1252 H         1 UNK         0.0600 
    225 H225       -8.7009  -22.8510  -52.2101 H         1 UNK         0.3000 
    226 H226      -10.9346  -21.5586  -50.9713 H         1 UNK         0.0600 
    227 H227      -10.9848  -22.4054  -53.3038 H         1 UNK         0.0600 
    228 H228      -11.3297  -20.6838  -53.2782 H         1 UNK         0.0600 
    229 H229       -9.7405  -21.2485  -53.7794 H         1 UNK         0.0600 
    230 H230       -7.6707  -20.4636  -51.7174 H         1 UNK         0.3000 
    231 H231       -8.3144  -17.6231  -51.0374 H         1 UNK         0.0600 
    232 H232       -6.1107  -17.1725  -52.0986 H         1 UNK         0.0600 
    233 H233       -7.1517  -18.0383  -53.2165 H         1 UNK         0.0600 
    234 H234       -5.8591  -18.8922  -52.3741 H         1 UNK         0.0600 
    235 H235       -7.2592  -20.4669  -49.6215 H         1 UNK         0.3000 
    236 H236       -6.0485  -21.1674  -47.9196 H         1 UNK         0.0600 
    237 H237       -7.5429  -19.7627  -46.5637 H         1 UNK         0.0600 
    238 H238       -5.9399  -19.7631  -45.8519 H         1 UNK         0.0600 
    239 H239       -6.4952  -18.3669  -46.7707 H         1 UNK         0.0600 
    240 H240       -4.6413  -20.2206  -50.1987 H         1 UNK         0.3000 
    241 H241       -2.6949  -19.7184  -51.0352 H         1 UNK         0.0600 
    242 H242       -4.2709  -17.3977  -49.5169 H         1 UNK         0.3800 
    243 H243       -3.0489  -16.1448  -49.5629 H         1 UNK         0.3800 
    244 H244       -0.7642  -19.8024  -48.8198 H         1 UNK         0.0800 
    245 H245       -1.8893  -21.0901  -48.6059 H         1 UNK         0.0800 
    246 H246        1.2003  -20.7756  -51.9917 H         1 UNK         0.0800 
    247 H247        0.4442  -19.3710  -51.2852 H         1 UNK         0.0800 
@<TRIPOS>BOND
     1    1    2 1    
     2    1  127 1    
     3    1  128 1    
     4    1  129 1    
     5    2    3 2    
     6    2    4 am   BACKBONE|DICT|INTERRES
     7    4    5 1    
     8    4  130 1    
     9    5    6 1    
    10    5   65 1    
    11    5  131 1    
    12    6    7 1    
    13    6  132 1    
    14    6  133 1    
    15    7    8 1    
    16    8    9 1    
    17    8  134 1    
    18    8  135 1    
    19    9   10 ar   
    20    9   14 ar   
    21   10   11 ar   
    22   10  136 1    
    23   11   12 ar   
    24   11  126 1    
    25   12   13 ar   
    26   12  137 1    
    27   13   14 ar   
    28   13   15 1    
    29   14  138 1    
    30   15   16 1    
    31   15  139 1    
    32   15  140 1    
    33   16   17 1    
    34   17   18 1    
    35   17  141 1    
    36   17  142 1    
    37   18   19 1    
    38   18   67 1    
    39   18  143 1    
    40   19   20 am   BACKBONE|DICT|INTERRES
    41   19  144 1    
    42   20   21 2    
    43   20   22 1    
    44   22   23 1    
    45   22   24 1    
    46   22  145 1    
    47   23  146 1    
    48   23  147 1    
    49   23  148 1    
    50   24   25 am   BACKBONE|DICT|INTERRES
    51   24  149 1    
    52   25   26 2    
    53   25   27 1    
    54   27   28 1    
    55   27   29 1    
    56   27  150 1    
    57   28  151 1    
    58   28  152 1    
    59   28  153 1    
    60   29   30 am   BACKBONE|DICT|INTERRES
    61   29  154 1    
    62   30   31 2    
    63   30   32 1    
    64   32   33 1    
    65   32   34 1    
    66   32  155 1    
    67   33  156 1    
    68   33  157 1    
    69   33  158 1    
    70   34   35 am   BACKBONE|DICT|INTERRES
    71   34  159 1    
    72   35   36 2    
    73   35   37 1    
    74   37   38 1    
    75   37   39 1    
    76   37  160 1    
    77   38  161 1    
    78   38  162 1    
    79   38  163 1    
    80   39   40 am   BACKBONE|DICT|INTERRES
    81   39  164 1    
    82   40   41 2    
    83   40   42 1    
    84   42   43 1    
    85   42   44 1    
    86   42  165 1    
    87   43  166 1    
    88   43  167 1    
    89   43  168 1    
    90   44   45 am   BACKBONE|DICT|INTERRES
    91   44  169 1    
    92   45   46 2    
    93   45   47 1    
    94   47   48 1    
    95   47   49 1    
    96   47  170 1    
    97   48  171 1    
    98   48  172 1    
    99   48  173 1    
   100   49   50 am   BACKBONE|DICT|INTERRES
   101   49  174 1    
   102   50   51 2    
   103   50   52 1    
   104   52   53 1    
   105   52   54 1    
   106   52  175 1    
   107   53  176 1    
   108   53  177 1    
   109   53  178 1    
   110   54   55 am   BACKBONE|DICT|INTERRES
   111   54  179 1    
   112   55   56 2    
   113   55   57 1    
   114   57   58 1    
   115   57   59 1    
   116   57  180 1    
   117   58  181 1    
   118   58  182 1    
   119   58  183 1    
   120   59   60 am   BACKBONE|DICT|INTERRES
   121   59  184 1    
   122   60   61 2    
   123   60   62 1    
   124   62   63 1    
   125   62   64 1    
   126   62  185 1    
   127   63  186 1    
   128   63  187 1    
   129   63  188 1    
   130   64   65 am   BACKBONE|DICT|INTERRES
   131   64  189 1    
   132   65   66 2    
   133   67   68 2    
   134   67   69 am   BACKBONE|DICT|INTERRES
   135   69   70 1    
   136   69  190 1    
   137   70   71 1    
   138   70   72 1    
   139   70  191 1    
   140   71  192 1    
   141   71  193 1    
   142   71  194 1    
   143   72   73 2    
   144   72   74 am   BACKBONE|DICT|INTERRES
   145   74   75 1    
   146   74  195 1    
   147   75   76 1    
   148   75   77 1    
   149   75  196 1    
   150   76  197 1    
   151   76  198 1    
   152   76  199 1    
   153   77   78 2    
   154   77   79 am   BACKBONE|DICT|INTERRES
   155   79   80 1    
   156   79  200 1    
   157   80   81 1    
   158   80   82 1    
   159   80  201 1    
   160   81  202 1    
   161   81  203 1    
   162   81  204 1    
   163   82   83 2    
   164   82   84 am   BACKBONE|DICT|INTERRES
   165   84   85 1    
   166   84  205 1    
   167   85   86 1    
   168   85   87 1    
   169   85  206 1    
   170   86  207 1    
   171   86  208 1    
   172   86  209 1    
   173   87   88 2    
   174   87   89 am   BACKBONE|DICT|INTERRES
   175   89   90 1    
   176   89  210 1    
   177   90   91 1    
   178   90   92 1    
   179   90  211 1    
   180   91  212 1    
   181   91  213 1    
   182   91  214 1    
   183   92   93 2    
   184   92   94 am   BACKBONE|DICT|INTERRES
   185   94   95 1    
   186   94  215 1    
   187   95   96 1    
   188   95   97 1    
   189   95  216 1    
   190   96  217 1    
   191   96  218 1    
   192   96  219 1    
   193   97   98 2    
   194   97   99 am   BACKBONE|DICT|INTERRES
   195   99  100 1    
   196   99  220 1    
   197  100  101 1    
   198  100  102 1    
   199  100  221 1    
   200  101  222 1    
   201  101  223 1    
   202  101  224 1    
   203  102  103 2    
   204  102  104 am   BACKBONE|DICT|INTERRES
   205  104  105 1    
   206  104  225 1    
   207  105  106 1    
   208  105  107 1    
   209  105  226 1    
   210  106  227 1    
   211  106  228 1    
   212  106  229 1    
   213  107  108 2    
   214  107  109 am   BACKBONE|DICT|INTERRES
   215  109  110 1    
   216  109  230 1    
   217  110  111 1    
   218  110  112 1    
   219  110  231 1    
   220  111  232 1    
   221  111  233 1    
   222  111  234 1    
   223  112  113 2    
   224  112  114 am   BACKBONE|DICT|INTERRES
   225  114  115 1    
   226  114  235 1    
   227  115  116 1    
   228  115  117 1    
   229  115  236 1    
   230  116  237 1    
   231  116  238 1    
   232  116  239 1    
   233  117  118 2    
   234  117  119 am   BACKBONE|DICT|INTERRES
   235  119  120 1    
   236  119  240 1    
   237  120  121 1    
   238  120  124 1    
   239  120  241 1    
   240  121  122 am   BACKBONE|DICT|INTERRES
   241  121  123 2    
   242  122  242 1    
   243  122  243 1    
   244  124  125 1    
   245  124  244 1    
   246  124  245 1    
   247  125  126 1    
   248  126  246 1    
   249  126  247 1    
@<TRIPOS>SUBSTRUCTURE
     1 UNK         1 GROUP             0       ****    0 ROOT    
