@<TRIPOS>MOLECULE
3R540
247   249    1
SMALL
USER_CHARGES


@<TRIPOS>ATOM
      1 CA         -4.9238  -13.9734  -51.4032 C.3       0 UNK        -0.1800 
      2 C          -4.2651  -15.0521  -50.5546 C.2       0 UNK         0.5000 
      3 O          -4.6738  -16.2078  -50.6202 O.2       0 UNK        -0.5000 
      4 N          -3.2597  -14.6708  -49.7536 N.am      1 UNK        -0.5000 
      5 CA         -2.4361  -15.5389  -48.8958 C.3       1 UNK         0.1400 
      6 C6         -1.4438  -16.4306  -49.7016 C.3       23 UNK        -0.0398 
      7 S7          0.1867  -16.5451  -48.8836 S.3       23 UNK        -0.2404 
      8 C8          1.3001  -16.9297  -50.2708 C.3       23 UNK        -0.0205 
      9 C9          1.3323  -18.4162  -50.5997 C.ar      23 UNK        -0.0193 
     10 C10         0.4856  -18.9388  -51.5808 C.ar      23 UNK        -0.1150 
     11 C11         0.5541  -20.2900  -51.9316 C.ar      23 UNK        -0.0193 
     12 C12         1.4626  -21.1256  -51.2767 C.ar      23 UNK        -0.1150 
     13 C13         2.3172  -20.6200  -50.2924 C.ar      23 UNK        -0.0193 
     14 C14         2.2464  -19.2617  -49.9596 C.ar      23 UNK        -0.1150 
     15 C15         3.3485  -21.5413  -49.6437 C.3       23 UNK        -0.0205 
     16 S16         3.3299  -21.5097  -47.8207 S.3       23 UNK        -0.2404 
     17 C17         1.6228  -22.0227  -47.4446 C.3       23 UNK        -0.0398 
     18 CA          1.5246  -23.1979  -46.4403 C.3       11 UNK         0.1400 
     19 N           2.1808  -22.8986  -45.1657 N.am      11 UNK        -0.5000 
     20 C           2.6169  -23.8252  -44.3026 C.2       10 UNK         0.5000 
     21 O           2.5273  -25.0366  -44.5137 O.2       10 UNK        -0.5000 
     22 CA          3.2488  -23.3192  -42.9858 C.3       10 UNK         0.1400 
     23 CB          4.1837  -24.3546  -42.3266 C.3       10 UNK        -0.1800 
     24 N           3.9173  -22.0204  -43.1123 N.am      10 UNK        -0.5000 
     25 C           4.9708  -21.6985  -43.8798 C.2       9 UNK         0.5000 
     26 O           5.5949  -22.5124  -44.5616 O.2       9 UNK        -0.5000 
     27 CA          5.4021  -20.2154  -43.8952 C.3       9 UNK         0.1400 
     28 CB          5.3188  -19.6308  -45.3148 C.3       9 UNK        -0.1800 
     29 N           4.5733  -19.3895  -43.0153 N.am      9 UNK        -0.5000 
     30 C           4.9148  -18.9709  -41.7897 C.2       8 UNK         0.5000 
     31 O           6.0124  -19.1853  -41.2743 O.2       8 UNK        -0.5000 
     32 CA          3.8432  -18.1953  -40.9933 C.3       8 UNK         0.1400 
     33 CB          4.0553  -16.6820  -41.1479 C.3       8 UNK        -0.1800 
     34 N           2.4678  -18.5280  -41.3782 N.am      8 UNK        -0.5000 
     35 C           1.9028  -19.7346  -41.2205 C.2       7 UNK         0.5000 
     36 O           2.4653  -20.6837  -40.6753 O.2       7 UNK        -0.5000 
     37 CA          0.5107  -19.9484  -41.8415 C.3       7 UNK         0.1400 
     38 CB         -0.5948  -19.6618  -40.8172 C.3       7 UNK        -0.1800 
     39 N           0.2871  -19.1583  -43.0545 N.am      7 UNK        -0.5000 
     40 C           0.9825  -19.3122  -44.1918 C.2       6 UNK         0.5000 
     41 O           1.9219  -20.0976  -44.3140 O.2       6 UNK        -0.5000 
     42 CA          0.5705  -18.4572  -45.3936 C.3       6 UNK         0.1400 
     43 CB         -0.5891  -19.1247  -46.1315 C.3       6 UNK        -0.1800 
     44 N           0.1560  -17.1204  -44.9859 N.am      6 UNK        -0.5000 
     45 C           0.9366  -16.0361  -45.0232 C.2       5 UNK         0.5000 
     46 O           2.0978  -16.0314  -45.4327 O.2       5 UNK        -0.5000 
     47 CA          0.3152  -14.7352  -44.4809 C.3       5 UNK         0.1400 
     48 CB         -0.4722  -14.0171  -45.5878 C.3       5 UNK        -0.1800 
     49 N          -0.5663  -14.9434  -43.3293 N.am      5 UNK        -0.5000 
     50 C          -0.1959  -15.4893  -42.1620 C.2       4 UNK         0.5000 
     51 O           0.9403  -15.8975  -41.9204 O.2       4 UNK        -0.5000 
     52 CA         -1.2866  -15.6348  -41.0864 C.3       4 UNK         0.1400 
     53 CB         -1.3418  -14.3716  -40.2143 C.3       4 UNK        -0.1800 
     54 N          -2.6334  -15.9242  -41.5883 N.am      4 UNK        -0.5000 
     55 C          -2.9985  -16.9025  -42.4308 C.2       3 UNK         0.5000 
     56 O          -2.2011  -17.6471  -43.0071 O.2       3 UNK        -0.5000 
     57 CA         -4.5168  -17.0989  -42.6517 C.3       3 UNK         0.1400 
     58 CB         -5.4077  -16.0979  -41.8812 C.3       3 UNK        -0.1800 
     59 N          -4.8980  -17.1135  -44.0651 N.am      3 UNK        -0.5000 
     60 C          -4.6412  -16.1697  -44.9803 C.2       2 UNK         0.5000 
     61 O          -4.0138  -15.1314  -44.7507 O.2       2 UNK        -0.5000 
     62 CA         -5.2343  -16.4127  -46.3806 C.3       2 UNK         0.1400 
     63 CB         -6.6531  -15.8328  -46.4806 C.3       2 UNK        -0.1800 
     64 N          -4.4023  -15.8083  -47.4188 N.am      2 UNK        -0.5000 
     65 C          -3.2434  -16.3331  -47.8367 C.2       1 UNK         0.5000 
     66 O          -2.8109  -17.3992  -47.4067 O.2       1 UNK        -0.5000 
     67 C           0.0430  -23.5560  -46.1990 C.2       11 UNK         0.5000 
     68 O          -0.6217  -22.9018  -45.3913 O.2       11 UNK        -0.5000 
     69 N          -0.4749  -24.5330  -46.9602 N.am      12 UNK        -0.5000 
     70 CA         -1.8880  -24.9479  -46.9585 C.3       12 UNK         0.1400 
     71 CB         -2.0351  -26.2303  -47.7908 C.3       12 UNK        -0.1800 
     72 C          -2.8563  -23.8603  -47.4727 C.2       12 UNK         0.5000 
     73 O          -4.0528  -23.9038  -47.1743 O.2       12 UNK        -0.5000 
     74 N          -2.3029  -22.8726  -48.1914 N.am      13 UNK        -0.5000 
     75 CA         -2.9523  -21.6479  -48.6567 C.3       13 UNK         0.1400 
     76 CB         -1.9104  -20.7857  -49.3802 C.3       13 UNK        -0.1800 
     77 C          -3.6523  -20.8328  -47.5523 C.2       13 UNK         0.5000 
     78 O          -4.5966  -20.1103  -47.8639 O.2       13 UNK        -0.5000 
     79 N          -3.2243  -21.0030  -46.2914 N.am      14 UNK        -0.5000 
     80 CA         -3.8008  -20.3645  -45.1089 C.3       14 UNK         0.1400 
     81 CB         -3.0116  -20.7963  -43.8632 C.3       14 UNK        -0.1800 
     82 C          -5.2935  -20.6737  -44.9191 C.2       14 UNK         0.5000 
     83 O          -6.0592  -19.7679  -44.5842 O.2       14 UNK        -0.5000 
     84 N          -5.6652  -21.9384  -45.1550 N.am      15 UNK        -0.5000 
     85 CA         -7.0400  -22.4220  -45.0797 C.3       15 UNK         0.1400 
     86 CB         -7.0297  -23.8803  -44.5949 C.3       15 UNK        -0.1800 
     87 C          -7.7538  -22.3131  -46.4367 C.2       15 UNK         0.5000 
     88 O          -8.9442  -21.9985  -46.4686 O.2       15 UNK        -0.5000 
     89 N          -7.0269  -22.5916  -47.5291 N.am      16 UNK        -0.5000 
     90 CA         -7.5796  -22.6404  -48.8848 C.3       16 UNK         0.1400 
     91 CB         -6.6264  -23.4419  -49.7855 C.3       16 UNK        -0.1800 
     92 C          -7.8665  -21.2566  -49.5012 C.2       16 UNK         0.5000 
     93 O          -8.7140  -21.1692  -50.3909 O.2       16 UNK        -0.5000 
     94 N          -7.1461  -20.2191  -49.0456 N.am      17 UNK        -0.5000 
     95 CA         -7.1079  -18.8548  -49.5890 C.3       17 UNK         0.1400 
     96 CB         -8.4527  -18.1295  -49.3752 C.3       17 UNK        -0.1800 
     97 C          -6.6192  -18.8374  -51.0536 C.2       17 UNK         0.5000 
     98 O          -7.2095  -18.1713  -51.9070 O.2       17 UNK        -0.5000 
     99 N          -5.5616  -19.6157  -51.3167 N.am      18 UNK        -0.5000 
    100 CA        -4.9052  -19.7192  -52.6143 C.3       18 UNK         0.1400 
    101 CB        -4.2630  -21.1110  -52.7415 C.3       18 UNK        -0.1800 
    102 C         -3.8492  -18.6123  -52.7425 C.2       18 UNK         0.5000 
    103 O         -2.9292  -18.5605  -51.9262 O.2       18 UNK        -0.5000 
    104 N         -3.9882  -17.7600  -53.7647 N.am      19 UNK        -0.5000 
    105 CA        -3.0405  -16.6905  -54.0796 C.3       19 UNK         0.1400 
    106 CB        -3.6601  -15.7842  -55.1549 C.3       19 UNK        -0.1800 
    107 C         -1.6823  -17.2392  -54.5560 C.2       19 UNK         0.5000 
    108 O         -1.6131  -18.3656  -55.0490 O.2       19 UNK        -0.5000 
    109 N         -0.6356  -16.4081  -54.4554 N.am      20 UNK        -0.5000 
    110 CA         0.7634  -16.7253  -54.7833 C.3       20 UNK         0.1400 
    111 CB         1.6395  -15.5262  -54.3869 C.3       20 UNK        -0.1800 
    112 C          1.0387  -17.1400  -56.2480 C.2       20 UNK         0.5000 
    113 O          2.1402  -17.6004  -56.5485 O.2       20 UNK        -0.5000 
    114 N          0.0382  -16.9951  -57.1267 N.am      21 UNK        -0.5000 
    115 CA         0.0121  -17.5225  -58.4920 C.3       21 UNK         0.1400 
    116 CB        -1.1255  -16.8251  -59.2561 C.3       21 UNK        -0.1800 
    117 C         -0.1428  -19.0608  -58.5655 C.2       21 UNK         0.5000 
    118 O         -0.0451  -19.6136  -59.6625 O.2       21 UNK        -0.5000 
    119 N         -0.3997  -19.7165  -57.4235 N.am      22 UNK        -0.5000 
    120 CA        -0.4922  -21.1736  -57.2349 C.3       22 UNK         0.1400 
    121 C          0.6967  -21.9986  -57.8173 C.2       22 UNK         0.5000 
    122 N          0.4471  -23.2292  -58.2460 N.am      22 UNK        -0.7600 
    123 O          1.8432  -21.5561  -57.8539 O.2       22 UNK        -0.5000 
    124 C124       -0.7423  -21.5272  -55.7419 C.3       23 UNK        -0.0398 
    125 S125        0.5694  -20.9462  -54.6051 S.3       23 UNK        -0.2404 
    126 C126       -0.3361  -20.8468  -53.0313 C.3       23 UNK        -0.0205 
    127 H127       -4.4686  -12.9957  -51.2449 H         1 UNK         0.0600 
    128 H128       -5.9829  -13.9002  -51.1587 H         1 UNK         0.0600 
    129 H129       -4.8350  -14.2228  -52.4604 H         1 UNK         0.0600 
    130 H130       -2.9999  -13.6938  -49.7394 H         1 UNK         0.3000 
    131 H131       -1.8466  -14.8283  -48.3144 H         1 UNK         0.0600 
    132 H132       -1.8384  -17.4344  -49.8624 H         1 UNK         0.0800 
    133 H133       -1.2901  -16.0139  -50.6974 H         1 UNK         0.0800 
    134 H134        2.3051  -16.5977  -50.0063 H         1 UNK         0.0800 
    135 H135        1.0170  -16.3499  -51.1498 H         1 UNK         0.0800 
    136 H136       -0.2185  -18.2908  -52.0829 H         1 UNK         0.1150 
    137 H137        1.5200  -22.1679  -51.5576 H         1 UNK         0.1150 
    138 H138        2.9135  -18.8598  -49.2100 H         1 UNK         0.1150 
    139 H139        3.2087  -22.5724  -49.9727 H         1 UNK         0.0800 
    140 H140        4.3408  -21.2443  -49.9859 H         1 UNK         0.0800 
    141 H141        1.1155  -22.2814  -48.3753 H         1 UNK         0.0800 
    142 H142        1.1191  -21.1405  -47.0605 H         1 UNK         0.0800 
    143 H143        2.0214  -24.0614  -46.8882 H         1 UNK         0.0600 
    144 H144        2.2390  -21.9179  -44.9063 H         1 UNK         0.3000 
    145 H145        2.4135  -23.1555  -42.3035 H         1 UNK         0.0600 
    146 H146        4.5999  -23.9720  -41.3947 H         1 UNK         0.0600 
    147 H147        3.6450  -25.2720  -42.0864 H         1 UNK         0.0600 
    148 H148        5.0138  -24.6252  -42.9795 H         1 UNK         0.0600 
    149 H149        3.4917  -21.2729  -42.5809 H         1 UNK         0.3000 
    150 H150        6.4456  -20.1816  -43.5759 H         1 UNK         0.0600 
    151 H151        5.9070  -20.2179  -46.0211 H         1 UNK         0.0600 
    152 H152        5.7022  -18.6108  -45.3425 H         1 UNK         0.0600 
    153 H153        4.2914  -19.6097  -45.6798 H         1 UNK         0.0600 
    154 H154        3.6369  -19.2007  -43.3517 H         1 UNK         0.3000 
    155 H155        3.9684  -18.4525  -39.9395 H         1 UNK         0.0600 
    156 H156        5.0699  -16.3962  -40.8675 H         1 UNK         0.0600 
    157 H157        3.3727  -16.1217  -40.5088 H         1 UNK         0.0600 
    158 H158        3.8929  -16.3573  -42.1767 H         1 UNK         0.0600 
    159 H159        1.9268  -17.7855  -41.8087 H         1 UNK         0.3000 
    160 H160        0.4379  -21.0008  -42.1250 H         1 UNK         0.0600 
    161 H161       -0.5490  -18.6366  -40.4565 H         1 UNK         0.0600 
    162 H162       -0.4996  -20.3164  -39.9501 H         1 UNK         0.0600 
    163 H163       -1.5845  -19.8277  -41.2421 H         1 UNK         0.0600 
    164 H164       -0.5048  -18.5217  -43.0418 H         1 UNK         0.3000 
    165 H165        1.4242  -18.4102  -46.0735 H         1 UNK         0.0600 
    166 H166       -0.6000  -18.8384  -47.1817 H         1 UNK         0.0600 
    167 H167       -0.5488  -20.2108  -46.0840 H         1 UNK         0.0600 
    168 H168       -1.5393  -18.8280  -45.6951 H         1 UNK         0.0600 
    169 H169       -0.7737  -17.0354  -44.5938 H         1 UNK         0.3000 
    170 H170        1.1333  -14.0865  -44.1614 H         1 UNK         0.0600 
    171 H171        0.1466  -13.8608  -46.4726 H         1 UNK         0.0600 
    172 H172       -1.3449  -14.5952  -45.8940 H         1 UNK         0.0600 
    173 H173       -0.8187  -13.0386  -45.2551 H         1 UNK         0.0600 
    174 H174       -1.5344  -14.6772  -43.4450 H         1 UNK         0.3000 
    175 H175       -0.9978  -16.4645  -40.4424 H         1 UNK         0.0600 
    176 H176       -0.3592  -14.1364  -39.8026 H         1 UNK         0.0600 
    177 H177       -1.6752  -13.5036  -40.7846 H         1 UNK         0.0600 
    178 H178       -2.0212  -14.5017  -39.3716 H         1 UNK         0.0600 
    179 H179       -3.3718  -15.3584  -41.1964 H         1 UNK         0.3000 
    180 H180       -4.7419  -18.0959  -42.2707 H         1 UNK         0.0600 
    181 H181       -5.2339  -16.1537  -40.8058 H         1 UNK         0.0600 
    182 H182       -5.2377  -15.0683  -42.1990 H         1 UNK         0.0600 
    183 H183       -6.4635  -16.3183  -42.0405 H         1 UNK         0.0600 
    184 H184       -5.4171  -17.9387  -44.3519 H         1 UNK         0.3000 
    185 H185       -5.2905  -17.4896  -46.5589 H         1 UNK         0.0600 
    186 H186       -7.3147  -16.2926  -45.7451 H         1 UNK         0.0600 
    187 H187       -6.6617  -14.7565  -46.3040 H         1 UNK         0.0600 
    188 H188       -7.0852  -16.0162  -47.4647 H         1 UNK         0.0600 
    189 H189       -4.6947  -14.9138  -47.7834 H         1 UNK         0.3000 
    190 H190        0.1307  -25.0312  -47.5972 H         1 UNK         0.3000 
    191 H191       -2.1721  -25.1718  -45.9282 H         1 UNK         0.0600 
    192 H192       -1.7454  -26.0715  -48.8303 H         1 UNK         0.0600 
    193 H193       -3.0679  -26.5820  -47.7881 H         1 UNK         0.0600 
    194 H194       -1.4192  -27.0350  -47.3884 H         1 UNK         0.0600 
    195 H195       -1.3196  -22.9533  -48.3962 H         1 UNK         0.3000 
    196 H196       -3.7146  -21.9331  -49.3810 H         1 UNK         0.0600 
    197 H197       -2.3330  -19.8266  -49.6806 H         1 UNK         0.0600 
    198 H198       -1.5556  -21.2802  -50.2834 H         1 UNK         0.0600 
    199 H199       -1.0450  -20.5759  -48.7518 H         1 UNK         0.0600 
    200 H200       -2.4479  -21.6304  -46.1267 H         1 UNK         0.3000 
    201 H201       -3.6985  -19.2864  -45.2347 H         1 UNK         0.0600 
    202 H202       -3.3953  -20.3058  -42.9681 H         1 UNK         0.0600 
    203 H203       -3.0697  -21.8733  -43.7007 H         1 UNK         0.0600 
    204 H204       -1.9587  -20.5347  -43.9484 H         1 UNK         0.0600 
    205 H205       -4.9652  -22.5996  -45.4665 H         1 UNK         0.3000 
    206 H206       -7.6010  -21.8287  -44.3538 H         1 UNK         0.0600 
    207 H207       -6.5767  -23.9628  -43.6066 H         1 UNK         0.0600 
    208 H208       -8.0441  -24.2746  -44.5213 H         1 UNK         0.0600 
    209 H209       -6.4727  -24.5284  -45.2736 H         1 UNK         0.0600 
    210 H210       -6.0606  -22.8715  -47.4175 H         1 UNK         0.3000 
    211 H211       -8.5284  -23.1799  -48.8447 H         1 UNK         0.0600 
    212 H212       -7.0461  -23.5652  -50.7849 H         1 UNK         0.0600 
    213 H213       -6.4458  -24.4393  -49.3834 H         1 UNK         0.0600 
    214 H214       -5.6637  -22.9464  -49.8972 H         1 UNK         0.0600 
    215 H215       -6.4325  -20.4033  -48.3454 H         1 UNK         0.3000 
    216 H216       -6.3533  -18.3145  -49.0144 H         1 UNK         0.0600 
    217 H217       -8.3781  -17.0818  -49.6693 H         1 UNK         0.0600 
    218 H218       -8.7482  -18.1518  -48.3263 H         1 UNK         0.0600 
    219 H219       -9.2559  -18.5770  -49.9611 H         1 UNK         0.0600 
    220 H220       -5.1001  -20.0662  -50.5411 H         1 UNK         0.3000 
    221 H221       -5.6455  -19.6134  -53.4102 H         1 UNK         0.0600 
    222 H222       -5.0118  -21.8996  -52.6631 H         1 UNK         0.0600 
    223 H223       -3.7692  -21.2236  -53.7076 H         1 UNK         0.0600 
    224 H224       -3.5128  -21.2840  -51.9693 H         1 UNK         0.0600 
    225 H225       -4.7594  -17.8804  -54.4039 H         1 UNK         0.3000 
    226 H226       -2.8763  -16.1042  -53.1732 H         1 UNK         0.0600 
    227 H227       -3.8379  -16.3267  -56.0845 H         1 UNK         0.0600 
    228 H228       -4.6121  -15.3705  -54.8212 H         1 UNK         0.0600 
    229 H229       -3.0068  -14.9420  -55.3861 H         1 UNK         0.0600 
    230 H230       -0.7930  -15.4832  -54.0823 H         1 UNK         0.3000 
    231 H231        1.0545  -17.5764  -54.1647 H         1 UNK         0.0600 
    232 H232        1.5294  -15.2856  -53.3297 H         1 UNK         0.0600 
    233 H233        1.3841  -14.6363  -54.9634 H         1 UNK         0.0600 
    234 H234        2.6958  -15.7369  -54.5594 H         1 UNK         0.0600 
    235 H235       -0.8306  -16.6173  -56.7801 H         1 UNK         0.3000 
    236 H236        0.9572  -17.2687  -58.9762 H         1 UNK         0.0600 
    237 H237       -0.9928  -15.7430  -59.2611 H         1 UNK         0.0600 
    238 H238       -1.1574  -17.1507  -60.2966 H         1 UNK         0.0600 
    239 H239       -2.0984  -17.0432  -58.8137 H         1 UNK         0.0600 
    240 H240       -0.5165  -19.1718  -56.5760 H         1 UNK         0.3000 
    241 H241       -1.3804  -21.4768  -57.7918 H         1 UNK         0.0600 
    242 H242       -0.4815  -23.6221  -58.2241 H         1 UNK         0.3800 
    243 H243        1.2067  -23.7812  -58.6138 H         1 UNK         0.3800 
    244 H244       -1.6913  -21.0901  -55.4283 H         1 UNK         0.0800 
    245 H245       -0.8602  -22.6045  -55.6147 H         1 UNK         0.0800 
    246 H246       -1.2176  -20.2185  -53.1560 H         1 UNK         0.0800 
    247 H247       -0.6976  -21.8378  -52.7536 H         1 UNK         0.0800 
@<TRIPOS>BOND
     1    1    2 1    
     2    1  127 1    
     3    1  128 1    
     4    1  129 1    
     5    2    3 2    
     6    2    4 am   BACKBONE|DICT|INTERRES
     7    4    5 1    
     8    4  130 1    
     9    5    6 1    
    10    5   65 1    
    11    5  131 1    
    12    6    7 1    
    13    6  132 1    
    14    6  133 1    
    15    7    8 1    
    16    8    9 1    
    17    8  134 1    
    18    8  135 1    
    19    9   10 ar   
    20    9   14 ar   
    21   10   11 ar   
    22   10  136 1    
    23   11   12 ar   
    24   11  126 1    
    25   12   13 ar   
    26   12  137 1    
    27   13   14 ar   
    28   13   15 1    
    29   14  138 1    
    30   15   16 1    
    31   15  139 1    
    32   15  140 1    
    33   16   17 1    
    34   17   18 1    
    35   17  141 1    
    36   17  142 1    
    37   18   19 1    
    38   18   67 1    
    39   18  143 1    
    40   19   20 am   BACKBONE|DICT|INTERRES
    41   19  144 1    
    42   20   21 2    
    43   20   22 1    
    44   22   23 1    
    45   22   24 1    
    46   22  145 1    
    47   23  146 1    
    48   23  147 1    
    49   23  148 1    
    50   24   25 am   BACKBONE|DICT|INTERRES
    51   24  149 1    
    52   25   26 2    
    53   25   27 1    
    54   27   28 1    
    55   27   29 1    
    56   27  150 1    
    57   28  151 1    
    58   28  152 1    
    59   28  153 1    
    60   29   30 am   BACKBONE|DICT|INTERRES
    61   29  154 1    
    62   30   31 2    
    63   30   32 1    
    64   32   33 1    
    65   32   34 1    
    66   32  155 1    
    67   33  156 1    
    68   33  157 1    
    69   33  158 1    
    70   34   35 am   BACKBONE|DICT|INTERRES
    71   34  159 1    
    72   35   36 2    
    73   35   37 1    
    74   37   38 1    
    75   37   39 1    
    76   37  160 1    
    77   38  161 1    
    78   38  162 1    
    79   38  163 1    
    80   39   40 am   BACKBONE|DICT|INTERRES
    81   39  164 1    
    82   40   41 2    
    83   40   42 1    
    84   42   43 1    
    85   42   44 1    
    86   42  165 1    
    87   43  166 1    
    88   43  167 1    
    89   43  168 1    
    90   44   45 am   BACKBONE|DICT|INTERRES
    91   44  169 1    
    92   45   46 2    
    93   45   47 1    
    94   47   48 1    
    95   47   49 1    
    96   47  170 1    
    97   48  171 1    
    98   48  172 1    
    99   48  173 1    
   100   49   50 am   BACKBONE|DICT|INTERRES
   101   49  174 1    
   102   50   51 2    
   103   50   52 1    
   104   52   53 1    
   105   52   54 1    
   106   52  175 1    
   107   53  176 1    
   108   53  177 1    
   109   53  178 1    
   110   54   55 am   BACKBONE|DICT|INTERRES
   111   54  179 1    
   112   55   56 2    
   113   55   57 1    
   114   57   58 1    
   115   57   59 1    
   116   57  180 1    
   117   58  181 1    
   118   58  182 1    
   119   58  183 1    
   120   59   60 am   BACKBONE|DICT|INTERRES
   121   59  184 1    
   122   60   61 2    
   123   60   62 1    
   124   62   63 1    
   125   62   64 1    
   126   62  185 1    
   127   63  186 1    
   128   63  187 1    
   129   63  188 1    
   130   64   65 am   BACKBONE|DICT|INTERRES
   131   64  189 1    
   132   65   66 2    
   133   67   68 2    
   134   67   69 am   BACKBONE|DICT|INTERRES
   135   69   70 1    
   136   69  190 1    
   137   70   71 1    
   138   70   72 1    
   139   70  191 1    
   140   71  192 1    
   141   71  193 1    
   142   71  194 1    
   143   72   73 2    
   144   72   74 am   BACKBONE|DICT|INTERRES
   145   74   75 1    
   146   74  195 1    
   147   75   76 1    
   148   75   77 1    
   149   75  196 1    
   150   76  197 1    
   151   76  198 1    
   152   76  199 1    
   153   77   78 2    
   154   77   79 am   BACKBONE|DICT|INTERRES
   155   79   80 1    
   156   79  200 1    
   157   80   81 1    
   158   80   82 1    
   159   80  201 1    
   160   81  202 1    
   161   81  203 1    
   162   81  204 1    
   163   82   83 2    
   164   82   84 am   BACKBONE|DICT|INTERRES
   165   84   85 1    
   166   84  205 1    
   167   85   86 1    
   168   85   87 1    
   169   85  206 1    
   170   86  207 1    
   171   86  208 1    
   172   86  209 1    
   173   87   88 2    
   174   87   89 am   BACKBONE|DICT|INTERRES
   175   89   90 1    
   176   89  210 1    
   177   90   91 1    
   178   90   92 1    
   179   90  211 1    
   180   91  212 1    
   181   91  213 1    
   182   91  214 1    
   183   92   93 2    
   184   92   94 am   BACKBONE|DICT|INTERRES
   185   94   95 1    
   186   94  215 1    
   187   95   96 1    
   188   95   97 1    
   189   95  216 1    
   190   96  217 1    
   191   96  218 1    
   192   96  219 1    
   193   97   98 2    
   194   97   99 am   BACKBONE|DICT|INTERRES
   195   99  100 1    
   196   99  220 1    
   197  100  101 1    
   198  100  102 1    
   199  100  221 1    
   200  101  222 1    
   201  101  223 1    
   202  101  224 1    
   203  102  103 2    
   204  102  104 am   BACKBONE|DICT|INTERRES
   205  104  105 1    
   206  104  225 1    
   207  105  106 1    
   208  105  107 1    
   209  105  226 1    
   210  106  227 1    
   211  106  228 1    
   212  106  229 1    
   213  107  108 2    
   214  107  109 am   BACKBONE|DICT|INTERRES
   215  109  110 1    
   216  109  230 1    
   217  110  111 1    
   218  110  112 1    
   219  110  231 1    
   220  111  232 1    
   221  111  233 1    
   222  111  234 1    
   223  112  113 2    
   224  112  114 am   BACKBONE|DICT|INTERRES
   225  114  115 1    
   226  114  235 1    
   227  115  116 1    
   228  115  117 1    
   229  115  236 1    
   230  116  237 1    
   231  116  238 1    
   232  116  239 1    
   233  117  118 2    
   234  117  119 am   BACKBONE|DICT|INTERRES
   235  119  120 1    
   236  119  240 1    
   237  120  121 1    
   238  120  124 1    
   239  120  241 1    
   240  121  122 am   BACKBONE|DICT|INTERRES
   241  121  123 2    
   242  122  242 1    
   243  122  243 1    
   244  124  125 1    
   245  124  244 1    
   246  124  245 1    
   247  125  126 1    
   248  126  246 1    
   249  126  247 1    
@<TRIPOS>SUBSTRUCTURE
     1 UNK         1 GROUP             0       ****    0 ROOT    
