@<TRIPOS>MOLECULE
3R540
247   249    1
SMALL
USER_CHARGES


@<TRIPOS>ATOM
      1 CA          3.5940  -10.3830  -50.9408 C.3       0 UNK        -0.1800 
      2 C           3.6895  -11.0565  -49.5795 C.2       0 UNK         0.5000 
      3 O           4.7621  -11.5276  -49.1997 O.2       0 UNK        -0.5000 
      4 N           2.5802  -11.0895  -48.8312 N.am      1 UNK        -0.5000 
      5 CA          2.4390  -11.7235  -47.5110 C.3       1 UNK         0.1400 
      6 C6          0.9700  -12.1338  -47.2278 C.3       23 UNK        -0.0398 
      7 S7          0.2853  -13.2234  -48.5235 S.3       23 UNK        -0.2404 
      8 C8          0.4544  -14.8450  -47.7206 C.3       23 UNK        -0.0205 
      9 C9          0.0237  -15.9904  -48.6259 C.ar      23 UNK        -0.0193 
     10 C10        -1.2776  -16.0397  -49.1378 C.ar      23 UNK        -0.1150 
     11 C11        -1.7027  -17.1297  -49.9029 C.ar      23 UNK        -0.0193 
     12 C12        -0.8040  -18.1630  -50.1759 C.ar      23 UNK        -0.1150 
     13 C13         0.5037  -18.1219  -49.6847 C.ar      23 UNK        -0.0193 
     14 C14         0.9113  -17.0333  -48.9090 C.ar      23 UNK        -0.1150 
     15 C15         1.4734  -19.2552  -49.9888 C.3       23 UNK        -0.0205 
     16 S16         1.5818  -20.4548  -48.6223 S.3       23 UNK        -0.2404 
     17 C17        -0.0990  -21.1581  -48.6400 C.3       23 UNK        -0.0398 
     18 CA         -0.2388  -22.3939  -47.7217 C.3       11 UNK         0.1400 
     19 N          -0.1583  -22.0398  -46.2994 N.am      11 UNK        -0.5000 
     20 C          -0.1272  -22.9215  -45.2895 C.2       10 UNK         0.5000 
     21 O          -0.1302  -24.1410  -45.4489 O.2       10 UNK        -0.5000 
     22 CA         -0.1598  -22.3518  -43.8592 C.3       10 UNK         0.1400 
     23 CB          1.2023  -21.7654  -43.4597 C.3       10 UNK        -0.1800 
     24 N          -1.2091  -21.3472  -43.6851 N.am      10 UNK        -0.5000 
     25 C          -2.5213  -21.5978  -43.8041 C.2       9 UNK         0.5000 
     26 O          -2.9886  -22.7148  -44.0232 O.2       9 UNK        -0.5000 
     27 CA         -3.4704  -20.3908  -43.7149 C.3       9 UNK         0.1400 
     28 CB         -3.8001  -20.0524  -42.2534 C.3       9 UNK        -0.1800 
     29 N          -2.9252  -19.2120  -44.3855 N.am      9 UNK        -0.5000 
     30 C          -2.7332  -19.1159  -45.7088 C.2       8 UNK         0.5000 
     31 O          -3.0243  -19.9999  -46.5135 O.2       8 UNK        -0.5000 
     32 CA         -2.0490  -17.8343  -46.2062 C.3       8 UNK         0.1400 
     33 CB         -3.0605  -16.6804  -46.2861 C.3       8 UNK        -0.1800 
     34 N          -0.9180  -17.4474  -45.3621 N.am      8 UNK        -0.5000 
     35 C           0.1976  -18.1826  -45.2259 C.2       7 UNK         0.5000 
     36 O           0.3840  -19.2459  -45.8128 O.2       7 UNK        -0.5000 
     37 CA          1.2550  -17.6943  -44.2169 C.3       7 UNK         0.1400 
     38 CB          2.2850  -16.7879  -44.9049 C.3       7 UNK        -0.1800 
     39 N           0.6717  -16.9883  -43.0776 N.am      7 UNK        -0.5000 
     40 C          -0.2100  -17.5225  -42.2192 C.2       6 UNK         0.5000 
     41 O          -0.5409  -18.7087  -42.2390 O.2       6 UNK        -0.5000 
     42 CA         -0.8745  -16.5693  -41.2055 C.3       6 UNK         0.1400 
     43 CB         -0.2497  -16.7511  -39.8144 C.3       6 UNK        -0.1800 
     44 N          -0.8036  -15.1516  -41.5747 N.am      6 UNK        -0.5000 
     45 C          -1.3224  -14.5896  -42.6784 C.2       5 UNK         0.5000 
     46 O          -1.9481  -15.2162  -43.5329 O.2       5 UNK        -0.5000 
     47 CA         -1.0394  -13.0876  -42.8850 C.3       5 UNK         0.1400 
     48 CB         -2.1987  -12.2404  -42.3405 C.3       5 UNK        -0.1800 
     49 N           0.2124  -12.6650  -42.2476 N.am      5 UNK        -0.5000 
     50 C           1.4279  -13.0258  -42.6778 C.2       4 UNK         0.5000 
     51 O           1.6263  -13.6667  -43.7134 O.2       4 UNK        -0.5000 
     52 CA          2.6064  -12.6895  -41.7565 C.3       4 UNK         0.1400 
     53 CB          2.7461  -13.7913  -40.6840 C.3       4 UNK        -0.1800 
     54 N           3.8087  -12.5971  -42.5768 N.am      4 UNK        -0.5000 
     55 C           5.0360  -12.2520  -42.1720 C.2       3 UNK         0.5000 
     56 O           5.3297  -11.9654  -41.0108 O.2       3 UNK        -0.5000 
     57 CA          6.1132  -12.1862  -43.2693 C.3       3 UNK         0.1400 
     58 CB          6.5154  -13.5958  -43.7326 C.3       3 UNK        -0.1800 
     59 N           5.6777  -11.3986  -44.4236 N.am      3 UNK        -0.5000 
     60 C           5.4648  -10.0745  -44.4055 C.2       2 UNK         0.5000 
     61 O           5.6526   -9.3640  -43.4170 O.2       2 UNK        -0.5000 
     62 CA          4.9683   -9.4261  -45.7107 C.3       2 UNK         0.1400 
     63 CB          6.1421   -8.8074  -46.4853 C.3       2 UNK        -0.1800 
     64 N           4.2592  -10.3534  -46.5931 N.am      2 UNK        -0.5000 
     65 C           3.0266  -10.8341  -46.3879 C.2       1 UNK         0.5000 
     66 O           2.3632  -10.5766  -45.3820 O.2       1 UNK        -0.5000 
     67 C          -1.5348  -23.1613  -48.0558 C.2       11 UNK         0.5000 
     68 O          -1.4865  -24.1416  -48.8061 O.2       11 UNK        -0.5000 
     69 N          -2.6644  -22.7171  -47.4841 N.am      12 UNK        -0.5000 
     70 CA         -3.9689  -23.3606  -47.6205 C.3       12 UNK         0.1400 
     71 CB         -5.0613  -22.4959  -46.9761 C.3       12 UNK        -0.1800 
     72 C          -3.9822  -24.7877  -47.0461 C.2       12 UNK         0.5000 
     73 O          -4.4243  -25.7114  -47.7297 O.2       12 UNK        -0.5000 
     74 N          -3.4565  -24.9454  -45.8241 N.am      13 UNK        -0.5000 
     75 CA         -3.3236  -26.2303  -45.1381 C.3       13 UNK         0.1400 
     76 CB         -2.8958  -25.9879  -43.6827 C.3       13 UNK        -0.1800 
     77 C          -2.3455  -27.1946  -45.8344 C.2       13 UNK         0.5000 
     78 O          -2.5926  -28.4012  -45.8375 O.2       13 UNK        -0.5000 
     79 N          -1.2593  -26.6519  -46.4025 N.am      14 UNK        -0.5000 
     80 CA         -0.2184  -27.4066  -47.0959 C.3       14 UNK         0.1400 
     81 CB          0.9907  -26.4995  -47.3764 C.3       14 UNK        -0.1800 
     82 C          -0.7137  -28.0742  -48.3894 C.2       14 UNK         0.5000 
     83 O          -0.5613  -29.2888  -48.5318 O.2       14 UNK        -0.5000 
     84 N          -1.2755  -27.2806  -49.3126 N.am      15 UNK        -0.5000 
     85 CA         -1.6440  -27.7477  -50.6534 C.3       15 UNK         0.1400 
     86 CB         -0.3727  -27.9552  -51.5088 C.3       15 UNK        -0.1800 
     87 C          -2.6538  -26.8161  -51.3456 C.2       15 UNK         0.5000 
     88 O          -2.5963  -26.6658  -52.5681 O.2       15 UNK        -0.5000 
     89 N          -3.5422  -26.1684  -50.5733 N.am      16 UNK        -0.5000 
     90 CA         -4.5434  -25.1967  -51.0451 C.3       16 UNK         0.1400 
     91 CB         -5.6343  -25.8974  -51.8814 C.3       16 UNK        -0.1800 
     92 C          -3.9110  -24.0008  -51.7921 C.2       16 UNK         0.5000 
     93 O          -4.5036  -23.4800  -52.7386 O.2       16 UNK        -0.5000 
     94 N          -2.6777  -23.6339  -51.4101 N.am      17 UNK        -0.5000 
     95 CA         -1.7862  -22.6631  -52.0608 C.3       17 UNK         0.1400 
     96 CB         -2.3736  -21.2421  -51.9324 C.3       17 UNK        -0.1800 
     97 C          -1.4252  -22.9866  -53.5307 C.2       17 UNK         0.5000 
     98 O          -0.8270  -22.1424  -54.1981 O.2       17 UNK        -0.5000 
     99 N          -1.8324  -24.1681  -54.0242 N.am      18 UNK        -0.5000 
    100 CA        -1.9079  -24.5706  -55.4329 C.3       18 UNK         0.1400 
    101 CB        -0.4950  -24.7743  -56.0171 C.3       18 UNK        -0.1800 
    102 C         -2.7836  -23.6230  -56.2908 C.2       18 UNK         0.5000 
    103 O         -2.5842  -23.5406  -57.5043 O.2       18 UNK        -0.5000 
    104 N         -3.7213  -22.9070  -55.6509 N.am      19 UNK        -0.5000 
    105 CA        -4.4679  -21.7934  -56.2381 C.3       19 UNK         0.1400 
    106 CB        -3.5558  -20.5520  -56.3495 C.3       19 UNK        -0.1800 
    107 C         -5.7559  -21.5013  -55.4469 C.2       19 UNK         0.5000 
    108 O         -6.1314  -20.3369  -55.3022 O.2       19 UNK        -0.5000 
    109 N         -6.4002  -22.5581  -54.9274 N.am      20 UNK        -0.5000 
    110 CA        -7.6589  -22.5412  -54.1667 C.3       20 UNK         0.1400 
    111 CB        -8.8430  -22.2468  -55.1105 C.3       20 UNK        -0.1800 
    112 C         -7.6254  -21.6007  -52.9406 C.2       20 UNK         0.5000 
    113 O         -8.5626  -20.8316  -52.7174 O.2       20 UNK        -0.5000 
    114 N         -6.5106  -21.6492  -52.1971 N.am      21 UNK        -0.5000 
    115 CA        -6.1834  -20.8344  -51.0198 C.3       21 UNK         0.1400 
    116 CB        -7.0885  -21.2186  -49.8315 C.3       21 UNK        -0.1800 
    117 C         -6.1754  -19.3160  -51.3084 C.2       21 UNK         0.5000 
    118 O         -6.5022  -18.5203  -50.4270 O.2       21 UNK        -0.5000 
    119 N         -5.8155  -18.9530  -52.5474 N.am      22 UNK        -0.5000 
    120 CA        -5.8811  -17.6000  -53.1263 C.3       22 UNK         0.1400 
    121 C         -7.3312  -17.1031  -53.4249 C.2       22 UNK         0.5000 
    122 N         -8.3622  -17.9379  -53.3557 N.am      22 UNK        -0.7600 
    123 O         -7.5298  -15.9374  -53.7573 O.2       22 UNK        -0.5000 
    124 C124       -5.0440  -16.5326  -52.3611 C.3       23 UNK        -0.0398 
    125 S125       -3.2721  -16.9476  -52.1860 S.3       23 UNK        -0.2404 
    126 C126       -3.1423  -17.2136  -50.3895 C.3       23 UNK        -0.0205 
    127 H127        4.2843   -9.5410  -50.9921 H         1 UNK         0.0600 
    128 H128        3.8572  -11.0899  -51.7277 H         1 UNK         0.0600 
    129 H129        2.5883  -10.0117  -51.1396 H         1 UNK         0.0600 
    130 H130        1.7363  -10.6694  -49.1941 H         1 UNK         0.3000 
    131 H131        3.0318  -12.6408  -47.5112 H         1 UNK         0.0600 
    132 H132        0.8890  -12.6340  -46.2606 H         1 UNK         0.0800 
    133 H133        0.3337  -11.2494  -47.1632 H         1 UNK         0.0800 
    134 H134       -0.1460  -14.8658  -46.8099 H         1 UNK         0.0800 
    135 H135        1.4940  -14.9713  -47.4160 H         1 UNK         0.0800 
    136 H136       -1.9680  -15.2391  -48.9130 H         1 UNK         0.1150 
    137 H137       -1.1282  -19.0049  -50.7651 H         1 UNK         0.1150 
    138 H138        1.9162  -17.0111  -48.5114 H         1 UNK         0.1150 
    139 H139        1.1850  -19.7714  -50.9059 H         1 UNK         0.0800 
    140 H140        2.4664  -18.8430  -50.1733 H         1 UNK         0.0800 
    141 H141       -0.3287  -21.4140  -49.6737 H         1 UNK         0.0800 
    142 H142       -0.8107  -20.3846  -48.3456 H         1 UNK         0.0800 
    143 H143        0.5897  -23.0724  -47.9350 H         1 UNK         0.0600 
    144 H144       -0.1011  -21.0457  -46.0882 H         1 UNK         0.3000 
    145 H145       -0.3810  -23.1771  -43.1790 H         1 UNK         0.0600 
    146 H146        1.1787  -21.3641  -42.4463 H         1 UNK         0.0600 
    147 H147        1.9768  -22.5326  -43.4894 H         1 UNK         0.0600 
    148 H148        1.5130  -20.9653  -44.1301 H         1 UNK         0.0600 
    149 H149       -0.9135  -20.4020  -43.4690 H         1 UNK         0.3000 
    150 H150       -4.4018  -20.6608  -44.2164 H         1 UNK         0.0600 
    151 H151       -4.2535  -20.9077  -41.7508 H         1 UNK         0.0600 
    152 H152       -4.5080  -19.2259  -42.1897 H         1 UNK         0.0600 
    153 H153       -2.9100  -19.7765  -41.6880 H         1 UNK         0.0600 
    154 H154       -2.6089  -18.4568  -43.7953 H         1 UNK         0.3000 
    155 H155       -1.6638  -18.0356  -47.2062 H         1 UNK         0.0600 
    156 H156       -3.5524  -16.5060  -45.3286 H         1 UNK         0.0600 
    157 H157       -3.8378  -16.8978  -47.0196 H         1 UNK         0.0600 
    158 H158       -2.5811  -15.7483  -46.5830 H         1 UNK         0.0600 
    159 H159       -1.0368  -16.6120  -44.8002 H         1 UNK         0.3000 
    160 H160        1.7768  -18.5723  -43.8322 H         1 UNK         0.0600 
    161 H161        3.0931  -16.5202  -44.2240 H         1 UNK         0.0600 
    162 H162        1.8289  -15.8641  -45.2587 H         1 UNK         0.0600 
    163 H163        2.7334  -17.2861  -45.7656 H         1 UNK         0.0600 
    164 H164        0.8804  -16.0025  -43.0051 H         1 UNK         0.3000 
    165 H165       -1.9296  -16.8444  -41.1488 H         1 UNK         0.0600 
    166 H166       -0.7661  -16.1487  -39.0669 H         1 UNK         0.0600 
    167 H167       -0.3123  -17.7910  -39.4903 H         1 UNK         0.0600 
    168 H168        0.8037  -16.4680  -39.8067 H         1 UNK         0.0600 
    169 H169       -0.3085  -14.5515  -40.9329 H         1 UNK         0.3000 
    170 H170       -0.9592  -12.9096  -43.9598 H         1 UNK         0.0600 
    171 H171       -3.1409  -12.5188  -42.8147 H         1 UNK         0.0600 
    172 H172       -2.3223  -12.3683  -41.2644 H         1 UNK         0.0600 
    173 H173       -2.0382  -11.1803  -42.5373 H         1 UNK         0.0600 
    174 H174        0.1276  -12.1305  -41.3946 H         1 UNK         0.3000 
    175 H175        2.4282  -11.7225  -41.2824 H         1 UNK         0.0600 
    176 H176        2.9703  -14.7603  -41.1324 H         1 UNK         0.0600 
    177 H177        3.5354  -13.5649  -39.9681 H         1 UNK         0.0600 
    178 H178        1.8260  -13.9010  -40.1093 H         1 UNK         0.0600 
    179 H179        3.6462  -12.8060  -43.5538 H         1 UNK         0.3000 
    180 H180        6.9965  -11.7053  -42.8433 H         1 UNK         0.0600 
    181 H181        5.6852  -14.1209  -44.2068 H         1 UNK         0.0600 
    182 H182        6.8483  -14.2025  -42.8895 H         1 UNK         0.0600 
    183 H183        7.3379  -13.5554  -44.4470 H         1 UNK         0.0600 
    184 H184        5.5085  -11.8975  -45.2841 H         1 UNK         0.3000 
    185 H185        4.2804   -8.6235  -45.4364 H         1 UNK         0.0600 
    186 H186        6.6818   -8.0869  -45.8692 H         1 UNK         0.0600 
    187 H187        6.8567   -9.5665  -46.8063 H         1 UNK         0.0600 
    188 H188        5.7937   -8.2781  -47.3725 H         1 UNK         0.0600 
    189 H189        4.7272  -10.6233  -47.4532 H         1 UNK         0.3000 
    190 H190       -2.6373  -21.8676  -46.9270 H         1 UNK         0.3000 
    191 H191       -4.1828  -23.4148  -48.6861 H         1 UNK         0.0600 
    192 H192       -4.9090  -22.3827  -45.9034 H         1 UNK         0.0600 
    193 H193       -6.0467  -22.9397  -47.1222 H         1 UNK         0.0600 
    194 H194       -5.0847  -21.4996  -47.4163 H         1 UNK         0.0600 
    195 H195       -3.1388  -24.1255  -45.3132 H         1 UNK         0.3000 
    196 H196       -4.3061  -26.7066  -45.1286 H         1 UNK         0.0600 
    197 H197       -1.9344  -25.4754  -43.6273 H         1 UNK         0.0600 
    198 H198       -2.8001  -26.9289  -43.1397 H         1 UNK         0.0600 
    199 H199       -3.6291  -25.3795  -43.1530 H         1 UNK         0.0600 
    200 H200       -1.0935  -25.6574  -46.2824 H         1 UNK         0.3000 
    201 H201        0.1150  -28.2007  -46.4245 H         1 UNK         0.0600 
    202 H202        1.7680  -27.0392  -47.9188 H         1 UNK         0.0600 
    203 H203        1.4355  -26.1401  -46.4485 H         1 UNK         0.0600 
    204 H204        0.7164  -25.6301  -47.9741 H         1 UNK         0.0600 
    205 H205       -1.3681  -26.2875  -49.1257 H         1 UNK         0.3000 
    206 H206       -2.1522  -28.7094  -50.5576 H         1 UNK         0.0600 
    207 H207        0.3112  -28.6706  -51.0529 H         1 UNK         0.0600 
    208 H208       -0.6182  -28.3451  -52.4975 H         1 UNK         0.0600 
    209 H209        0.1684  -27.0188  -51.6487 H         1 UNK         0.0600 
    210 H210       -3.5477  -26.3394  -49.5734 H         1 UNK         0.3000 
    211 H211       -5.0402  -24.7910  -50.1666 H         1 UNK         0.0600 
    212 H212       -5.2462  -26.2686  -52.8304 H         1 UNK         0.0600 
    213 H213       -6.4520  -25.2127  -52.1095 H         1 UNK         0.0600 
    214 H214       -6.0625  -26.7415  -51.3410 H         1 UNK         0.0600 
    215 H215       -2.2741  -24.1080  -50.6075 H         1 UNK         0.3000 
    216 H216       -0.8449  -22.6980  -51.5126 H         1 UNK         0.0600 
    217 H217       -3.2999  -21.1313  -52.4961 H         1 UNK         0.0600 
    218 H218       -1.6792  -20.4979  -52.3217 H         1 UNK         0.0600 
    219 H219       -2.5798  -20.9898  -50.8923 H         1 UNK         0.0600 
    220 H220       -2.2654  -24.8233  -53.3812 H         1 UNK         0.3000 
    221 H221       -2.4122  -25.5378  -55.4421 H         1 UNK         0.0600 
    222 H222        0.0466  -23.8322  -56.1060 H         1 UNK         0.0600 
    223 H223        0.0960  -25.4440  -55.3923 H         1 UNK         0.0600 
    224 H224       -0.5425  -25.2188  -57.0118 H         1 UNK         0.0600 
    225 H225       -3.8514  -23.0541  -54.6545 H         1 UNK         0.3000 
    226 H226       -4.7884  -22.0773  -57.2423 H         1 UNK         0.0600 
    227 H227       -2.6755  -20.7544  -56.9594 H         1 UNK         0.0600 
    228 H228       -4.0783  -19.7156  -56.8151 H         1 UNK         0.0600 
    229 H229       -3.2115  -20.2230  -55.3680 H         1 UNK         0.0600 
    230 H230       -5.9893  -23.4708  -55.0649 H         1 UNK         0.3000 
    231 H231       -7.7940  -23.5487  -53.7707 H         1 UNK         0.0600 
    232 H232       -8.8655  -22.9476  -55.9449 H         1 UNK         0.0600 
    233 H233       -8.7900  -21.2379  -55.5215 H         1 UNK         0.0600 
    234 H234       -9.7950  -22.3378  -54.5861 H         1 UNK         0.0600 
    235 H235       -5.7857  -22.3030  -52.4908 H         1 UNK         0.3000 
    236 H236       -5.1601  -21.0910  -50.7437 H         1 UNK         0.0600 
    237 H237       -6.7923  -20.6915  -48.9244 H         1 UNK         0.0600 
    238 H238       -8.1332  -20.9719  -50.0227 H         1 UNK         0.0600 
    239 H239       -7.0284  -22.2862  -49.6203 H         1 UNK         0.0600 
    240 H240       -5.6334  -19.6845  -53.2220 H         1 UNK         0.3000 
    241 H241       -5.4290  -17.7036  -54.1132 H         1 UNK         0.0600 
    242 H242       -8.2423  -18.9129  -53.1009 H         1 UNK         0.3800 
    243 H243       -9.2855  -17.5938  -53.5648 H         1 UNK         0.3800 
    244 H244       -5.0796  -15.5819  -52.8952 H         1 UNK         0.0800 
    245 H245       -5.4839  -16.3292  -51.3847 H         1 UNK         0.0800 
    246 H246       -3.7526  -16.4782  -49.8635 H         1 UNK         0.0800 
    247 H247       -3.5558  -18.1911  -50.1382 H         1 UNK         0.0800 
@<TRIPOS>BOND
     1    1    2 1    
     2    1  127 1    
     3    1  128 1    
     4    1  129 1    
     5    2    3 2    
     6    2    4 am   BACKBONE|DICT|INTERRES
     7    4    5 1    
     8    4  130 1    
     9    5    6 1    
    10    5   65 1    
    11    5  131 1    
    12    6    7 1    
    13    6  132 1    
    14    6  133 1    
    15    7    8 1    
    16    8    9 1    
    17    8  134 1    
    18    8  135 1    
    19    9   10 ar   
    20    9   14 ar   
    21   10   11 ar   
    22   10  136 1    
    23   11   12 ar   
    24   11  126 1    
    25   12   13 ar   
    26   12  137 1    
    27   13   14 ar   
    28   13   15 1    
    29   14  138 1    
    30   15   16 1    
    31   15  139 1    
    32   15  140 1    
    33   16   17 1    
    34   17   18 1    
    35   17  141 1    
    36   17  142 1    
    37   18   19 1    
    38   18   67 1    
    39   18  143 1    
    40   19   20 am   BACKBONE|DICT|INTERRES
    41   19  144 1    
    42   20   21 2    
    43   20   22 1    
    44   22   23 1    
    45   22   24 1    
    46   22  145 1    
    47   23  146 1    
    48   23  147 1    
    49   23  148 1    
    50   24   25 am   BACKBONE|DICT|INTERRES
    51   24  149 1    
    52   25   26 2    
    53   25   27 1    
    54   27   28 1    
    55   27   29 1    
    56   27  150 1    
    57   28  151 1    
    58   28  152 1    
    59   28  153 1    
    60   29   30 am   BACKBONE|DICT|INTERRES
    61   29  154 1    
    62   30   31 2    
    63   30   32 1    
    64   32   33 1    
    65   32   34 1    
    66   32  155 1    
    67   33  156 1    
    68   33  157 1    
    69   33  158 1    
    70   34   35 am   BACKBONE|DICT|INTERRES
    71   34  159 1    
    72   35   36 2    
    73   35   37 1    
    74   37   38 1    
    75   37   39 1    
    76   37  160 1    
    77   38  161 1    
    78   38  162 1    
    79   38  163 1    
    80   39   40 am   BACKBONE|DICT|INTERRES
    81   39  164 1    
    82   40   41 2    
    83   40   42 1    
    84   42   43 1    
    85   42   44 1    
    86   42  165 1    
    87   43  166 1    
    88   43  167 1    
    89   43  168 1    
    90   44   45 am   BACKBONE|DICT|INTERRES
    91   44  169 1    
    92   45   46 2    
    93   45   47 1    
    94   47   48 1    
    95   47   49 1    
    96   47  170 1    
    97   48  171 1    
    98   48  172 1    
    99   48  173 1    
   100   49   50 am   BACKBONE|DICT|INTERRES
   101   49  174 1    
   102   50   51 2    
   103   50   52 1    
   104   52   53 1    
   105   52   54 1    
   106   52  175 1    
   107   53  176 1    
   108   53  177 1    
   109   53  178 1    
   110   54   55 am   BACKBONE|DICT|INTERRES
   111   54  179 1    
   112   55   56 2    
   113   55   57 1    
   114   57   58 1    
   115   57   59 1    
   116   57  180 1    
   117   58  181 1    
   118   58  182 1    
   119   58  183 1    
   120   59   60 am   BACKBONE|DICT|INTERRES
   121   59  184 1    
   122   60   61 2    
   123   60   62 1    
   124   62   63 1    
   125   62   64 1    
   126   62  185 1    
   127   63  186 1    
   128   63  187 1    
   129   63  188 1    
   130   64   65 am   BACKBONE|DICT|INTERRES
   131   64  189 1    
   132   65   66 2    
   133   67   68 2    
   134   67   69 am   BACKBONE|DICT|INTERRES
   135   69   70 1    
   136   69  190 1    
   137   70   71 1    
   138   70   72 1    
   139   70  191 1    
   140   71  192 1    
   141   71  193 1    
   142   71  194 1    
   143   72   73 2    
   144   72   74 am   BACKBONE|DICT|INTERRES
   145   74   75 1    
   146   74  195 1    
   147   75   76 1    
   148   75   77 1    
   149   75  196 1    
   150   76  197 1    
   151   76  198 1    
   152   76  199 1    
   153   77   78 2    
   154   77   79 am   BACKBONE|DICT|INTERRES
   155   79   80 1    
   156   79  200 1    
   157   80   81 1    
   158   80   82 1    
   159   80  201 1    
   160   81  202 1    
   161   81  203 1    
   162   81  204 1    
   163   82   83 2    
   164   82   84 am   BACKBONE|DICT|INTERRES
   165   84   85 1    
   166   84  205 1    
   167   85   86 1    
   168   85   87 1    
   169   85  206 1    
   170   86  207 1    
   171   86  208 1    
   172   86  209 1    
   173   87   88 2    
   174   87   89 am   BACKBONE|DICT|INTERRES
   175   89   90 1    
   176   89  210 1    
   177   90   91 1    
   178   90   92 1    
   179   90  211 1    
   180   91  212 1    
   181   91  213 1    
   182   91  214 1    
   183   92   93 2    
   184   92   94 am   BACKBONE|DICT|INTERRES
   185   94   95 1    
   186   94  215 1    
   187   95   96 1    
   188   95   97 1    
   189   95  216 1    
   190   96  217 1    
   191   96  218 1    
   192   96  219 1    
   193   97   98 2    
   194   97   99 am   BACKBONE|DICT|INTERRES
   195   99  100 1    
   196   99  220 1    
   197  100  101 1    
   198  100  102 1    
   199  100  221 1    
   200  101  222 1    
   201  101  223 1    
   202  101  224 1    
   203  102  103 2    
   204  102  104 am   BACKBONE|DICT|INTERRES
   205  104  105 1    
   206  104  225 1    
   207  105  106 1    
   208  105  107 1    
   209  105  226 1    
   210  106  227 1    
   211  106  228 1    
   212  106  229 1    
   213  107  108 2    
   214  107  109 am   BACKBONE|DICT|INTERRES
   215  109  110 1    
   216  109  230 1    
   217  110  111 1    
   218  110  112 1    
   219  110  231 1    
   220  111  232 1    
   221  111  233 1    
   222  111  234 1    
   223  112  113 2    
   224  112  114 am   BACKBONE|DICT|INTERRES
   225  114  115 1    
   226  114  235 1    
   227  115  116 1    
   228  115  117 1    
   229  115  236 1    
   230  116  237 1    
   231  116  238 1    
   232  116  239 1    
   233  117  118 2    
   234  117  119 am   BACKBONE|DICT|INTERRES
   235  119  120 1    
   236  119  240 1    
   237  120  121 1    
   238  120  124 1    
   239  120  241 1    
   240  121  122 am   BACKBONE|DICT|INTERRES
   241  121  123 2    
   242  122  242 1    
   243  122  243 1    
   244  124  125 1    
   245  124  244 1    
   246  124  245 1    
   247  125  126 1    
   248  126  246 1    
   249  126  247 1    
@<TRIPOS>SUBSTRUCTURE
     1 UNK         1 GROUP             0       ****    0 ROOT    
