@<TRIPOS>MOLECULE
3R540
247   249    1
SMALL
USER_CHARGES


@<TRIPOS>ATOM
      1 CA          6.5432  -18.5002  -46.7230 C.3       0 UNK        -0.1800 
      2 C           5.7091  -17.2631  -46.4238 C.2       0 UNK         0.5000 
      3 O           5.2279  -17.1056  -45.3030 O.2       0 UNK        -0.5000 
      4 N           5.5349  -16.3862  -47.4199 N.am      1 UNK        -0.5000 
      5 CA          4.7664  -15.1395  -47.3388 C.3       1 UNK         0.1400 
      6 C6          4.3001  -14.6649  -48.7377 C.3       23 UNK        -0.0398 
      7 S7          3.0257  -15.7618  -49.4483 S.3       23 UNK        -0.2404 
      8 C8          2.2079  -14.5980  -50.5834 C.3       23 UNK        -0.0205 
      9 C9          0.8531  -15.1078  -51.0471 C.ar      23 UNK        -0.0193 
     10 C10         0.6956  -15.6701  -52.3178 C.ar      23 UNK        -0.1150 
     11 C11        -0.5638  -16.0773  -52.7739 C.ar      23 UNK        -0.0193 
     12 C12        -1.6708  -15.9098  -51.9295 C.ar      23 UNK        -0.1150 
     13 C13        -1.5217  -15.3753  -50.6473 C.ar      23 UNK        -0.0193 
     14 C14        -0.2580  -14.9733  -50.2124 C.ar      23 UNK        -0.1150 
     15 C15        -2.7340  -15.2110  -49.7447 C.3       23 UNK        -0.0205 
     16 S16        -3.3370  -16.8076  -49.1135 S.3       23 UNK        -0.2404 
     17 C17        -2.0396  -17.2739  -47.9113 C.3       23 UNK        -0.0398 
     18 CA         -1.3934  -18.6592  -48.1723 C.3       11 UNK         0.1400 
     19 N          -0.3040  -18.9320  -47.2316 N.am      11 UNK        -0.5000 
     20 C           0.4846  -20.0171  -47.2407 C.2       10 UNK         0.5000 
     21 O           0.4376  -20.8964  -48.0998 O.2       10 UNK        -0.5000 
     22 CA          1.4498  -20.1810  -46.0541 C.3       10 UNK         0.1400 
     23 CB          2.7046  -19.3182  -46.2494 C.3       10 UNK        -0.1800 
     24 N           0.8203  -19.8715  -44.7681 N.am      10 UNK        -0.5000 
     25 C          -0.2196  -20.5426  -44.2499 C.2       9 UNK         0.5000 
     26 O          -0.7320  -21.5253  -44.7843 O.2       9 UNK        -0.5000 
     27 CA         -0.8236  -20.0023  -42.9407 C.3       9 UNK         0.1400 
     28 CB          0.0222  -20.4187  -41.7286 C.3       9 UNK        -0.1800 
     29 N          -0.9895  -18.5490  -42.9574 N.am      9 UNK        -0.5000 
     30 C          -1.8028  -17.8897  -43.7955 C.2       8 UNK         0.5000 
     31 O          -2.5463  -18.4450  -44.6050 O.2       8 UNK        -0.5000 
     32 CA         -1.7284  -16.3512  -43.7659 C.3       8 UNK         0.1400 
     33 CB         -2.5472  -15.7764  -42.6009 C.3       8 UNK        -0.1800 
     34 N          -0.3497  -15.8666  -43.6895 N.am      8 UNK        -0.5000 
     35 C           0.5747  -16.0666  -44.6397 C.2       7 UNK         0.5000 
     36 O           0.3416  -16.6127  -45.7166 O.2       7 UNK        -0.5000 
     37 CA          2.0086  -15.6250  -44.3126 C.3       7 UNK         0.1400 
     38 CB          2.1944  -14.1294  -44.6171 C.3       7 UNK        -0.1800 
     39 N           2.3578  -15.9164  -42.9215 N.am      7 UNK        -0.5000 
     40 C           2.5507  -17.1545  -42.4411 C.2       6 UNK         0.5000 
     41 O           2.4860  -18.1689  -43.1339 O.2       6 UNK        -0.5000 
     42 CA          2.7765  -17.3023  -40.9238 C.3       6 UNK         0.1400 
     43 CB          4.2644  -17.2276  -40.5610 C.3       6 UNK        -0.1800 
     44 N           2.0282  -16.3140  -40.1485 N.am      6 UNK        -0.5000 
     45 C           0.6934  -16.3285  -40.0254 C.2       5 UNK         0.5000 
     46 O          -0.0224  -17.2117  -40.4978 O.2       5 UNK        -0.5000 
     47 CA          0.0419  -15.1341  -39.3035 C.3       5 UNK         0.1400 
     48 CB         -0.0921  -15.4197  -37.8008 C.3       5 UNK        -0.1800 
     49 N           0.7662  -13.8757  -39.4927 N.am      5 UNK        -0.5000 
     50 C           0.9904  -13.2846  -40.6743 C.2       4 UNK         0.5000 
     51 O           0.5753  -13.7334  -41.7424 O.2       4 UNK        -0.5000 
     52 CA          1.8237  -11.9868  -40.6687 C.3       4 UNK         0.1400 
     53 CB          1.6376  -11.1615  -39.3770 C.3       4 UNK        -0.1800 
     54 N           3.2566  -12.1892  -40.9279 N.am      4 UNK        -0.5000 
     55 C           4.1074  -13.0011  -40.2804 C.2       3 UNK         0.5000 
     56 O           3.7593  -13.8614  -39.4686 O.2       3 UNK        -0.5000 
     57 CA          5.6073  -12.7641  -40.5689 C.3       3 UNK         0.1400 
     58 CB          6.5374  -13.7695  -39.8562 C.3       3 UNK        -0.1800 
     59 N           5.9382  -12.6676  -41.9967 N.am      3 UNK        -0.5000 
     60 C           5.7953  -13.6298  -42.9176 C.2       2 UNK         0.5000 
     61 O           5.2899  -14.7298  -42.6930 O.2       2 UNK        -0.5000 
     62 CA          6.3318  -13.3172  -44.3229 C.3       2 UNK         0.1400 
     63 CB          7.8649  -13.4448  -44.3722 C.3       2 UNK        -0.1800 
     64 N           5.7297  -14.2481  -45.2700 N.am      2 UNK        -0.5000 
     65 C           5.5505  -14.0452  -46.5775 C.2       1 UNK         0.5000 
     66 O           5.9731  -13.0527  -47.1737 O.2       1 UNK        -0.5000 
     67 C          -2.4303  -19.8021  -48.1615 C.2       11 UNK         0.5000 
     68 O          -2.7143  -20.3617  -49.2186 O.2       11 UNK        -0.5000 
     69 N          -2.9325  -20.1625  -46.9706 N.am      12 UNK        -0.5000 
     70 CA         -3.9028  -21.2413  -46.7716 C.3       12 UNK         0.1400 
     71 CB         -4.3417  -21.2718  -45.3002 C.3       12 UNK        -0.1800 
     72 C          -3.3843  -22.6217  -47.2180 C.2       12 UNK         0.5000 
     73 O          -4.1154  -23.3583  -47.8835 O.2       12 UNK        -0.5000 
     74 N          -2.1264  -22.9311  -46.8745 N.am      13 UNK        -0.5000 
     75 CA         -1.4357  -24.1616  -47.2599 C.3       13 UNK         0.1400 
     76 CB         -0.0964  -24.2568  -46.5135 C.3       13 UNK        -0.1800 
     77 C          -1.2224  -24.2768  -48.7795 C.2       13 UNK         0.5000 
     78 O          -1.4378  -25.3524  -49.3390 O.2       13 UNK        -0.5000 
     79 N          -0.8281  -23.1678  -49.4206 N.am      14 UNK        -0.5000 
     80 CA         -0.6614  -23.0696  -50.8704 C.3       14 UNK         0.1400 
     81 CB          0.1001  -21.7808  -51.2122 C.3       14 UNK        -0.1800 
     82 C          -2.0023  -23.1234  -51.6235 C.2       14 UNK         0.5000 
     83 O          -2.0686  -23.7189  -52.6976 O.2       14 UNK        -0.5000 
     84 N          -3.0407  -22.5015  -51.0497 N.am      15 UNK        -0.5000 
     85 CA         -4.3984  -22.4683  -51.5852 C.3       15 UNK         0.1400 
     86 CB         -5.2202  -21.4142  -50.8280 C.3       15 UNK        -0.1800 
     87 C          -5.1049  -23.8270  -51.5444 C.2       15 UNK         0.5000 
     88 O          -5.8439  -24.1377  -52.4787 O.2       15 UNK        -0.5000 
     89 N          -4.8884  -24.5894  -50.4619 N.am      16 UNK        -0.5000 
     90 CA         -5.4866  -25.8987  -50.1809 C.3       16 UNK         0.1400 
     91 CB         -4.9516  -26.9585  -51.1672 C.3       16 UNK        -0.1800 
     92 C          -7.0272  -25.8196  -50.1529 C.2       16 UNK         0.5000 
     93 O          -7.7029  -26.5336  -50.8942 O.2       16 UNK        -0.5000 
     94 N          -7.5455  -24.8848  -49.3405 N.am      17 UNK        -0.5000 
     95 CA         -8.9603  -24.4936  -49.2437 C.3       17 UNK         0.1400 
     96 CB         -9.8232  -25.6490  -48.6934 C.3       17 UNK        -0.1800 
     97 C          -9.5031  -23.9038  -50.5661 C.2       17 UNK         0.5000 
     98 O         -10.6538  -24.1442  -50.9331 O.2       17 UNK        -0.5000 
     99 N          -8.6352  -23.1482  -51.2555 N.am      18 UNK        -0.5000 
    100 CA        -8.8244  -22.4742  -52.5464 C.3       18 UNK         0.1400 
    101 CB        -9.9892  -21.4649  -52.4885 C.3       18 UNK        -0.1800 
    102 C         -8.9251  -23.4175  -53.7636 C.2       18 UNK         0.5000 
    103 O         -9.1782  -22.9369  -54.8693 O.2       18 UNK        -0.5000 
    104 N         -8.6786  -24.7222  -53.5765 N.am      19 UNK        -0.5000 
    105 CA        -8.6737  -25.7281  -54.6417 C.3       19 UNK         0.1400 
    106 CB        -8.6388  -27.1297  -54.0156 C.3       19 UNK        -0.1800 
    107 C         -7.5077  -25.5577  -55.6352 C.2       19 UNK         0.5000 
    108 O         -7.6556  -25.9129  -56.8051 O.2       19 UNK        -0.5000 
    109 N         -6.3837  -25.0088  -55.1580 N.am      20 UNK        -0.5000 
    110 CA        -5.1733  -24.7362  -55.9337 C.3       20 UNK         0.1400 
    111 CB        -3.9850  -25.4096  -55.2266 C.3       20 UNK        -0.1800 
    112 C         -4.9397  -23.2231  -56.1227 C.2       20 UNK         0.5000 
    113 O         -3.8321  -22.8296  -56.4963 O.2       20 UNK        -0.5000 
    114 N         -5.9727  -22.4035  -55.8607 N.am      21 UNK        -0.5000 
    115 CA        -5.9933  -20.9346  -55.8614 C.3       21 UNK         0.1400 
    116 CB        -5.7406  -20.3616  -57.2723 C.3       21 UNK        -0.1800 
    117 C         -5.0453  -20.3613  -54.7918 C.2       21 UNK         0.5000 
    118 O         -5.4949  -20.0751  -53.6839 O.2       21 UNK        -0.5000 
    119 N         -3.7560  -20.2715  -55.1257 N.am      22 UNK        -0.5000 
    120 CA        -2.6223  -20.0968  -54.2089 C.3       22 UNK         0.1400 
    121 C         -1.2912  -20.6236  -54.8200 C.2       22 UNK         0.5000 
    122 N         -1.3278  -21.5611  -55.7621 N.am      22 UNK        -0.7600 
    123 O         -0.2072  -20.1943  -54.4380 O.2       22 UNK        -0.5000 
    124 C124       -2.5396  -18.6978  -53.5427 C.3       23 UNK        -0.0398 
    125 S125       -2.3057  -17.3021  -54.6982 S.3       23 UNK        -0.2404 
    126 C126       -0.6640  -16.6757  -54.1827 C.3       23 UNK        -0.0205 
    127 H127        7.4162  -18.5298  -46.0711 H         1 UNK         0.0600 
    128 H128        6.8885  -18.5169  -47.7570 H         1 UNK         0.0600 
    129 H129        5.9541  -19.4002  -46.5466 H         1 UNK         0.0600 
    130 H130        5.9669  -16.5688  -48.3142 H         1 UNK         0.3000 
    131 H131        3.8670  -15.3347  -46.7541 H         1 UNK         0.0600 
    132 H132        3.8772  -13.6611  -48.6675 H         1 UNK         0.0800 
    133 H133        5.1412  -14.5945  -49.4294 H         1 UNK         0.0800 
    134 H134        2.8613  -14.4110  -51.4370 H         1 UNK         0.0800 
    135 H135        2.0654  -13.6350  -50.0908 H         1 UNK         0.0800 
    136 H136        1.5569  -15.7779  -52.9625 H         1 UNK         0.1150 
    137 H137       -2.6606  -16.1968  -52.2505 H         1 UNK         0.1150 
    138 H138       -0.1372  -14.5434  -49.2277 H         1 UNK         0.1150 
    139 H139       -2.5142  -14.5471  -48.9071 H         1 UNK         0.0800 
    140 H140       -3.5354  -14.7322  -50.3093 H         1 UNK         0.0800 
    141 H141       -2.4822  -17.2381  -46.9164 H         1 UNK         0.0800 
    142 H142       -1.2624  -16.5095  -47.9134 H         1 UNK         0.0800 
    143 H143       -0.9478  -18.6335  -49.1692 H         1 UNK         0.0600 
    144 H144       -0.1483  -18.2290  -46.5131 H         1 UNK         0.3000 
    145 H145        1.7622  -21.2267  -46.0234 H         1 UNK         0.0600 
    146 H146        3.4240  -19.4808  -45.4467 H         1 UNK         0.0600 
    147 H147        3.2040  -19.5608  -47.1881 H         1 UNK         0.0600 
    148 H148        2.4664  -18.2549  -46.2723 H         1 UNK         0.0600 
    149 H149        1.2295  -19.1085  -44.2355 H         1 UNK         0.3000 
    150 H150       -1.8149  -20.4459  -42.8265 H         1 UNK         0.0600 
    151 H151        0.1149  -21.5040  -41.6736 H         1 UNK         0.0600 
    152 H152       -0.4323  -20.0826  -40.7964 H         1 UNK         0.0600 
    153 H153        1.0296  -20.0064  -41.7770 H         1 UNK         0.0600 
    154 H154       -0.4509  -18.0195  -42.2795 H         1 UNK         0.3000 
    155 H155       -2.1595  -15.9787  -44.6973 H         1 UNK         0.0600 
    156 H156       -2.1825  -16.1269  -41.6360 H         1 UNK         0.0600 
    157 H157       -3.5942  -16.0711  -42.6807 H         1 UNK         0.0600 
    158 H158       -2.5145  -14.6867  -42.5953 H         1 UNK         0.0600 
    159 H159       -0.0783  -15.3600  -42.8539 H         1 UNK         0.3000 
    160 H160        2.6888  -16.1919  -44.9491 H         1 UNK         0.0600 
    161 H161        3.1735  -13.7742  -44.3039 H         1 UNK         0.0600 
    162 H162        1.4468  -13.5117  -44.1213 H         1 UNK         0.0600 
    163 H163        2.1032  -13.9405  -45.6871 H         1 UNK         0.0600 
    164 H164        2.3836  -15.1339  -42.2841 H         1 UNK         0.3000 
    165 H165        2.4213  -18.2949  -40.6396 H         1 UNK         0.0600 
    166 H166        4.4284  -17.4916  -39.5163 H         1 UNK         0.0600 
    167 H167        4.8538  -17.9139  -41.1704 H         1 UNK         0.0600 
    168 H168        4.6597  -16.2265  -40.7157 H         1 UNK         0.0600 
    169 H169        2.5523  -15.5342  -39.7639 H         1 UNK         0.3000 
    170 H170       -0.9596  -15.0053  -39.7185 H         1 UNK         0.0600 
    171 H171       -0.6474  -16.3425  -37.6269 H         1 UNK         0.0600 
    172 H172        0.8828  -15.5277  -37.3236 H         1 UNK         0.0600 
    173 H173       -0.6287  -14.6182  -37.2927 H         1 UNK         0.0600 
    174 H174        1.1824  -13.4655  -38.6694 H         1 UNK         0.3000 
    175 H175        1.4445  -11.3844  -41.4957 H         1 UNK         0.0600 
    176 H176        2.0875  -11.6436  -38.5085 H         1 UNK         0.0600 
    177 H177        2.0946  -10.1769  -39.4772 H         1 UNK         0.0600 
    178 H178        0.5804  -11.0028  -39.1594 H         1 UNK         0.0600 
    179 H179        3.6554  -11.5635  -41.6134 H         1 UNK         0.3000 
    180 H180        5.8274  -11.7827  -40.1462 H         1 UNK         0.0600 
    181 H181        6.4009  -14.7864  -40.2216 H         1 UNK         0.0600 
    182 H182        6.3534  -13.7811  -38.7813 H         1 UNK         0.0600 
    183 H183        7.5845  -13.5036  -40.0005 H         1 UNK         0.0600 
    184 H184        6.3572  -11.7934  -42.2829 H         1 UNK         0.3000 
    185 H185        6.0375  -12.2982  -44.5827 H         1 UNK         0.0600 
    186 H186        8.3406  -12.7641  -43.6654 H         1 UNK         0.0600 
    187 H187        8.1890  -14.4564  -44.1243 H         1 UNK         0.0600 
    188 H188        8.2513  -13.2036  -45.3625 H         1 UNK         0.0600 
    189 H189        5.3841  -15.1093  -44.8505 H         1 UNK         0.3000 
    190 H190       -2.6521  -19.6468  -46.1410 H         1 UNK         0.3000 
    191 H191       -4.7790  -21.0079  -47.3793 H         1 UNK         0.0600 
    192 H192       -3.5011  -21.4626  -44.6325 H         1 UNK         0.0600 
    193 H193       -5.0827  -22.0535  -45.1289 H         1 UNK         0.0600 
    194 H194       -4.7930  -20.3245  -45.0046 H         1 UNK         0.0600 
    195 H195       -1.6069  -22.2850  -46.2850 H         1 UNK         0.3000 
    196 H196       -2.0578  -25.0030  -46.9479 H         1 UNK         0.0600 
    197 H197        0.4338  -25.1732  -46.7753 H         1 UNK         0.0600 
    198 H198       -0.2472  -24.2650  -45.4339 H         1 UNK         0.0600 
    199 H199        0.5577  -23.4176  -46.7527 H         1 UNK         0.0600 
    200 H200       -0.6256  -22.3290  -48.8829 H         1 UNK         0.3000 
    201 H201       -0.0578  -23.9175  -51.2007 H         1 UNK         0.0600 
    202 H202        1.0661  -21.7474  -50.7085 H         1 UNK         0.0600 
    203 H203       -0.4598  -20.8905  -50.9223 H         1 UNK         0.0600 
    204 H204        0.2924  -21.7175  -52.2830 H         1 UNK         0.0600 
    205 H205       -2.8772  -21.9561  -50.2067 H         1 UNK         0.3000 
    206 H206       -4.3438  -22.1844  -52.6343 H         1 UNK         0.0600 
    207 H207       -4.7789  -20.4233  -50.9372 H         1 UNK         0.0600 
    208 H208       -6.2361  -21.3494  -51.2138 H         1 UNK         0.0600 
    209 H209       -5.2846  -21.6375  -49.7632 H         1 UNK         0.0600 
    210 H210       -4.3156  -24.2031  -49.7176 H         1 UNK         0.3000 
    211 H211       -5.1655  -26.1829  -49.1777 H         1 UNK         0.0600 
    212 H212       -5.3176  -27.9523  -50.9072 H         1 UNK         0.0600 
    213 H213       -3.8623  -26.9965  -51.1477 H         1 UNK         0.0600 
    214 H214       -5.2599  -26.7554  -52.1935 H         1 UNK         0.0600 
    215 H215       -6.9021  -24.3458  -48.7765 H         1 UNK         0.3000 
    216 H216       -9.0020  -23.6826  -48.5153 H         1 UNK         0.0600 
    217 H217      -10.8378  -25.3103  -48.4810 H         1 UNK         0.0600 
    218 H218       -9.4115  -26.0400  -47.7631 H         1 UNK         0.0600 
    219 H219       -9.8986  -26.4753  -49.4008 H         1 UNK         0.0600 
    220 H220       -7.7061  -23.0692  -50.8708 H         1 UNK         0.3000 
    221 H221       -7.9138  -21.8985  -52.7146 H         1 UNK         0.0600 
    222 H222      -10.9561  -21.9625  -52.4118 H         1 UNK         0.0600 
    223 H223       -9.8871  -20.7927  -51.6366 H         1 UNK         0.0600 
    224 H224      -10.0147  -20.8454  -53.3858 H         1 UNK         0.0600 
    225 H225       -8.4298  -25.0430  -52.6496 H         1 UNK         0.3000 
    226 H226       -9.6056  -25.6285  -55.2020 H         1 UNK         0.0600 
    227 H227       -9.4624  -27.2725  -53.3156 H         1 UNK         0.0600 
    228 H228       -8.7236  -27.9013  -54.7817 H         1 UNK         0.0600 
    229 H229       -7.7064  -27.3047  -53.4773 H         1 UNK         0.0600 
    230 H230       -6.3436  -24.7450  -54.1746 H         1 UNK         0.3000 
    231 H231       -5.2542  -25.1646  -56.9343 H         1 UNK         0.0600 
    232 H232       -4.1425  -26.4839  -55.1305 H         1 UNK         0.0600 
    233 H233       -3.8353  -25.0055  -54.2257 H         1 UNK         0.0600 
    234 H234       -3.0571  -25.2671  -55.7817 H         1 UNK         0.0600 
    235 H235       -6.8365  -22.8412  -55.5697 H         1 UNK         0.3000 
    236 H236       -7.0042  -20.6443  -55.5701 H         1 UNK         0.0600 
    237 H237       -4.7746  -20.6560  -57.6820 H         1 UNK         0.0600 
    238 H238       -6.5083  -20.6973  -57.9695 H         1 UNK         0.0600 
    239 H239       -5.7711  -19.2715  -57.2587 H         1 UNK         0.0600 
    240 H240       -3.4949  -20.5472  -56.0624 H         1 UNK         0.3000 
    241 H241       -2.7906  -20.7904  -53.3881 H         1 UNK         0.0600 
    242 H242       -2.1962  -22.0163  -56.0331 H         1 UNK         0.3800 
    243 H243       -0.4589  -21.8942  -56.1479 H         1 UNK         0.3800 
    244 H244       -1.7443  -18.6971  -52.7957 H         1 UNK         0.0800 
    245 H245       -3.4528  -18.5078  -52.9781 H         1 UNK         0.0800 
    246 H246        0.0598  -17.4866  -54.2752 H         1 UNK         0.0800 
    247 H247       -0.3591  -15.9119  -54.8992 H         1 UNK         0.0800 
@<TRIPOS>BOND
     1    1    2 1    
     2    1  127 1    
     3    1  128 1    
     4    1  129 1    
     5    2    3 2    
     6    2    4 am   BACKBONE|DICT|INTERRES
     7    4    5 1    
     8    4  130 1    
     9    5    6 1    
    10    5   65 1    
    11    5  131 1    
    12    6    7 1    
    13    6  132 1    
    14    6  133 1    
    15    7    8 1    
    16    8    9 1    
    17    8  134 1    
    18    8  135 1    
    19    9   10 ar   
    20    9   14 ar   
    21   10   11 ar   
    22   10  136 1    
    23   11   12 ar   
    24   11  126 1    
    25   12   13 ar   
    26   12  137 1    
    27   13   14 ar   
    28   13   15 1    
    29   14  138 1    
    30   15   16 1    
    31   15  139 1    
    32   15  140 1    
    33   16   17 1    
    34   17   18 1    
    35   17  141 1    
    36   17  142 1    
    37   18   19 1    
    38   18   67 1    
    39   18  143 1    
    40   19   20 am   BACKBONE|DICT|INTERRES
    41   19  144 1    
    42   20   21 2    
    43   20   22 1    
    44   22   23 1    
    45   22   24 1    
    46   22  145 1    
    47   23  146 1    
    48   23  147 1    
    49   23  148 1    
    50   24   25 am   BACKBONE|DICT|INTERRES
    51   24  149 1    
    52   25   26 2    
    53   25   27 1    
    54   27   28 1    
    55   27   29 1    
    56   27  150 1    
    57   28  151 1    
    58   28  152 1    
    59   28  153 1    
    60   29   30 am   BACKBONE|DICT|INTERRES
    61   29  154 1    
    62   30   31 2    
    63   30   32 1    
    64   32   33 1    
    65   32   34 1    
    66   32  155 1    
    67   33  156 1    
    68   33  157 1    
    69   33  158 1    
    70   34   35 am   BACKBONE|DICT|INTERRES
    71   34  159 1    
    72   35   36 2    
    73   35   37 1    
    74   37   38 1    
    75   37   39 1    
    76   37  160 1    
    77   38  161 1    
    78   38  162 1    
    79   38  163 1    
    80   39   40 am   BACKBONE|DICT|INTERRES
    81   39  164 1    
    82   40   41 2    
    83   40   42 1    
    84   42   43 1    
    85   42   44 1    
    86   42  165 1    
    87   43  166 1    
    88   43  167 1    
    89   43  168 1    
    90   44   45 am   BACKBONE|DICT|INTERRES
    91   44  169 1    
    92   45   46 2    
    93   45   47 1    
    94   47   48 1    
    95   47   49 1    
    96   47  170 1    
    97   48  171 1    
    98   48  172 1    
    99   48  173 1    
   100   49   50 am   BACKBONE|DICT|INTERRES
   101   49  174 1    
   102   50   51 2    
   103   50   52 1    
   104   52   53 1    
   105   52   54 1    
   106   52  175 1    
   107   53  176 1    
   108   53  177 1    
   109   53  178 1    
   110   54   55 am   BACKBONE|DICT|INTERRES
   111   54  179 1    
   112   55   56 2    
   113   55   57 1    
   114   57   58 1    
   115   57   59 1    
   116   57  180 1    
   117   58  181 1    
   118   58  182 1    
   119   58  183 1    
   120   59   60 am   BACKBONE|DICT|INTERRES
   121   59  184 1    
   122   60   61 2    
   123   60   62 1    
   124   62   63 1    
   125   62   64 1    
   126   62  185 1    
   127   63  186 1    
   128   63  187 1    
   129   63  188 1    
   130   64   65 am   BACKBONE|DICT|INTERRES
   131   64  189 1    
   132   65   66 2    
   133   67   68 2    
   134   67   69 am   BACKBONE|DICT|INTERRES
   135   69   70 1    
   136   69  190 1    
   137   70   71 1    
   138   70   72 1    
   139   70  191 1    
   140   71  192 1    
   141   71  193 1    
   142   71  194 1    
   143   72   73 2    
   144   72   74 am   BACKBONE|DICT|INTERRES
   145   74   75 1    
   146   74  195 1    
   147   75   76 1    
   148   75   77 1    
   149   75  196 1    
   150   76  197 1    
   151   76  198 1    
   152   76  199 1    
   153   77   78 2    
   154   77   79 am   BACKBONE|DICT|INTERRES
   155   79   80 1    
   156   79  200 1    
   157   80   81 1    
   158   80   82 1    
   159   80  201 1    
   160   81  202 1    
   161   81  203 1    
   162   81  204 1    
   163   82   83 2    
   164   82   84 am   BACKBONE|DICT|INTERRES
   165   84   85 1    
   166   84  205 1    
   167   85   86 1    
   168   85   87 1    
   169   85  206 1    
   170   86  207 1    
   171   86  208 1    
   172   86  209 1    
   173   87   88 2    
   174   87   89 am   BACKBONE|DICT|INTERRES
   175   89   90 1    
   176   89  210 1    
   177   90   91 1    
   178   90   92 1    
   179   90  211 1    
   180   91  212 1    
   181   91  213 1    
   182   91  214 1    
   183   92   93 2    
   184   92   94 am   BACKBONE|DICT|INTERRES
   185   94   95 1    
   186   94  215 1    
   187   95   96 1    
   188   95   97 1    
   189   95  216 1    
   190   96  217 1    
   191   96  218 1    
   192   96  219 1    
   193   97   98 2    
   194   97   99 am   BACKBONE|DICT|INTERRES
   195   99  100 1    
   196   99  220 1    
   197  100  101 1    
   198  100  102 1    
   199  100  221 1    
   200  101  222 1    
   201  101  223 1    
   202  101  224 1    
   203  102  103 2    
   204  102  104 am   BACKBONE|DICT|INTERRES
   205  104  105 1    
   206  104  225 1    
   207  105  106 1    
   208  105  107 1    
   209  105  226 1    
   210  106  227 1    
   211  106  228 1    
   212  106  229 1    
   213  107  108 2    
   214  107  109 am   BACKBONE|DICT|INTERRES
   215  109  110 1    
   216  109  230 1    
   217  110  111 1    
   218  110  112 1    
   219  110  231 1    
   220  111  232 1    
   221  111  233 1    
   222  111  234 1    
   223  112  113 2    
   224  112  114 am   BACKBONE|DICT|INTERRES
   225  114  115 1    
   226  114  235 1    
   227  115  116 1    
   228  115  117 1    
   229  115  236 1    
   230  116  237 1    
   231  116  238 1    
   232  116  239 1    
   233  117  118 2    
   234  117  119 am   BACKBONE|DICT|INTERRES
   235  119  120 1    
   236  119  240 1    
   237  120  121 1    
   238  120  124 1    
   239  120  241 1    
   240  121  122 am   BACKBONE|DICT|INTERRES
   241  121  123 2    
   242  122  242 1    
   243  122  243 1    
   244  124  125 1    
   245  124  244 1    
   246  124  245 1    
   247  125  126 1    
   248  126  246 1    
   249  126  247 1    
@<TRIPOS>SUBSTRUCTURE
     1 UNK         1 GROUP             0       ****    0 ROOT    
