@<TRIPOS>MOLECULE
3R540
247   249    1
SMALL
USER_CHARGES


@<TRIPOS>ATOM
      1 CA          2.5959  -12.1058  -47.7283 C.3       0 UNK        -0.1800 
      2 C           1.2485  -12.8133  -47.7325 C.2       0 UNK         0.5000 
      3 O           0.3706  -12.4446  -48.5120 O.2       0 UNK        -0.5000 
      4 N           1.0858  -13.8222  -46.8639 N.am      1 UNK        -0.5000 
      5 CA         -0.0980  -14.6910  -46.7416 C.3       1 UNK         0.1400 
      6 C6         -0.4352  -15.4822  -48.0381 C.3       23 UNK        -0.0398 
      7 S7          1.0011  -16.3758  -48.7326 S.3       23 UNK        -0.2404 
      8 C8          0.2718  -17.9947  -49.1064 C.3       23 UNK        -0.0205 
      9 C9          1.2119  -18.8487  -49.9410 C.ar      23 UNK        -0.0193 
     10 C10         1.2038  -18.7462  -51.3330 C.ar      23 UNK        -0.1150 
     11 C11         2.0503  -19.5408  -52.1097 C.ar      23 UNK        -0.0193 
     12 C12         2.8988  -20.4598  -51.4833 C.ar      23 UNK        -0.1150 
     13 C13         2.9247  -20.5666  -50.0881 C.ar      23 UNK        -0.0193 
     14 C14         2.0880  -19.7456  -49.3264 C.ar      23 UNK        -0.1150 
     15 C15         3.8886  -21.5323  -49.4079 C.3       23 UNK        -0.0205 
     16 S16         3.1069  -23.1201  -48.9606 S.3       23 UNK        -0.2404 
     17 C17         2.4225  -22.7523  -47.3013 C.3       23 UNK        -0.0398 
     18 CA          1.0800  -23.4339  -46.9116 C.3       11 UNK         0.1400 
     19 N           0.4790  -22.7885  -45.7369 N.am      11 UNK        -0.5000 
     20 C          -0.4937  -23.3281  -44.9853 C.2       10 UNK         0.5000 
     21 O          -0.9666  -24.4439  -45.1883 O.2       10 UNK        -0.5000 
     22 CA         -1.0694  -22.4739  -43.8381 C.3       10 UNK         0.1400 
     23 CB         -0.2622  -22.6910  -42.5503 C.3       10 UNK        -0.1800 
     24 N          -1.1117  -21.0450  -44.1418 N.am      10 UNK        -0.5000 
     25 C          -1.7934  -20.4905  -45.1548 C.2       9 UNK         0.5000 
     26 O          -2.5354  -21.1265  -45.9024 O.2       9 UNK        -0.5000 
     27 CA         -1.5650  -18.9885  -45.4195 C.3       9 UNK         0.1400 
     28 CB         -2.7502  -18.1630  -44.9016 C.3       9 UNK        -0.1800 
     29 N          -0.3109  -18.4677  -44.8592 N.am      9 UNK        -0.5000 
     30 C           0.9133  -18.9002  -45.2063 C.2       8 UNK         0.5000 
     31 O           1.0951  -19.7999  -46.0250 O.2       8 UNK        -0.5000 
     32 CA          2.1349  -18.2839  -44.4990 C.3       8 UNK         0.1400 
     33 CB          2.8401  -17.2711  -45.4125 C.3       8 UNK        -0.1800 
     34 N           1.8082  -17.6539  -43.2190 N.am      8 UNK        -0.5000 
     35 C           1.4650  -18.3345  -42.1135 C.2       7 UNK         0.5000 
     36 O           1.4197  -19.5641  -42.0625 O.2       7 UNK        -0.5000 
     37 CA          1.0688  -17.5155  -40.8669 C.3       7 UNK         0.1400 
     38 CB          2.2728  -17.3541  -39.9271 C.3       7 UNK        -0.1800 
     39 N           0.5262  -16.1908  -41.1761 N.am      7 UNK        -0.5000 
     40 C          -0.5686  -15.9584  -41.9135 C.2       6 UNK         0.5000 
     41 O          -1.2792  -16.8511  -42.3713 O.2       6 UNK        -0.5000 
     42 CA         -0.8957  -14.4919  -42.2497 C.3       6 UNK         0.1400 
     43 CB         -1.9987  -13.9633  -41.3228 C.3       6 UNK        -0.1800 
     44 N           0.2591  -13.5851  -42.2142 N.am      6 UNK        -0.5000 
     45 C           1.3623  -13.7053  -42.9715 C.2       5 UNK         0.5000 
     46 O           1.5255  -14.6250  -43.7750 O.2       5 UNK        -0.5000 
     47 CA          2.4664  -12.6419  -42.8129 C.3       5 UNK         0.1400 
     48 CB          3.0397  -12.2198  -44.1749 C.3       5 UNK        -0.1800 
     49 N           1.9824  -11.4465  -42.1248 N.am      5 UNK        -0.5000 
     50 C           2.2669  -11.1069  -40.8606 C.2       4 UNK         0.5000 
     51 O           2.9810  -11.7809  -40.1177 O.2       4 UNK        -0.5000 
     52 CA          1.6470   -9.7984  -40.3253 C.3       4 UNK         0.1400 
     53 CB          2.6965   -8.6763  -40.3080 C.3       4 UNK        -0.1800 
     54 N           0.4805   -9.3406  -41.0853 N.am      4 UNK        -0.5000 
     55 C          -0.6981   -9.9745  -41.1339 C.2       3 UNK         0.5000 
     56 O          -0.9318  -11.0103  -40.5101 O.2       3 UNK        -0.5000 
     57 CA         -1.7899   -9.3889  -42.0553 C.3       3 UNK         0.1400 
     58 CB         -1.4108   -8.0433  -42.7153 C.3       3 UNK        -0.1800 
     59 N          -2.2106  -10.3549  -43.0768 N.am      3 UNK        -0.5000 
     60 C          -1.4282  -10.9581  -43.9826 C.2       2 UNK         0.5000 
     61 O          -0.2112  -10.7709  -44.0828 O.2       2 UNK        -0.5000 
     62 CA         -2.1302  -11.9300  -44.9419 C.3       2 UNK         0.1400 
     63 CB         -2.9139  -11.1659  -46.0249 C.3       2 UNK        -0.1800 
     64 N          -1.1232  -12.7806  -45.5640 N.am      2 UNK        -0.5000 
     65 C          -1.3334  -13.9581  -46.1638 C.2       1 UNK         0.5000 
     66 O          -2.4454  -14.4808  -46.2452 O.2       1 UNK        -0.5000 
     67 C           0.0514  -23.5303  -48.0595 C.2       11 UNK         0.5000 
     68 O          -0.1205  -24.6050  -48.6372 O.2       11 UNK        -0.5000 
     69 N          -0.6600  -22.4240  -48.3179 N.am      12 UNK        -0.5000 
     70 CA         -1.7415  -22.3442  -49.2997 C.3       12 UNK         0.1400 
     71 CB         -2.1834  -20.8797  -49.4416 C.3       12 UNK        -0.1800 
     72 C          -2.9257  -23.2642  -48.9448 C.2       12 UNK         0.5000 
     73 O          -3.4325  -23.9707  -49.8171 O.2       12 UNK        -0.5000 
     74 N          -3.3131  -23.2740  -47.6619 N.am      13 UNK        -0.5000 
     75 CA         -4.3627  -24.1332  -47.1142 C.3       13 UNK         0.1400 
     76 CB         -4.6718  -23.7094  -45.6711 C.3       13 UNK        -0.1800 
     77 C          -4.0164  -25.6327  -47.1790 C.2       13 UNK         0.5000 
     78 O          -4.8859  -26.4325  -47.5244 O.2       13 UNK        -0.5000 
     79 N          -2.7596  -25.9869  -46.8699 N.am      14 UNK        -0.5000 
     80 CA         -2.2420  -27.3557  -46.9457 C.3       14 UNK         0.1400 
     81 CB         -0.8700  -27.4362  -46.2596 C.3       14 UNK        -0.1800 
     82 C          -2.1534  -27.8792  -48.3894 C.2       14 UNK         0.5000 
     83 O          -2.4586  -29.0483  -48.6288 O.2       14 UNK        -0.5000 
     84 N          -1.7606  -27.0033  -49.3254 N.am      15 UNK        -0.5000 
     85 CA         -1.7537  -27.2769  -50.7630 C.3       15 UNK         0.1400 
     86 CB         -0.9978  -26.1541  -51.4850 C.3       15 UNK        -0.1800 
     87 C          -3.1721  -27.4424  -51.3421 C.2       15 UNK         0.5000 
     88 O          -3.3606  -28.2414  -52.2602 O.2       15 UNK        -0.5000 
     89 N          -4.1359  -26.6907  -50.7887 N.am      16 UNK        -0.5000 
     90 CA         -5.5859  -26.6989  -51.0249 C.3       16 UNK         0.1400 
     91 CB         -6.1990  -28.0792  -50.7261 C.3       16 UNK        -0.1800 
     92 C          -6.0082  -26.1838  -52.4124 C.2       16 UNK         0.5000 
     93 O          -6.9065  -25.3479  -52.5013 O.2       16 UNK        -0.5000 
     94 N          -5.3294  -26.6412  -53.4699 N.am      17 UNK        -0.5000 
     95 CA         -5.4799  -26.1492  -54.8412 C.3       17 UNK         0.1400 
     96 CB         -4.7806  -27.1261  -55.7982 C.3       17 UNK        -0.1800 
     97 C          -4.9204  -24.7234  -55.0212 C.2       17 UNK         0.5000 
     98 O          -5.3436  -24.0121  -55.9324 O.2       17 UNK        -0.5000 
     99 N          -3.9911  -24.3344  -54.1389 N.am      18 UNK        -0.5000 
    100 CA        -3.3296  -23.0329  -54.1078 C.3       18 UNK         0.1400 
    101 CB        -1.8205  -23.2585  -53.9237 C.3       18 UNK        -0.1800 
    102 C         -3.8911  -22.1162  -53.0038 C.2       18 UNK         0.5000 
    103 O         -3.2425  -21.1223  -52.6763 O.2       18 UNK        -0.5000 
    104 N         -5.0764  -22.4340  -52.4563 N.am      19 UNK        -0.5000 
    105 CA        -5.7333  -21.7301  -51.3431 C.3       19 UNK         0.1400 
    106 CB        -7.0224  -22.4711  -50.9615 C.3       19 UNK        -0.1800 
    107 C         -6.0184  -20.2307  -51.5772 C.2       19 UNK         0.5000 
    108 O         -6.1849  -19.4893  -50.6092 O.2       19 UNK        -0.5000 
    109 N         -6.0243  -19.8007  -52.8454 N.am      20 UNK        -0.5000 
    110 CA        -6.1047  -18.4027  -53.2786 C.3       20 UNK         0.1400 
    111 CB        -6.6235  -18.3811  -54.7268 C.3       20 UNK        -0.1800 
    112 C         -4.7659  -17.6329  -53.1567 C.2       20 UNK         0.5000 
    113 O         -4.6853  -16.5020  -53.6371 O.2       20 UNK        -0.5000 
    114 N         -3.7493  -18.2564  -52.5409 N.am      21 UNK        -0.5000 
    115 CA        -2.3445  -17.8480  -52.4547 C.3       21 UNK         0.1400 
    116 CB        -2.1692  -16.4499  -51.8223 C.3       21 UNK        -0.1800 
    117 C         -1.6481  -18.0213  -53.8172 C.2       21 UNK         0.5000 
    118 O         -1.0225  -17.0916  -54.3299 O.2       21 UNK        -0.5000 
    119 N         -1.7873  -19.2352  -54.3649 N.am      22 UNK        -0.5000 
    120 CA        -1.2975  -19.6734  -55.6821 C.3       22 UNK         0.1400 
    121 C         -2.0058  -18.9458  -56.8686 C.2       22 UNK         0.5000 
    122 N         -1.4241  -18.9228  -58.0615 N.am      22 UNK        -0.7600 
    123 O         -3.1212  -18.4460  -56.7384 O.2       22 UNK        -0.5000 
    124 C124        0.2575  -19.6961  -55.7862 C.3       23 UNK        -0.0398 
    125 S125        1.0505  -20.6464  -54.4391 S.3       23 UNK        -0.2404 
    126 C126        2.0634  -19.3762  -53.6208 C.3       23 UNK        -0.0205 
    127 H127        2.9649  -11.9962  -48.7481 H         1 UNK         0.0600 
    128 H128        3.3426  -12.6608  -47.1607 H         1 UNK         0.0600 
    129 H129        2.4979  -11.1119  -47.2918 H         1 UNK         0.0600 
    130 H130        1.8400  -14.0569  -46.2332 H         1 UNK         0.3000 
    131 H131        0.1572  -15.4296  -45.9818 H         1 UNK         0.0600 
    132 H132       -1.2309  -16.2013  -47.8362 H         1 UNK         0.0800 
    133 H133       -0.8234  -14.8149  -48.8089 H         1 UNK         0.0800 
    134 H134       -0.6709  -17.8570  -49.6364 H         1 UNK         0.0800 
    135 H135        0.0320  -18.5064  -48.1756 H         1 UNK         0.0800 
    136 H136        0.5512  -18.0322  -51.8119 H         1 UNK         0.1150 
    137 H137        3.5515  -21.0784  -52.0832 H         1 UNK         0.1150 
    138 H138        2.1232  -19.7908  -48.2515 H         1 UNK         0.1150 
    139 H139        4.7276  -21.7403  -50.0736 H         1 UNK         0.0800 
    140 H140        4.3227  -21.0676  -48.5213 H         1 UNK         0.0800 
    141 H141        2.3137  -21.6756  -47.2187 H         1 UNK         0.0800 
    142 H142        3.1819  -23.0155  -46.5641 H         1 UNK         0.0800 
    143 H143        1.3191  -24.4623  -46.6315 H         1 UNK         0.0600 
    144 H144        0.7719  -21.8372  -45.5458 H         1 UNK         0.3000 
    145 H145       -2.0938  -22.8048  -43.6586 H         1 UNK         0.0600 
    146 H146       -0.7034  -22.1516  -41.7119 H         1 UNK         0.0600 
    147 H147        0.7690  -22.3523  -42.6601 H         1 UNK         0.0600 
    148 H148       -0.2350  -23.7473  -42.2792 H         1 UNK         0.0600 
    149 H149       -0.5171  -20.4480  -43.5836 H         1 UNK         0.3000 
    150 H150       -1.5200  -18.8585  -46.5013 H         1 UNK         0.0600 
    151 H151       -3.6732  -18.4508  -45.4064 H         1 UNK         0.0600 
    152 H152       -2.6015  -17.0977  -45.0787 H         1 UNK         0.0600 
    153 H153       -2.9057  -18.3102  -43.8325 H         1 UNK         0.0600 
    154 H154       -0.4006  -17.7788  -44.1220 H         1 UNK         0.3000 
    155 H155        2.8360  -19.0983  -44.3049 H         1 UNK         0.0600 
    156 H156        3.1301  -17.7331  -46.3574 H         1 UNK         0.0600 
    157 H157        3.7467  -16.8839  -44.9474 H         1 UNK         0.0600 
    158 H158        2.1996  -16.4242  -45.6500 H         1 UNK         0.0600 
    159 H159        1.7930  -16.6400  -43.2043 H         1 UNK         0.3000 
    160 H160        0.2939  -18.0767  -40.3407 H         1 UNK         0.0600 
    161 H161        3.0709  -16.7738  -40.3921 H         1 UNK         0.0600 
    162 H162        2.6887  -18.3250  -39.6543 H         1 UNK         0.0600 
    163 H163        1.9876  -16.8532  -39.0017 H         1 UNK         0.0600 
    164 H164        1.0520  -15.3964  -40.8432 H         1 UNK         0.3000 
    165 H165       -1.2855  -14.4886  -43.2677 H         1 UNK         0.0600 
    166 H166       -2.3621  -12.9921  -41.6561 H         1 UNK         0.0600 
    167 H167       -2.8567  -14.6369  -41.3071 H         1 UNK         0.0600 
    168 H168       -1.6446  -13.8566  -40.2968 H         1 UNK         0.0600 
    169 H169        0.1922  -12.7977  -41.5822 H         1 UNK         0.3000 
    170 H170        3.2714  -13.1102  -42.2435 H         1 UNK         0.0600 
    171 H171        2.2720  -11.7788  -44.8106 H         1 UNK         0.0600 
    172 H172        3.8353  -11.4844  -44.0551 H         1 UNK         0.0600 
    173 H173        3.4675  -13.0715  -44.7047 H         1 UNK         0.0600 
    174 H174        1.3447  -10.8651  -42.6587 H         1 UNK         0.3000 
    175 H175        1.3290   -9.9855  -39.2974 H         1 UNK         0.0600 
    176 H176        3.0417   -8.4333  -41.3137 H         1 UNK         0.0600 
    177 H177        2.2951   -7.7668  -39.8606 H         1 UNK         0.0600 
    178 H178        3.5699   -8.9661  -39.7223 H         1 UNK         0.0600 
    179 H179        0.6028   -8.5079  -41.6430 H         1 UNK         0.3000 
    180 H180       -2.6576   -9.2108  -41.4186 H         1 UNK         0.0600 
    181 H181       -2.2401   -7.6567  -43.3078 H         1 UNK         0.0600 
    182 H182       -0.5506   -8.1348  -43.3794 H         1 UNK         0.0600 
    183 H183       -1.1777   -7.2864  -41.9653 H         1 UNK         0.0600 
    184 H184       -3.1922  -10.5934  -43.0589 H         1 UNK         0.3000 
    185 H185       -2.8135  -12.5527  -44.3608 H         1 UNK         0.0600 
    186 H186       -3.6618  -10.5074  -45.5819 H         1 UNK         0.0600 
    187 H187       -2.2525  -10.5499  -46.6355 H         1 UNK         0.0600 
    188 H188       -3.4414  -11.8491  -46.6906 H         1 UNK         0.0600 
    189 H189       -0.1805  -12.4176  -45.5002 H         1 UNK         0.3000 
    190 H190       -0.4795  -21.5959  -47.7704 H         1 UNK         0.3000 
    191 H191       -1.3482  -22.6733  -50.2640 H         1 UNK         0.0600 
    192 H192       -3.0304  -20.7822  -50.1172 H         1 UNK         0.0600 
    193 H193       -1.3781  -20.2734  -49.8529 H         1 UNK         0.0600 
    194 H194       -2.4808  -20.4465  -48.4870 H         1 UNK         0.0600 
    195 H195       -2.8790  -22.6195  -47.0158 H         1 UNK         0.3000 
    196 H196       -5.2623  -23.9756  -47.7130 H         1 UNK         0.0600 
    197 H197       -4.9769  -22.6639  -45.6232 H         1 UNK         0.0600 
    198 H198       -3.8054  -23.8356  -45.0220 H         1 UNK         0.0600 
    199 H199       -5.4843  -24.3058  -45.2543 H         1 UNK         0.0600 
    200 H200       -2.1139  -25.2804  -46.5301 H         1 UNK         0.3000 
    201 H201       -2.9299  -28.0054  -46.4007 H         1 UNK         0.0600 
    202 H202       -0.9430  -27.1778  -45.2032 H         1 UNK         0.0600 
    203 H203       -0.1489  -26.7611  -46.7217 H         1 UNK         0.0600 
    204 H204       -0.4609  -28.4456  -46.3179 H         1 UNK         0.0600 
    205 H205       -1.4569  -26.0789  -49.0351 H         1 UNK         0.3000 
    206 H206       -1.2174  -28.2130  -50.9313 H         1 UNK         0.0600 
    207 H207       -1.4277  -25.1801  -51.2548 H         1 UNK         0.0600 
    208 H208        0.0499  -26.1306  -51.1843 H         1 UNK         0.0600 
    209 H209       -1.0248  -26.2872  -52.5673 H         1 UNK         0.0600 
    210 H210       -3.8339  -25.9971  -50.1125 H         1 UNK         0.3000 
    211 H211       -5.9968  -25.9984  -50.2960 H         1 UNK         0.0600 
    212 H212       -5.8500  -28.8428  -51.4217 H         1 UNK         0.0600 
    213 H213       -7.2866  -28.0448  -50.7994 H         1 UNK         0.0600 
    214 H214       -5.9508  -28.4064  -49.7161 H         1 UNK         0.0600 
    215 H215       -4.6038  -27.3331  -53.2960 H         1 UNK         0.3000 
    216 H216       -6.5435  -26.1245  -55.0870 H         1 UNK         0.0600 
    217 H217       -4.8885  -26.8036  -56.8347 H         1 UNK         0.0600 
    218 H218       -5.2093  -28.1256  -55.7231 H         1 UNK         0.0600 
    219 H219       -3.7133  -27.2022  -55.5860 H         1 UNK         0.0600 
    220 H220       -3.7291  -24.9856  -53.4135 H         1 UNK         0.3000 
    221 H221       -3.4778  -22.5139  -55.0567 H         1 UNK         0.0600 
    222 H222       -1.5960  -23.6967  -52.9533 H         1 UNK         0.0600 
    223 H223       -1.4180  -23.9154  -54.6948 H         1 UNK         0.0600 
    224 H224       -1.2733  -22.3194  -53.9817 H         1 UNK         0.0600 
    225 H225       -5.5477  -23.2625  -52.7920 H         1 UNK         0.3000 
    226 H226       -5.0632  -21.7859  -50.4856 H         1 UNK         0.0600 
    227 H227       -6.8005  -23.4701  -50.5869 H         1 UNK         0.0600 
    228 H228       -7.5610  -21.9480  -50.1701 H         1 UNK         0.0600 
    229 H229       -7.6980  -22.5689  -51.8119 H         1 UNK         0.0600 
    230 H230       -5.8748  -20.4845  -53.5725 H         1 UNK         0.3000 
    231 H231       -6.8313  -17.8841  -52.6500 H         1 UNK         0.0600 
    232 H232       -6.7826  -17.3594  -55.0739 H         1 UNK         0.0600 
    233 H233       -7.5775  -18.9015  -54.8134 H         1 UNK         0.0600 
    234 H234       -5.9178  -18.8534  -55.4117 H         1 UNK         0.0600 
    235 H235       -3.9187  -19.2106  -52.2461 H         1 UNK         0.3000 
    236 H236       -1.8729  -18.5649  -51.7813 H         1 UNK         0.0600 
    237 H237       -2.5434  -15.6553  -52.4674 H         1 UNK         0.0600 
    238 H238       -2.6886  -16.3814  -50.8665 H         1 UNK         0.0600 
    239 H239       -1.1161  -16.2385  -51.6348 H         1 UNK         0.0600 
    240 H240       -2.3178  -19.9249  -53.8422 H         1 UNK         0.3000 
    241 H241       -1.6347  -20.7059  -55.7714 H         1 UNK         0.0600 
    242 H242       -1.9037  -18.4690  -58.8239 H         1 UNK         0.3800 
    243 H243       -0.5247  -19.3445  -58.2298 H         1 UNK         0.3800 
    244 H244        0.6510  -18.6799  -55.8241 H         1 UNK         0.0800 
    245 H245        0.5671  -20.1698  -56.7182 H         1 UNK         0.0800 
    246 H246        3.0864  -19.4386  -53.9945 H         1 UNK         0.0800 
    247 H247        1.7070  -18.3776  -53.8768 H         1 UNK         0.0800 
@<TRIPOS>BOND
     1    1    2 1    
     2    1  127 1    
     3    1  128 1    
     4    1  129 1    
     5    2    3 2    
     6    2    4 am   BACKBONE|DICT|INTERRES
     7    4    5 1    
     8    4  130 1    
     9    5    6 1    
    10    5   65 1    
    11    5  131 1    
    12    6    7 1    
    13    6  132 1    
    14    6  133 1    
    15    7    8 1    
    16    8    9 1    
    17    8  134 1    
    18    8  135 1    
    19    9   10 ar   
    20    9   14 ar   
    21   10   11 ar   
    22   10  136 1    
    23   11   12 ar   
    24   11  126 1    
    25   12   13 ar   
    26   12  137 1    
    27   13   14 ar   
    28   13   15 1    
    29   14  138 1    
    30   15   16 1    
    31   15  139 1    
    32   15  140 1    
    33   16   17 1    
    34   17   18 1    
    35   17  141 1    
    36   17  142 1    
    37   18   19 1    
    38   18   67 1    
    39   18  143 1    
    40   19   20 am   BACKBONE|DICT|INTERRES
    41   19  144 1    
    42   20   21 2    
    43   20   22 1    
    44   22   23 1    
    45   22   24 1    
    46   22  145 1    
    47   23  146 1    
    48   23  147 1    
    49   23  148 1    
    50   24   25 am   BACKBONE|DICT|INTERRES
    51   24  149 1    
    52   25   26 2    
    53   25   27 1    
    54   27   28 1    
    55   27   29 1    
    56   27  150 1    
    57   28  151 1    
    58   28  152 1    
    59   28  153 1    
    60   29   30 am   BACKBONE|DICT|INTERRES
    61   29  154 1    
    62   30   31 2    
    63   30   32 1    
    64   32   33 1    
    65   32   34 1    
    66   32  155 1    
    67   33  156 1    
    68   33  157 1    
    69   33  158 1    
    70   34   35 am   BACKBONE|DICT|INTERRES
    71   34  159 1    
    72   35   36 2    
    73   35   37 1    
    74   37   38 1    
    75   37   39 1    
    76   37  160 1    
    77   38  161 1    
    78   38  162 1    
    79   38  163 1    
    80   39   40 am   BACKBONE|DICT|INTERRES
    81   39  164 1    
    82   40   41 2    
    83   40   42 1    
    84   42   43 1    
    85   42   44 1    
    86   42  165 1    
    87   43  166 1    
    88   43  167 1    
    89   43  168 1    
    90   44   45 am   BACKBONE|DICT|INTERRES
    91   44  169 1    
    92   45   46 2    
    93   45   47 1    
    94   47   48 1    
    95   47   49 1    
    96   47  170 1    
    97   48  171 1    
    98   48  172 1    
    99   48  173 1    
   100   49   50 am   BACKBONE|DICT|INTERRES
   101   49  174 1    
   102   50   51 2    
   103   50   52 1    
   104   52   53 1    
   105   52   54 1    
   106   52  175 1    
   107   53  176 1    
   108   53  177 1    
   109   53  178 1    
   110   54   55 am   BACKBONE|DICT|INTERRES
   111   54  179 1    
   112   55   56 2    
   113   55   57 1    
   114   57   58 1    
   115   57   59 1    
   116   57  180 1    
   117   58  181 1    
   118   58  182 1    
   119   58  183 1    
   120   59   60 am   BACKBONE|DICT|INTERRES
   121   59  184 1    
   122   60   61 2    
   123   60   62 1    
   124   62   63 1    
   125   62   64 1    
   126   62  185 1    
   127   63  186 1    
   128   63  187 1    
   129   63  188 1    
   130   64   65 am   BACKBONE|DICT|INTERRES
   131   64  189 1    
   132   65   66 2    
   133   67   68 2    
   134   67   69 am   BACKBONE|DICT|INTERRES
   135   69   70 1    
   136   69  190 1    
   137   70   71 1    
   138   70   72 1    
   139   70  191 1    
   140   71  192 1    
   141   71  193 1    
   142   71  194 1    
   143   72   73 2    
   144   72   74 am   BACKBONE|DICT|INTERRES
   145   74   75 1    
   146   74  195 1    
   147   75   76 1    
   148   75   77 1    
   149   75  196 1    
   150   76  197 1    
   151   76  198 1    
   152   76  199 1    
   153   77   78 2    
   154   77   79 am   BACKBONE|DICT|INTERRES
   155   79   80 1    
   156   79  200 1    
   157   80   81 1    
   158   80   82 1    
   159   80  201 1    
   160   81  202 1    
   161   81  203 1    
   162   81  204 1    
   163   82   83 2    
   164   82   84 am   BACKBONE|DICT|INTERRES
   165   84   85 1    
   166   84  205 1    
   167   85   86 1    
   168   85   87 1    
   169   85  206 1    
   170   86  207 1    
   171   86  208 1    
   172   86  209 1    
   173   87   88 2    
   174   87   89 am   BACKBONE|DICT|INTERRES
   175   89   90 1    
   176   89  210 1    
   177   90   91 1    
   178   90   92 1    
   179   90  211 1    
   180   91  212 1    
   181   91  213 1    
   182   91  214 1    
   183   92   93 2    
   184   92   94 am   BACKBONE|DICT|INTERRES
   185   94   95 1    
   186   94  215 1    
   187   95   96 1    
   188   95   97 1    
   189   95  216 1    
   190   96  217 1    
   191   96  218 1    
   192   96  219 1    
   193   97   98 2    
   194   97   99 am   BACKBONE|DICT|INTERRES
   195   99  100 1    
   196   99  220 1    
   197  100  101 1    
   198  100  102 1    
   199  100  221 1    
   200  101  222 1    
   201  101  223 1    
   202  101  224 1    
   203  102  103 2    
   204  102  104 am   BACKBONE|DICT|INTERRES
   205  104  105 1    
   206  104  225 1    
   207  105  106 1    
   208  105  107 1    
   209  105  226 1    
   210  106  227 1    
   211  106  228 1    
   212  106  229 1    
   213  107  108 2    
   214  107  109 am   BACKBONE|DICT|INTERRES
   215  109  110 1    
   216  109  230 1    
   217  110  111 1    
   218  110  112 1    
   219  110  231 1    
   220  111  232 1    
   221  111  233 1    
   222  111  234 1    
   223  112  113 2    
   224  112  114 am   BACKBONE|DICT|INTERRES
   225  114  115 1    
   226  114  235 1    
   227  115  116 1    
   228  115  117 1    
   229  115  236 1    
   230  116  237 1    
   231  116  238 1    
   232  116  239 1    
   233  117  118 2    
   234  117  119 am   BACKBONE|DICT|INTERRES
   235  119  120 1    
   236  119  240 1    
   237  120  121 1    
   238  120  124 1    
   239  120  241 1    
   240  121  122 am   BACKBONE|DICT|INTERRES
   241  121  123 2    
   242  122  242 1    
   243  122  243 1    
   244  124  125 1    
   245  124  244 1    
   246  124  245 1    
   247  125  126 1    
   248  126  246 1    
   249  126  247 1    
@<TRIPOS>SUBSTRUCTURE
     1 UNK         1 GROUP             0       ****    0 ROOT    
