@<TRIPOS>MOLECULE
3R540
247   249    1
SMALL
USER_CHARGES


@<TRIPOS>ATOM
      1 CA         -1.4376  -13.6469  -54.0791 C.3       0 UNK        -0.1800 
      2 C          -0.8896  -13.4607  -52.6709 C.2       0 UNK         0.5000 
      3 O          -0.8237  -12.3332  -52.1803 O.2       0 UNK        -0.5000 
      4 N          -0.4888  -14.5600  -52.0253 N.am      1 UNK        -0.5000 
      5 CA         -0.0153  -14.6103  -50.6402 C.3       1 UNK         0.1400 
      6 C6          0.6921  -15.9601  -50.3979 C.3       23 UNK        -0.0398 
      7 S7          1.6389  -16.1360  -48.8457 S.3       23 UNK        -0.2404 
      8 C8          3.0749  -17.1319  -49.3930 C.3       23 UNK        -0.0205 
      9 C9          2.7427  -18.5941  -49.6964 C.ar      23 UNK        -0.0193 
     10 C10         1.9404  -18.9269  -50.7900 C.ar      23 UNK        -0.1150 
     11 C11         1.6473  -20.2523  -51.1006 C.ar      23 UNK        -0.0193 
     12 C12         2.1960  -21.2753  -50.3245 C.ar      23 UNK        -0.1150 
     13 C13         3.0348  -20.9711  -49.2462 C.ar      23 UNK        -0.0193 
     14 C14         3.2915  -19.6289  -48.9296 C.ar      23 UNK        -0.1150 
     15 C15         3.7194  -22.0975  -48.4794 C.3       23 UNK        -0.0205 
     16 S16         3.5000  -21.9839  -46.6774 S.3       23 UNK        -0.2404 
     17 C17         1.7790  -22.5487  -46.4457 C.3       23 UNK        -0.0398 
     18 CA          1.6438  -23.6091  -45.3212 C.3       11 UNK         0.1400 
     19 N           2.2474  -23.1487  -44.0706 N.am      11 UNK        -0.5000 
     20 C           2.7027  -23.9357  -43.0907 C.2       10 UNK         0.5000 
     21 O           2.7406  -25.1653  -43.1715 O.2       10 UNK        -0.5000 
     22 CA          3.1682  -23.2298  -41.7995 C.3       10 UNK         0.1400 
     23 CB          4.1674  -24.0669  -40.9732 C.3       10 UNK        -0.1800 
     24 N           3.6681  -21.8686  -42.0230 N.am      10 UNK        -0.5000 
     25 C           4.7737  -21.4904  -42.6841 C.2       9 UNK         0.5000 
     26 O           5.5710  -22.2822  -43.1885 O.2       9 UNK        -0.5000 
     27 CA          5.0516  -19.9737  -42.8027 C.3       9 UNK         0.1400 
     28 CB          5.0846  -19.5288  -44.2742 C.3       9 UNK        -0.1800 
     29 N           4.0839  -19.1410  -42.0849 N.am      9 UNK        -0.5000 
     30 C           4.0687  -18.9314  -40.7621 C.2       8 UNK         0.5000 
     31 O           4.9324  -19.3544  -39.9932 O.2       8 UNK        -0.5000 
     32 CA          2.8574  -18.1615  -40.1978 C.3       8 UNK         0.1400 
     33 CB          3.1303  -16.6502  -40.1838 C.3       8 UNK        -0.1800 
     34 N           1.6142  -18.4321  -40.9280 N.am      8 UNK        -0.5000 
     35 C           1.0087  -19.6284  -40.9785 C.2       7 UNK         0.5000 
     36 O           1.4126  -20.6199  -40.3713 O.2       7 UNK        -0.5000 
     37 CA         -0.2163  -19.7616  -41.9014 C.3       7 UNK         0.1400 
     38 CB         -1.4854  -19.2543  -41.2021 C.3       7 UNK        -0.1800 
     39 N          -0.0400  -19.0726  -43.1808 N.am      7 UNK        -0.5000 
     40 C           0.8766  -19.4113  -44.0988 C.2       6 UNK         0.5000 
     41 O           1.6452  -20.3618  -43.9655 O.2       6 UNK        -0.5000 
     42 CA          0.9981  -18.5104  -45.3427 C.3       6 UNK         0.1400 
     43 CB         -0.0973  -18.8114  -46.3736 C.3       6 UNK        -0.1800 
     44 N           0.9549  -17.0904  -45.0056 N.am      6 UNK        -0.5000 
     45 C           1.8538  -16.4610  -44.2383 C.2       5 UNK         0.5000 
     46 O           2.8589  -16.9985  -43.7745 O.2       5 UNK        -0.5000 
     47 CA          1.5410  -14.9989  -43.8838 C.3       5 UNK         0.1400 
     48 CB          1.9229  -14.0595  -45.0382 C.3       5 UNK        -0.1800 
     49 N           0.1302  -14.8171  -43.5361 N.am      5 UNK        -0.5000 
     50 C          -0.4383  -15.2939  -42.4188 C.2       4 UNK         0.5000 
     51 O           0.1765  -15.9135  -41.5513 O.2       4 UNK        -0.5000 
     52 CA         -1.9538  -15.0695  -42.2577 C.3       4 UNK         0.1400 
     53 CB         -2.2369  -13.6671  -41.6989 C.3       4 UNK        -0.1800 
     54 N          -2.6902  -15.2505  -43.5094 N.am      4 UNK        -0.5000 
     55 C          -2.8171  -16.4220  -44.1487 C.2       3 UNK         0.5000 
     56 O          -2.3603  -17.4812  -43.7262 O.2       3 UNK        -0.5000 
     57 CA         -3.5143  -16.3954  -45.5220 C.3       3 UNK         0.1400 
     58 CB         -5.0307  -16.5857  -45.3756 C.3       3 UNK        -0.1800 
     59 N          -3.2378  -15.1751  -46.2842 N.am      3 UNK        -0.5000 
     60 C          -2.0130  -14.8110  -46.6838 C.2       2 UNK         0.5000 
     61 O          -0.9901  -15.4419  -46.4086 O.2       2 UNK        -0.5000 
     62 CA         -1.9006  -13.5036  -47.4829 C.3       2 UNK         0.1400 
     63 CB         -1.4408  -12.3540  -46.5733 C.3       2 UNK        -0.1800 
     64 N          -0.9472  -13.6652  -48.5772 N.am      2 UNK        -0.5000 
     65 C          -1.1941  -14.3962  -49.6704 C.2       1 UNK         0.5000 
     66 O          -2.2930  -14.8991  -49.9185 O.2       1 UNK        -0.5000 
     67 C           0.1575  -23.9427  -45.0737 C.2       11 UNK         0.5000 
     68 O          -0.4448  -23.4241  -44.1278 O.2       11 UNK        -0.5000 
     69 N          -0.4387  -24.7571  -45.9550 N.am      12 UNK        -0.5000 
     70 CA         -1.8649  -25.1070  -45.9533 C.3       12 UNK         0.1400 
     71 CB         -2.0565  -26.4030  -46.7617 C.3       12 UNK        -0.1800 
     72 C          -2.7341  -23.9472  -46.4882 C.2       12 UNK         0.5000 
     73 O          -3.4195  -24.1019  -47.4999 O.2       12 UNK        -0.5000 
     74 N          -2.6448  -22.7911  -45.8176 N.am      13 UNK        -0.5000 
     75 CA         -3.1177  -21.4648  -46.2239 C.3       13 UNK         0.1400 
     76 CB         -3.0107  -20.5180  -45.0217 C.3       13 UNK        -0.1800 
     77 C          -4.5368  -21.4061  -46.8104 C.2       13 UNK         0.5000 
     78 O          -4.7377  -20.7480  -47.8313 O.2       13 UNK        -0.5000 
     79 N          -5.4737  -22.1250  -46.1794 N.am      14 UNK        -0.5000 
     80 CA         -6.8844  -22.2017  -46.5659 C.3       14 UNK         0.1400 
     81 CB         -7.6515  -22.9762  -45.4834 C.3       14 UNK        -0.1800 
     82 C          -7.1350  -22.8278  -47.9532 C.2       14 UNK         0.5000 
     83 O          -8.1783  -22.5579  -48.5491 O.2       14 UNK        -0.5000 
     84 N          -6.1894  -23.6412  -48.4386 N.am      15 UNK        -0.5000 
     85 CA         -6.2191  -24.2506  -49.7658 C.3       15 UNK         0.1400 
     86 CB         -5.9982  -25.7653  -49.6238 C.3       15 UNK        -0.1800 
     87 C          -5.1474  -23.6384  -50.6810 C.2       15 UNK         0.5000 
     88 O          -5.4160  -23.4183  -51.8614 O.2       15 UNK        -0.5000 
     89 N          -3.9484  -23.4035  -50.1325 N.am      16 UNK        -0.5000 
     90 CA         -2.7666  -22.9857  -50.8782 C.3       16 UNK         0.1400 
     91 CB         -1.5066  -23.3079  -50.0555 C.3       16 UNK        -0.1800 
     92 C          -2.7819  -21.5017  -51.2704 C.2       16 UNK         0.5000 
     93 O          -2.4734  -21.1916  -52.4182 O.2       16 UNK        -0.5000 
     94 N          -3.0829  -20.6204  -50.3079 N.am      17 UNK        -0.5000 
     95 CA         -2.9128  -19.1718  -50.4445 C.3       17 UNK         0.1400 
     96 CB         -2.1786  -18.6393  -49.2048 C.3       17 UNK        -0.1800 
     97 C          -4.2495  -18.4433  -50.6369 C.2       17 UNK         0.5000 
     98 O          -4.3133  -17.4833  -51.4055 O.2       17 UNK        -0.5000 
     99 N          -5.2970  -18.9149  -49.9481 N.am      18 UNK        -0.5000 
    100 CA        -6.6465  -18.3477  -49.9822 C.3       18 UNK         0.1400 
    101 CB        -7.4161  -18.8445  -48.7491 C.3       18 UNK        -0.1800 
    102 C         -7.4268  -18.6578  -51.2776 C.2       18 UNK         0.5000 
    103 O         -8.4982  -18.0851  -51.4830 O.2       18 UNK        -0.5000 
    104 N         -6.8932  -19.5460  -52.1223 N.am      19 UNK        -0.5000 
    105 CA        -7.4196  -19.9046  -53.4335 C.3       19 UNK         0.1400 
    106 CB        -8.1858  -21.2334  -53.3225 C.3       19 UNK        -0.1800 
    107 C         -6.2507  -20.0144  -54.4242 C.2       19 UNK         0.5000 
    108 O         -5.1042  -20.1702  -53.9993 O.2       19 UNK        -0.5000 
    109 N         -6.5740  -19.9414  -55.7237 N.am      20 UNK        -0.5000 
    110 CA        -5.6605  -19.9639  -56.8752 C.3       20 UNK         0.1400 
    111 CB        -4.8783  -21.2955  -56.9291 C.3       20 UNK        -0.1800 
    112 C         -4.7273  -18.7333  -56.9445 C.2       20 UNK         0.5000 
    113 O         -4.8248  -17.8207  -56.1205 O.2       20 UNK        -0.5000 
    114 N         -3.8407  -18.7166  -57.9501 N.am      21 UNK        -0.5000 
    115 CA        -2.8924  -17.6281  -58.2198 C.3       21 UNK         0.1400 
    116 CB        -2.2119  -17.8829  -59.5737 C.3       21 UNK        -0.1800 
    117 C         -1.8353  -17.4258  -57.1147 C.2       21 UNK         0.5000 
    118 O         -1.3181  -16.3180  -56.9661 O.2       21 UNK        -0.5000 
    119 N         -1.5456  -18.4919  -56.3586 N.am      22 UNK        -0.5000 
    120 CA        -0.6967  -18.4670  -55.1586 C.3       22 UNK         0.1400 
    121 C         -1.3739  -17.7849  -53.9281 C.2       22 UNK         0.5000 
    122 N         -2.6924  -17.6290  -53.8909 N.am      22 UNK        -0.7600 
    123 O         -0.6895  -17.3492  -53.0075 O.2       22 UNK        -0.5000 
    124 C124       -0.1768  -19.8967  -54.8428 C.3       23 UNK        -0.0398 
    125 S125        1.3586  -19.9425  -53.8541 S.3       23 UNK        -0.2404 
    126 C126        0.7109  -20.5455  -52.2610 C.3       23 UNK        -0.0205 
    127 H127       -1.4081  -14.6915  -54.3912 H         1 UNK         0.0600 
    128 H128       -0.8530  -13.0645  -54.7911 H         1 UNK         0.0600 
    129 H129       -2.4726  -13.3086  -54.1269 H         1 UNK         0.0600 
    130 H130       -0.6086  -15.4686  -52.4662 H         1 UNK         0.3000 
    131 H131        0.7107  -13.8063  -50.5015 H         1 UNK         0.0600 
    132 H132       -0.0217  -16.7831  -50.4619 H         1 UNK         0.0800 
    133 H133        1.3981  -16.0886  -51.2179 H         1 UNK         0.0800 
    134 H134        3.5246  -16.6730  -50.2744 H         1 UNK         0.0800 
    135 H135        3.8336  -17.0796  -48.6108 H         1 UNK         0.0800 
    136 H136        1.5366  -18.1675  -51.4358 H         1 UNK         0.1150 
    137 H137        1.9874  -22.3063  -50.5732 H         1 UNK         0.1150 
    138 H138        3.9445  -19.3936  -48.1009 H         1 UNK         0.1150 
    139 H139        3.3791  -23.0757  -48.8226 H         1 UNK         0.0800 
    140 H140        4.7872  -22.0551  -48.6973 H         1 UNK         0.0800 
    141 H141        1.3986  -22.9441  -47.3888 H         1 UNK         0.0800 
    142 H142        1.1736  -21.6722  -46.2223 H         1 UNK         0.0800 
    143 H143        2.1526  -24.5201  -45.6432 H         1 UNK         0.0600 
    144 H144        2.2027  -22.1441  -43.9155 H         1 UNK         0.3000 
    145 H145        2.2692  -23.1149  -41.1929 H         1 UNK         0.0600 
    146 H146        4.4713  -23.5387  -40.0695 H         1 UNK         0.0600 
    147 H147        3.7202  -25.0110  -40.6604 H         1 UNK         0.0600 
    148 H148        5.0661  -24.3064  -41.5419 H         1 UNK         0.0600 
    149 H149        3.0705  -21.1370  -41.6585 H         1 UNK         0.3000 
    150 H150        6.0418  -19.7976  -42.3779 H         1 UNK         0.0600 
    151 H151        5.8125  -20.1054  -44.8462 H         1 UNK         0.0600 
    152 H152        5.3607  -18.4779  -44.3620 H         1 UNK         0.0600 
    153 H153        4.1152  -19.6583  -44.7546 H         1 UNK         0.0600 
    154 H154        3.3646  -18.7032  -42.6505 H         1 UNK         0.3000 
    155 H155        2.7135  -18.4878  -39.1658 H         1 UNK         0.0600 
    156 H156        4.0395  -16.4222  -39.6262 H         1 UNK         0.0600 
    157 H157        2.3132  -16.1068  -39.7090 H         1 UNK         0.0600 
    158 H158        3.2548  -16.2533  -41.1913 H         1 UNK         0.0600 
    159 H159        1.1934  -17.6470  -41.4151 H         1 UNK         0.3000 
    160 H160       -0.3529  -20.8240  -42.1160 H         1 UNK         0.0600 
    161 H161       -1.4376  -18.1824  -41.0092 H         1 UNK         0.0600 
    162 H162       -1.6322  -19.7558  -40.2448 H         1 UNK         0.0600 
    163 H163       -2.3708  -19.4470  -41.8082 H         1 UNK         0.0600 
    164 H164       -0.6857  -18.3128  -43.3783 H         1 UNK         0.3000 
    165 H165        1.9646  -18.7161  -45.8080 H         1 UNK         0.0600 
    166 H166        0.0775  -18.2491  -47.2902 H         1 UNK         0.0600 
    167 H167       -0.1244  -19.8666  -46.6406 H         1 UNK         0.0600 
    168 H168       -1.0835  -18.5373  -46.0025 H         1 UNK         0.0600 
    169 H169        0.1834  -16.5515  -45.3911 H         1 UNK         0.3000 
    170 H170        2.1436  -14.7281  -43.0141 H         1 UNK         0.0600 
    171 H171        2.9851  -14.1451  -45.2706 H         1 UNK         0.0600 
    172 H172        1.3727  -14.2904  -45.9507 H         1 UNK         0.0600 
    173 H173        1.7295  -13.0181  -44.7810 H         1 UNK         0.0600 
    174 H174       -0.4559  -14.3830  -44.2329 H         1 UNK         0.3000 
    175 H175       -2.3235  -15.8035  -41.5385 H         1 UNK         0.0600 
    176 H176       -1.7123  -13.5104  -40.7553 H         1 UNK         0.0600 
    177 H177       -1.9152  -12.8847  -42.3874 H         1 UNK         0.0600 
    178 H178       -3.3005  -13.5275  -41.5048 H         1 UNK         0.0600 
    179 H179       -3.0939  -14.4262  -43.9284 H         1 UNK         0.3000 
    180 H180       -3.1264  -17.2344  -46.1024 H         1 UNK         0.0600 
    181 H181       -5.2570  -17.5021  -44.8285 H         1 UNK         0.0600 
    182 H182       -5.4913  -15.7575  -44.8358 H         1 UNK         0.0600 
    183 H183       -5.5138  -16.6644  -46.3499 H         1 UNK         0.0600 
    184 H184       -4.0332  -14.6075  -46.5391 H         1 UNK         0.3000 
    185 H185       -2.8775  -13.2492  -47.8996 H         1 UNK         0.0600 
    186 H186       -2.1392  -12.2035  -45.7491 H         1 UNK         0.0600 
    187 H187       -0.4589  -12.5467  -46.1407 H         1 UNK         0.0600 
    188 H188       -1.3841  -11.4153  -47.1247 H         1 UNK         0.0600 
    189 H189       -0.0111  -13.3256  -48.4127 H         1 UNK         0.3000 
    190 H190        0.1040  -25.1338  -46.7189 H         1 UNK         0.3000 
    191 H191       -2.1812  -25.3045  -44.9269 H         1 UNK         0.0600 
    192 H192       -1.7530  -26.2787  -47.8021 H         1 UNK         0.0600 
    193 H193       -3.1020  -26.7143  -46.7602 H         1 UNK         0.0600 
    194 H194       -1.4752  -27.2219  -46.3378 H         1 UNK         0.0600 
    195 H195       -2.0309  -22.8043  -45.0076 H         1 UNK         0.3000 
    196 H196       -2.4337  -21.1116  -46.9975 H         1 UNK         0.0600 
    197 H197       -1.9866  -20.4574  -44.6568 H         1 UNK         0.0600 
    198 H198       -3.6371  -20.8454  -44.1912 H         1 UNK         0.0600 
    199 H199       -3.3247  -19.5095  -45.2891 H         1 UNK         0.0600 
    200 H200       -5.1982  -22.6565  -45.3667 H         1 UNK         0.3000 
    201 H201       -7.2735  -21.1821  -46.5957 H         1 UNK         0.0600 
    202 H202       -8.7155  -23.0281  -45.7186 H         1 UNK         0.0600 
    203 H203       -7.2862  -23.9995  -45.3872 H         1 UNK         0.0600 
    204 H204       -7.5592  -22.4925  -44.5108 H         1 UNK         0.0600 
    205 H205       -5.3477  -23.7901  -47.8923 H         1 UNK         0.3000 
    206 H206       -7.1883  -24.0954  -50.2443 H         1 UNK         0.0600 
    207 H207       -6.7874  -26.2220  -49.0265 H         1 UNK         0.0600 
    208 H208       -6.0032  -26.2544  -50.5987 H         1 UNK         0.0600 
    209 H209       -5.0440  -25.9918  -49.1457 H         1 UNK         0.0600 
    210 H210       -3.7983  -23.6430  -49.1547 H         1 UNK         0.3000 
    211 H211       -2.7205  -23.5725  -51.7984 H         1 UNK         0.0600 
    212 H212       -0.6025  -23.0620  -50.6130 H         1 UNK         0.0600 
    213 H213       -1.4570  -24.3686  -49.8087 H         1 UNK         0.0600 
    214 H214       -1.4768  -22.7457  -49.1215 H         1 UNK         0.0600 
    215 H215       -3.4190  -20.9569  -49.4145 H         1 UNK         0.3000 
    216 H216       -2.2913  -18.9438  -51.3113 H         1 UNK         0.0600 
    217 H217       -2.0468  -17.5585  -49.2596 H         1 UNK         0.0600 
    218 H218       -1.1864  -19.0835  -49.1274 H         1 UNK         0.0600 
    219 H219       -2.7210  -18.8546  -48.2840 H         1 UNK         0.0600 
    220 H220       -5.1488  -19.6825  -49.2979 H         1 UNK         0.3000 
    221 H221       -6.5600  -17.2615  -49.9103 H         1 UNK         0.0600 
    222 H222       -7.5609  -19.9235  -48.7834 H         1 UNK         0.0600 
    223 H223       -6.8864  -18.6051  -47.8266 H         1 UNK         0.0600 
    224 H224       -8.4022  -18.3827  -48.6882 H         1 UNK         0.0600 
    225 H225       -5.9693  -19.9110  -51.9288 H         1 UNK         0.3000 
    226 H226       -8.0940  -19.1249  -53.7938 H         1 UNK         0.0600 
    227 H227       -9.0138  -21.1528  -52.6181 H         1 UNK         0.0600 
    228 H228       -8.6048  -21.5283  -54.2851 H         1 UNK         0.0600 
    229 H229       -7.5372  -22.0423  -52.9843 H         1 UNK         0.0600 
    230 H230       -7.5449  -19.7898  -55.9583 H         1 UNK         0.3000 
    231 H231       -6.2973  -19.9158  -57.7596 H         1 UNK         0.0600 
    232 H232       -5.5461  -22.1485  -56.8080 H         1 UNK         0.0600 
    233 H233       -4.1187  -21.3547  -56.1489 H         1 UNK         0.0600 
    234 H234       -4.3723  -21.4227  -57.8863 H         1 UNK         0.0600 
    235 H235       -3.8227  -19.4924  -58.5962 H         1 UNK         0.3000 
    236 H236       -3.4632  -16.7002  -58.2947 H         1 UNK         0.0600 
    237 H237       -2.9437  -17.9376  -60.3799 H         1 UNK         0.0600 
    238 H238       -1.5189  -17.0774  -59.8207 H         1 UNK         0.0600 
    239 H239       -1.6443  -18.8143  -59.5697 H         1 UNK         0.0600 
    240 H240       -2.0298  -19.3559  -56.5497 H         1 UNK         0.3000 
    241 H241        0.1718  -17.8520  -55.4028 H         1 UNK         0.0600 
    242 H242       -3.2846  -17.9369  -54.6514 H         1 UNK         0.3800 
    243 H243       -3.1282  -17.2395  -53.0642 H         1 UNK         0.3800 
    244 H244       -0.9553  -20.4987  -54.3742 H         1 UNK         0.0800 
    245 H245        0.0600  -20.4109  -55.7753 H         1 UNK         0.0800 
    246 H246        0.4889  -21.6107  -52.3366 H         1 UNK         0.0800 
    247 H247       -0.2288  -20.0370  -52.0507 H         1 UNK         0.0800 
@<TRIPOS>BOND
     1    1    2 1    
     2    1  127 1    
     3    1  128 1    
     4    1  129 1    
     5    2    3 2    
     6    2    4 am   BACKBONE|DICT|INTERRES
     7    4    5 1    
     8    4  130 1    
     9    5    6 1    
    10    5   65 1    
    11    5  131 1    
    12    6    7 1    
    13    6  132 1    
    14    6  133 1    
    15    7    8 1    
    16    8    9 1    
    17    8  134 1    
    18    8  135 1    
    19    9   10 ar   
    20    9   14 ar   
    21   10   11 ar   
    22   10  136 1    
    23   11   12 ar   
    24   11  126 1    
    25   12   13 ar   
    26   12  137 1    
    27   13   14 ar   
    28   13   15 1    
    29   14  138 1    
    30   15   16 1    
    31   15  139 1    
    32   15  140 1    
    33   16   17 1    
    34   17   18 1    
    35   17  141 1    
    36   17  142 1    
    37   18   19 1    
    38   18   67 1    
    39   18  143 1    
    40   19   20 am   BACKBONE|DICT|INTERRES
    41   19  144 1    
    42   20   21 2    
    43   20   22 1    
    44   22   23 1    
    45   22   24 1    
    46   22  145 1    
    47   23  146 1    
    48   23  147 1    
    49   23  148 1    
    50   24   25 am   BACKBONE|DICT|INTERRES
    51   24  149 1    
    52   25   26 2    
    53   25   27 1    
    54   27   28 1    
    55   27   29 1    
    56   27  150 1    
    57   28  151 1    
    58   28  152 1    
    59   28  153 1    
    60   29   30 am   BACKBONE|DICT|INTERRES
    61   29  154 1    
    62   30   31 2    
    63   30   32 1    
    64   32   33 1    
    65   32   34 1    
    66   32  155 1    
    67   33  156 1    
    68   33  157 1    
    69   33  158 1    
    70   34   35 am   BACKBONE|DICT|INTERRES
    71   34  159 1    
    72   35   36 2    
    73   35   37 1    
    74   37   38 1    
    75   37   39 1    
    76   37  160 1    
    77   38  161 1    
    78   38  162 1    
    79   38  163 1    
    80   39   40 am   BACKBONE|DICT|INTERRES
    81   39  164 1    
    82   40   41 2    
    83   40   42 1    
    84   42   43 1    
    85   42   44 1    
    86   42  165 1    
    87   43  166 1    
    88   43  167 1    
    89   43  168 1    
    90   44   45 am   BACKBONE|DICT|INTERRES
    91   44  169 1    
    92   45   46 2    
    93   45   47 1    
    94   47   48 1    
    95   47   49 1    
    96   47  170 1    
    97   48  171 1    
    98   48  172 1    
    99   48  173 1    
   100   49   50 am   BACKBONE|DICT|INTERRES
   101   49  174 1    
   102   50   51 2    
   103   50   52 1    
   104   52   53 1    
   105   52   54 1    
   106   52  175 1    
   107   53  176 1    
   108   53  177 1    
   109   53  178 1    
   110   54   55 am   BACKBONE|DICT|INTERRES
   111   54  179 1    
   112   55   56 2    
   113   55   57 1    
   114   57   58 1    
   115   57   59 1    
   116   57  180 1    
   117   58  181 1    
   118   58  182 1    
   119   58  183 1    
   120   59   60 am   BACKBONE|DICT|INTERRES
   121   59  184 1    
   122   60   61 2    
   123   60   62 1    
   124   62   63 1    
   125   62   64 1    
   126   62  185 1    
   127   63  186 1    
   128   63  187 1    
   129   63  188 1    
   130   64   65 am   BACKBONE|DICT|INTERRES
   131   64  189 1    
   132   65   66 2    
   133   67   68 2    
   134   67   69 am   BACKBONE|DICT|INTERRES
   135   69   70 1    
   136   69  190 1    
   137   70   71 1    
   138   70   72 1    
   139   70  191 1    
   140   71  192 1    
   141   71  193 1    
   142   71  194 1    
   143   72   73 2    
   144   72   74 am   BACKBONE|DICT|INTERRES
   145   74   75 1    
   146   74  195 1    
   147   75   76 1    
   148   75   77 1    
   149   75  196 1    
   150   76  197 1    
   151   76  198 1    
   152   76  199 1    
   153   77   78 2    
   154   77   79 am   BACKBONE|DICT|INTERRES
   155   79   80 1    
   156   79  200 1    
   157   80   81 1    
   158   80   82 1    
   159   80  201 1    
   160   81  202 1    
   161   81  203 1    
   162   81  204 1    
   163   82   83 2    
   164   82   84 am   BACKBONE|DICT|INTERRES
   165   84   85 1    
   166   84  205 1    
   167   85   86 1    
   168   85   87 1    
   169   85  206 1    
   170   86  207 1    
   171   86  208 1    
   172   86  209 1    
   173   87   88 2    
   174   87   89 am   BACKBONE|DICT|INTERRES
   175   89   90 1    
   176   89  210 1    
   177   90   91 1    
   178   90   92 1    
   179   90  211 1    
   180   91  212 1    
   181   91  213 1    
   182   91  214 1    
   183   92   93 2    
   184   92   94 am   BACKBONE|DICT|INTERRES
   185   94   95 1    
   186   94  215 1    
   187   95   96 1    
   188   95   97 1    
   189   95  216 1    
   190   96  217 1    
   191   96  218 1    
   192   96  219 1    
   193   97   98 2    
   194   97   99 am   BACKBONE|DICT|INTERRES
   195   99  100 1    
   196   99  220 1    
   197  100  101 1    
   198  100  102 1    
   199  100  221 1    
   200  101  222 1    
   201  101  223 1    
   202  101  224 1    
   203  102  103 2    
   204  102  104 am   BACKBONE|DICT|INTERRES
   205  104  105 1    
   206  104  225 1    
   207  105  106 1    
   208  105  107 1    
   209  105  226 1    
   210  106  227 1    
   211  106  228 1    
   212  106  229 1    
   213  107  108 2    
   214  107  109 am   BACKBONE|DICT|INTERRES
   215  109  110 1    
   216  109  230 1    
   217  110  111 1    
   218  110  112 1    
   219  110  231 1    
   220  111  232 1    
   221  111  233 1    
   222  111  234 1    
   223  112  113 2    
   224  112  114 am   BACKBONE|DICT|INTERRES
   225  114  115 1    
   226  114  235 1    
   227  115  116 1    
   228  115  117 1    
   229  115  236 1    
   230  116  237 1    
   231  116  238 1    
   232  116  239 1    
   233  117  118 2    
   234  117  119 am   BACKBONE|DICT|INTERRES
   235  119  120 1    
   236  119  240 1    
   237  120  121 1    
   238  120  124 1    
   239  120  241 1    
   240  121  122 am   BACKBONE|DICT|INTERRES
   241  121  123 2    
   242  122  242 1    
   243  122  243 1    
   244  124  125 1    
   245  124  244 1    
   246  124  245 1    
   247  125  126 1    
   248  126  246 1    
   249  126  247 1    
@<TRIPOS>SUBSTRUCTURE
     1 UNK         1 GROUP             0       ****    0 ROOT    
