@<TRIPOS>MOLECULE
3R540
247   249    1
SMALL
USER_CHARGES


@<TRIPOS>ATOM
      1 CA         -4.8994   -9.2428  -45.9119 C.3       0 UNK        -0.1800 
      2 C          -4.0626  -10.2199  -46.7260 C.2       0 UNK         0.5000 
      3 O          -4.2885  -10.3668  -47.9275 O.2       0 UNK        -0.5000 
      4 N          -3.1046  -10.8929  -46.0764 N.am      1 UNK        -0.5000 
      5 CA         -2.1583  -11.8184  -46.7036 C.3       1 UNK         0.1400 
      6 C6         -1.4601  -12.6981  -45.6363 C.3       23 UNK        -0.0398 
      7 S7         -0.4662  -14.0403  -46.3646 S.3       23 UNK        -0.2404 
      8 C8         -1.6756  -15.3922  -46.4629 C.3       23 UNK        -0.0205 
      9 C9         -1.2773  -16.3639  -47.5595 C.ar      23 UNK        -0.0193 
     10 C10        -1.7840  -16.2046  -48.8509 C.ar      23 UNK        -0.1150 
     11 C11        -1.3691  -17.0478  -49.8842 C.ar      23 UNK        -0.0193 
     12 C12        -0.4566  -18.0732  -49.6140 C.ar      23 UNK        -0.1150 
     13 C13         0.0466  -18.2522  -48.3207 C.ar      23 UNK        -0.0193 
     14 C14        -0.3649  -17.3892  -47.3003 C.ar      23 UNK        -0.1150 
     15 C15         1.0841  -19.3296  -48.0305 C.3       23 UNK        -0.0205 
     16 S16         0.5013  -21.0187  -48.3882 S.3       23 UNK        -0.2404 
     17 C17        -0.9363  -21.1807  -47.2806 C.3       23 UNK        -0.0398 
     18 CA         -1.1002  -22.6250  -46.7508 C.3       11 UNK         0.1400 
     19 N          -0.1649  -22.9520  -45.6711 N.am      11 UNK        -0.5000 
     20 C           0.0009  -24.1809  -45.1601 C.2       10 UNK         0.5000 
     21 O          -0.6011  -25.1771  -45.5604 O.2       10 UNK        -0.5000 
     22 CA          0.9564  -24.3106  -43.9640 C.3       10 UNK         0.1400 
     23 CB          2.4230  -24.3084  -44.4219 C.3       10 UNK        -0.1800 
     24 N           0.7384  -23.2495  -42.9824 N.am      10 UNK        -0.5000 
     25 C          -0.3440  -23.1572  -42.1970 C.2       9 UNK         0.5000 
     26 O          -1.2644  -23.9748  -42.1993 O.2       9 UNK        -0.5000 
     27 CA         -0.4309  -21.9153  -41.2899 C.3       9 UNK         0.1400 
     28 CB          0.4160  -22.1050  -40.0228 C.3       9 UNK        -0.1800 
     29 N          -0.0151  -20.6905  -41.9757 N.am      9 UNK        -0.5000 
     30 C          -0.6631  -20.1629  -43.0229 C.2       8 UNK         0.5000 
     31 O          -1.6989  -20.6301  -43.4910 O.2       8 UNK        -0.5000 
     32 CA         -0.0259  -18.9430  -43.7049 C.3       8 UNK         0.1400 
     33 CB         -0.5352  -17.6387  -43.0794 C.3       8 UNK        -0.1800 
     34 N           1.4399  -18.9553  -43.7260 N.am      8 UNK        -0.5000 
     35 C           2.1853  -19.9076  -44.3088 C.2       7 UNK         0.5000 
     36 O           1.7006  -20.9250  -44.8048 O.2       7 UNK        -0.5000 
     37 CA          3.7109  -19.7051  -44.3694 C.3       7 UNK         0.1400 
     38 CB          4.2164  -19.8052  -45.8188 C.3       7 UNK        -0.1800 
     39 N           4.1178  -18.4089  -43.8287 N.am      7 UNK        -0.5000 
     40 C           4.7630  -18.2180  -42.6703 C.2       6 UNK         0.5000 
     41 O           5.0949  -19.1319  -41.9146 O.2       6 UNK        -0.5000 
     42 CA          5.0952  -16.7618  -42.2797 C.3       6 UNK         0.1400 
     43 CB          6.5564  -16.4355  -42.6245 C.3       6 UNK        -0.1800 
     44 N           4.2276  -15.7674  -42.9153 N.am      6 UNK        -0.5000 
     45 C           2.9172  -15.6297  -42.6743 C.2       5 UNK         0.5000 
     46 O           2.3033  -16.3045  -41.8484 O.2       5 UNK        -0.5000 
     47 CA          2.1531  -14.6035  -43.5322 C.3       5 UNK         0.1400 
     48 CB          2.0716  -13.2502  -42.8115 C.3       5 UNK        -0.1800 
     49 N           2.6967  -14.3932  -44.8770 N.am      5 UNK        -0.5000 
     50 C           2.8903  -15.3274  -45.8211 C.2       4 UNK         0.5000 
     51 O           2.7544  -16.5346  -45.6179 O.2       4 UNK        -0.5000 
     52 CA          3.2956  -14.8242  -47.2226 C.3       4 UNK         0.1400 
     53 CB          2.6042  -15.6217  -48.3414 C.3       4 UNK        -0.1800 
     54 N           2.9795  -13.4047  -47.4049 N.am      4 UNK        -0.5000 
     55 C           3.8453  -12.3891  -47.3030 C.2       3 UNK         0.5000 
     56 O           5.0331  -12.5433  -47.0159 O.2       3 UNK        -0.5000 
     57 CA          3.2890  -10.9606  -47.5090 C.3       3 UNK         0.1400 
     58 CB          4.2827  -10.0502  -48.2601 C.3       3 UNK        -0.1800 
     59 N           1.9557  -10.8969  -48.1265 N.am      3 UNK        -0.5000 
     60 C           1.5953  -11.2833  -49.3591 C.2       2 UNK         0.5000 
     61 O           2.3688  -11.8068  -50.1621 O.2       2 UNK        -0.5000 
     62 CA          0.1142  -11.0581  -49.7408 C.3       2 UNK         0.1400 
     63 CB         -0.2378  -11.6500  -51.1180 C.3       2 UNK        -0.1800 
     64 N          -0.8157  -11.6083  -48.7508 N.am      2 UNK        -0.5000 
     65 C          -1.1450  -11.0473  -47.5801 C.2       1 UNK         0.5000 
     66 O          -0.6560   -9.9910  -47.1706 O.2       1 UNK        -0.5000 
     67 C          -2.5656  -22.9048  -46.3635 C.2       11 UNK         0.5000 
     68 O          -3.3100  -23.4089  -47.2034 O.2       11 UNK        -0.5000 
     69 N          -2.9513  -22.6126  -45.1137 N.am      12 UNK        -0.5000 
     70 CA         -4.2730  -22.9226  -44.5689 C.3       12 UNK         0.1400 
     71 CB         -4.4694  -22.2020  -43.2267 C.3       12 UNK        -0.1800 
     72 C          -4.5048  -24.4352  -44.4117 C.2       12 UNK         0.5000 
     73 O          -5.5711  -24.9213  -44.7882 O.2       12 UNK        -0.5000 
     74 N          -3.5012  -25.1532  -43.8854 N.am      13 UNK        -0.5000 
     75 CA         -3.5365  -26.6040  -43.6840 C.3       13 UNK         0.1400 
     76 CB         -2.3186  -27.0400  -42.8556 C.3       13 UNK        -0.1800 
     77 C          -3.6078  -27.3942  -45.0035 C.2       13 UNK         0.5000 
     78 O          -4.3747  -28.3531  -45.0984 O.2       13 UNK        -0.5000 
     79 N          -2.8245  -26.9652  -46.0014 N.am      14 UNK        -0.5000 
     80 CA         -2.7993  -27.5478  -47.3441 C.3       14 UNK         0.1400 
     81 CB         -1.4777  -27.1536  -48.0229 C.3       14 UNK        -0.1800 
     82 C          -3.9900  -27.1155  -48.2225 C.2       14 UNK         0.5000 
     83 O          -4.2406  -27.7550  -49.2445 O.2       14 UNK        -0.5000 
     84 N          -4.6629  -26.0194  -47.8377 N.am      15 UNK        -0.5000 
     85 CA         -5.6752  -25.2744  -48.5984 C.3       15 UNK         0.1400 
     86 CB         -6.9415  -26.1223  -48.8336 C.3       15 UNK        -0.1800 
     87 C          -5.1053  -24.6651  -49.8994 C.2       15 UNK         0.5000 
     88 O          -5.8367  -24.4642  -50.8702 O.2       15 UNK        -0.5000 
     89 N          -3.7995  -24.3656  -49.8897 N.am      16 UNK        -0.5000 
     90 CA         -3.0379  -23.8590  -51.0274 C.3       16 UNK         0.1400 
     91 CB         -1.5385  -23.8952  -50.6983 C.3       16 UNK        -0.1800 
     92 C          -3.4750  -22.4460  -51.4352 C.2       16 UNK         0.5000 
     93 O          -3.6201  -22.1857  -52.6270 O.2       16 UNK        -0.5000 
     94 N          -3.7292  -21.5839  -50.4400 N.am      17 UNK        -0.5000 
     95 CA         -4.2092  -20.2128  -50.6355 C.3       17 UNK         0.1400 
     96 CB         -4.0740  -19.4342  -49.3180 C.3       17 UNK        -0.1800 
     97 C          -5.6580  -20.1431  -51.1552 C.2       17 UNK         0.5000 
     98 O          -6.0232  -19.1600  -51.7999 O.2       17 UNK        -0.5000 
     99 N          -6.4572  -21.1803  -50.8669 N.am      18 UNK        -0.5000 
    100 CA        -7.8116  -21.3390  -51.3934 C.3       18 UNK         0.1400 
    101 CB        -8.6107  -22.2886  -50.4871 C.3       18 UNK        -0.1800 
    102 C         -7.7915  -21.8463  -52.8461 C.2       18 UNK         0.5000 
    103 O         -8.6042  -21.3970  -53.6548 O.2       18 UNK        -0.5000 
    104 N         -6.8617  -22.7635  -53.1495 N.am      19 UNK        -0.5000 
    105 CA        -6.6474  -23.3245  -54.4810 C.3       19 UNK         0.1400 
    106 CB        -5.7536  -24.5710  -54.3745 C.3       19 UNK        -0.1800 
    107 C         -6.0591  -22.2972  -55.4656 C.2       19 UNK         0.5000 
    108 O         -6.6487  -22.0693  -56.5230 O.2       19 UNK        -0.5000 
    109 N         -4.9195  -21.6974  -55.0998 N.am      20 UNK        -0.5000 
    110 CA        -4.1748  -20.7174  -55.8854 C.3       20 UNK         0.1400 
    111 CB        -3.6297  -21.3442  -57.1923 C.3       20 UNK        -0.1800 
    112 C         -3.0752  -20.1204  -54.9910 C.2       20 UNK         0.5000 
    113 O         -3.3791  -19.2737  -54.1490 O.2       20 UNK        -0.5000 
    114 N         -1.8262  -20.5717  -55.1894 N.am      21 UNK        -0.5000 
    115 CA        -0.5708  -20.1846  -54.5289 C.3       21 UNK         0.1400 
    116 CB        -0.5972  -20.5019  -53.0209 C.3       21 UNK        -0.1800 
    117 C         -0.1404  -18.7299  -54.8000 C.2       21 UNK         0.5000 
    118 O          0.9775  -18.5021  -55.2644 O.2       21 UNK        -0.5000 
    119 N         -1.0383  -17.7837  -54.5257 N.am      22 UNK        -0.5000 
    120 CA        -0.9056  -16.3561  -54.8274 C.3       22 UNK         0.1400 
    121 C         -1.3997  -16.0427  -56.2655 C.2       22 UNK         0.5000 
    122 N         -0.8114  -15.0544  -56.9254 N.am      22 UNK        -0.7600 
    123 O         -2.3314  -16.6597  -56.7787 O.2       22 UNK        -0.5000 
    124 C124       -1.6665  -15.5020  -53.7841 C.3       23 UNK        -0.0398 
    125 S125       -0.8738  -15.5702  -52.1430 S.3       23 UNK        -0.2404 
    126 C126       -1.8853  -16.8210  -51.2944 C.3       23 UNK        -0.0205 
    127 H127       -4.7955   -8.2350  -46.3138 H         1 UNK         0.0600 
    128 H128       -4.5970   -9.2240  -44.8645 H         1 UNK         0.0600 
    129 H129       -5.9521   -9.5221  -45.9567 H         1 UNK         0.0600 
    130 H130       -2.9493  -10.7021  -45.0968 H         1 UNK         0.3000 
    131 H131       -2.7379  -12.4783  -47.3534 H         1 UNK         0.0600 
    132 H132       -0.8092  -12.0923  -45.0034 H         1 UNK         0.0800 
    133 H133       -2.2003  -13.1404  -44.9677 H         1 UNK         0.0800 
    134 H134       -1.7348  -15.9033  -45.5012 H         1 UNK         0.0800 
    135 H135       -2.6705  -14.9927  -46.6654 H         1 UNK         0.0800 
    136 H136       -2.4761  -15.4017  -49.0617 H         1 UNK         0.1150 
    137 H137       -0.1233  -18.7215  -50.4120 H         1 UNK         0.1150 
    138 H138        0.0607  -17.4796  -46.3125 H         1 UNK         0.1150 
    139 H139        1.4044  -19.2802  -46.9913 H         1 UNK         0.0800 
    140 H140        1.9723  -19.1318  -48.6314 H         1 UNK         0.0800 
    141 H141       -1.8058  -20.8753  -47.8623 H         1 UNK         0.0800 
    142 H142       -0.8593  -20.4746  -46.4540 H         1 UNK         0.0800 
    143 H143       -0.8769  -23.3121  -47.5692 H         1 UNK         0.0600 
    144 H144        0.4077  -22.1918  -45.3115 H         1 UNK         0.3000 
    145 H145        0.7570  -25.2688  -43.4794 H         1 UNK         0.0600 
    146 H146        2.6104  -25.1218  -45.1240 H         1 UNK         0.0600 
    147 H147        3.0993  -24.4457  -43.5782 H         1 UNK         0.0600 
    148 H148        2.6946  -23.3783  -44.9213 H         1 UNK         0.0600 
    149 H149        1.4083  -22.4944  -42.9773 H         1 UNK         0.3000 
    150 H150       -1.4740  -21.7968  -40.9887 H         1 UNK         0.0600 
    151 H151        1.4774  -22.1990  -40.2556 H         1 UNK         0.0600 
    152 H152        0.1165  -23.0057  -39.4852 H         1 UNK         0.0600 
    153 H153        0.2954  -21.2646  -39.3389 H         1 UNK         0.0600 
    154 H154        0.8343  -20.2471  -41.6585 H         1 UNK         0.3000 
    155 H155       -0.3631  -18.9662  -44.7402 H         1 UNK         0.0600 
    156 H156       -0.1674  -17.5081  -42.0612 H         1 UNK         0.0600 
    157 H157       -1.6252  -17.6211  -43.0408 H         1 UNK         0.0600 
    158 H158       -0.2227  -16.7789  -43.6688 H         1 UNK         0.0600 
    159 H159        1.9080  -18.1563  -43.3212 H         1 UNK         0.3000 
    160 H160        4.1593  -20.5202  -43.7983 H         1 UNK         0.0600 
    161 H161        3.8067  -19.0109  -46.4436 H         1 UNK         0.0600 
    162 H162        3.9381  -20.7577  -46.2721 H         1 UNK         0.0600 
    163 H163        5.3032  -19.7335  -45.8600 H         1 UNK         0.0600 
    164 H164        3.8401  -17.6029  -44.3820 H         1 UNK         0.3000 
    165 H165        4.9709  -16.6766  -41.1981 H         1 UNK         0.0600 
    166 H166        6.8290  -15.4363  -42.2843 H         1 UNK         0.0600 
    167 H167        7.2382  -17.1380  -42.1433 H         1 UNK         0.0600 
    168 H168        6.7368  -16.4866  -43.6990 H         1 UNK         0.0600 
    169 H169        4.6479  -15.1789  -43.6195 H         1 UNK         0.3000 
    170 H170        1.1362  -14.9756  -43.6565 H         1 UNK         0.0600 
    171 H171        1.4375  -12.5507  -43.3568 H         1 UNK         0.0600 
    172 H172        3.0564  -12.7951  -42.6982 H         1 UNK         0.0600 
    173 H173        1.6444  -13.3630  -41.8141 H         1 UNK         0.0600 
    174 H174        2.8467  -13.4335  -45.1476 H         1 UNK         0.3000 
    175 H175        4.3711  -14.9857  -47.3153 H         1 UNK         0.0600 
    176 H176        2.8177  -16.6880  -48.2612 H         1 UNK         0.0600 
    177 H177        1.5218  -15.4975  -48.3130 H         1 UNK         0.0600 
    178 H178        2.9475  -15.2971  -49.3237 H         1 UNK         0.0600 
    179 H179        2.0164  -13.1898  -47.6204 H         1 UNK         0.3000 
    180 H180        3.1670  -10.5480  -46.5066 H         1 UNK         0.0600 
    181 H181        4.5142  -10.4352  -49.2536 H         1 UNK         0.0600 
    182 H182        5.2247   -9.9641  -47.7174 H         1 UNK         0.0600 
    183 H183        3.8848   -9.0419  -48.3749 H         1 UNK         0.0600 
    184 H184        1.2255  -10.4833  -47.5539 H         1 UNK         0.3000 
    185 H185       -0.0376   -9.9782  -49.7978 H         1 UNK         0.0600 
    186 H186        0.3870  -11.2208  -51.9021 H         1 UNK         0.0600 
    187 H187       -0.0950  -12.7310  -51.1380 H         1 UNK         0.0600 
    188 H188       -1.2748  -11.4440  -51.3840 H         1 UNK         0.0600 
    189 H189       -1.2233  -12.5014  -48.9873 H         1 UNK         0.3000 
    190 H190       -2.3107  -22.1252  -44.4931 H         1 UNK         0.3000 
    191 H191       -5.0225  -22.5429  -45.2667 H         1 UNK         0.0600 
    192 H192       -4.4147  -21.1204  -43.3502 H         1 UNK         0.0600 
    193 H193       -5.4460  -22.4303  -42.7982 H         1 UNK         0.0600 
    194 H194       -3.7128  -22.4941  -42.4975 H         1 UNK         0.0600 
    195 H195       -2.6658  -24.6732  -43.5677 H         1 UNK         0.3000 
    196 H196       -4.4356  -26.8384  -43.1103 H         1 UNK         0.0600 
    197 H197       -2.3231  -28.1179  -42.6894 H         1 UNK         0.0600 
    198 H198       -2.3169  -26.5607  -41.8765 H         1 UNK         0.0600 
    199 H199       -1.3816  -26.7872  -43.3530 H         1 UNK         0.0600 
    200 H200       -2.1707  -26.2061  -45.8224 H         1 UNK         0.3000 
    201 H201       -2.8287  -28.6360  -47.2576 H         1 UNK         0.0600 
    202 H202       -1.4015  -27.5882  -49.0205 H         1 UNK         0.0600 
    203 H203       -0.6199  -27.5048  -47.4490 H         1 UNK         0.0600 
    204 H204       -1.3881  -26.0716  -48.1273 H         1 UNK         0.0600 
    205 H205       -4.3580  -25.5681  -46.9855 H         1 UNK         0.3000 
    206 H206       -5.9585  -24.4290  -47.9699 H         1 UNK         0.0600 
    207 H207       -7.3093  -26.5473  -47.8996 H         1 UNK         0.0600 
    208 H208       -7.7450  -25.5154  -49.2519 H         1 UNK         0.0600 
    209 H209       -6.7594  -26.9424  -49.5284 H         1 UNK         0.0600 
    210 H210       -3.3103  -24.4585  -49.0082 H         1 UNK         0.3000 
    211 H211       -3.2184  -24.5254  -51.8734 H         1 UNK         0.0600 
    212 H212       -1.2852  -23.2085  -49.8911 H         1 UNK         0.0600 
    213 H213       -0.9436  -23.6111  -51.5666 H         1 UNK         0.0600 
    214 H214       -1.2211  -24.8955  -50.4039 H         1 UNK         0.0600 
    215 H215       -3.6160  -21.9012  -49.4882 H         1 UNK         0.3000 
    216 H216       -3.5742  -19.7314  -51.3818 H         1 UNK         0.0600 
    217 H217       -4.4597  -18.4190  -49.4215 H         1 UNK         0.0600 
    218 H218       -3.0311  -19.3450  -49.0194 H         1 UNK         0.0600 
    219 H219       -4.6209  -19.9135  -48.5053 H         1 UNK         0.0600 
    220 H220       -6.0743  -21.9569  -50.3493 H         1 UNK         0.3000 
    221 H221       -8.3113  -20.3678  -51.3824 H         1 UNK         0.0600 
    222 H222       -8.1836  -23.2910  -50.4688 H         1 UNK         0.0600 
    223 H223       -8.6457  -21.9198  -49.4619 H         1 UNK         0.0600 
    224 H224       -9.6404  -22.3802  -50.8347 H         1 UNK         0.0600 
    225 H225       -6.2714  -23.1225  -52.4081 H         1 UNK         0.3000 
    226 H226       -7.6162  -23.6431  -54.8718 H         1 UNK         0.0600 
    227 H227       -6.2128  -25.3304  -53.7412 H         1 UNK         0.0600 
    228 H228       -5.5904  -25.0192  -55.3552 H         1 UNK         0.0600 
    229 H229       -4.7758  -24.3358  -53.9537 H         1 UNK         0.0600 
    230 H230       -4.5156  -21.9095  -54.1868 H         1 UNK         0.3000 
    231 H231       -4.8495  -19.9002  -56.1478 H         1 UNK         0.0600 
    232 H232       -3.0681  -22.2599  -57.0035 H         1 UNK         0.0600 
    233 H233       -2.9759  -20.6487  -57.7207 H         1 UNK         0.0600 
    234 H234       -4.4363  -21.5926  -57.8814 H         1 UNK         0.0600 
    235 H235       -1.7123  -21.2570  -55.9227 H         1 UNK         0.3000 
    236 H236        0.1988  -20.8183  -54.9727 H         1 UNK         0.0600 
    237 H237       -0.7501  -21.5669  -52.8526 H         1 UNK         0.0600 
    238 H238        0.3464  -20.2303  -52.5461 H         1 UNK         0.0600 
    239 H239       -1.3903  -19.9687  -52.4995 H         1 UNK         0.0600 
    240 H240       -1.9603  -18.0976  -54.2337 H         1 UNK         0.3000 
    241 H241        0.1518  -16.0873  -54.7779 H         1 UNK         0.0600 
    242 H242       -1.1296  -14.8303  -57.8557 H         1 UNK         0.3800 
    243 H243       -0.0492  -14.5287  -56.5252 H         1 UNK         0.3800 
    244 H244       -2.7112  -15.8099  -53.7111 H         1 UNK         0.0800 
    245 H245       -1.6801  -14.4530  -54.0857 H         1 UNK         0.0800 
    246 H246       -2.9261  -16.4951  -51.2638 H         1 UNK         0.0800 
    247 H247       -1.8694  -17.7545  -51.8559 H         1 UNK         0.0800 
@<TRIPOS>BOND
     1    1    2 1    
     2    1  127 1    
     3    1  128 1    
     4    1  129 1    
     5    2    3 2    
     6    2    4 am   BACKBONE|DICT|INTERRES
     7    4    5 1    
     8    4  130 1    
     9    5    6 1    
    10    5   65 1    
    11    5  131 1    
    12    6    7 1    
    13    6  132 1    
    14    6  133 1    
    15    7    8 1    
    16    8    9 1    
    17    8  134 1    
    18    8  135 1    
    19    9   10 ar   
    20    9   14 ar   
    21   10   11 ar   
    22   10  136 1    
    23   11   12 ar   
    24   11  126 1    
    25   12   13 ar   
    26   12  137 1    
    27   13   14 ar   
    28   13   15 1    
    29   14  138 1    
    30   15   16 1    
    31   15  139 1    
    32   15  140 1    
    33   16   17 1    
    34   17   18 1    
    35   17  141 1    
    36   17  142 1    
    37   18   19 1    
    38   18   67 1    
    39   18  143 1    
    40   19   20 am   BACKBONE|DICT|INTERRES
    41   19  144 1    
    42   20   21 2    
    43   20   22 1    
    44   22   23 1    
    45   22   24 1    
    46   22  145 1    
    47   23  146 1    
    48   23  147 1    
    49   23  148 1    
    50   24   25 am   BACKBONE|DICT|INTERRES
    51   24  149 1    
    52   25   26 2    
    53   25   27 1    
    54   27   28 1    
    55   27   29 1    
    56   27  150 1    
    57   28  151 1    
    58   28  152 1    
    59   28  153 1    
    60   29   30 am   BACKBONE|DICT|INTERRES
    61   29  154 1    
    62   30   31 2    
    63   30   32 1    
    64   32   33 1    
    65   32   34 1    
    66   32  155 1    
    67   33  156 1    
    68   33  157 1    
    69   33  158 1    
    70   34   35 am   BACKBONE|DICT|INTERRES
    71   34  159 1    
    72   35   36 2    
    73   35   37 1    
    74   37   38 1    
    75   37   39 1    
    76   37  160 1    
    77   38  161 1    
    78   38  162 1    
    79   38  163 1    
    80   39   40 am   BACKBONE|DICT|INTERRES
    81   39  164 1    
    82   40   41 2    
    83   40   42 1    
    84   42   43 1    
    85   42   44 1    
    86   42  165 1    
    87   43  166 1    
    88   43  167 1    
    89   43  168 1    
    90   44   45 am   BACKBONE|DICT|INTERRES
    91   44  169 1    
    92   45   46 2    
    93   45   47 1    
    94   47   48 1    
    95   47   49 1    
    96   47  170 1    
    97   48  171 1    
    98   48  172 1    
    99   48  173 1    
   100   49   50 am   BACKBONE|DICT|INTERRES
   101   49  174 1    
   102   50   51 2    
   103   50   52 1    
   104   52   53 1    
   105   52   54 1    
   106   52  175 1    
   107   53  176 1    
   108   53  177 1    
   109   53  178 1    
   110   54   55 am   BACKBONE|DICT|INTERRES
   111   54  179 1    
   112   55   56 2    
   113   55   57 1    
   114   57   58 1    
   115   57   59 1    
   116   57  180 1    
   117   58  181 1    
   118   58  182 1    
   119   58  183 1    
   120   59   60 am   BACKBONE|DICT|INTERRES
   121   59  184 1    
   122   60   61 2    
   123   60   62 1    
   124   62   63 1    
   125   62   64 1    
   126   62  185 1    
   127   63  186 1    
   128   63  187 1    
   129   63  188 1    
   130   64   65 am   BACKBONE|DICT|INTERRES
   131   64  189 1    
   132   65   66 2    
   133   67   68 2    
   134   67   69 am   BACKBONE|DICT|INTERRES
   135   69   70 1    
   136   69  190 1    
   137   70   71 1    
   138   70   72 1    
   139   70  191 1    
   140   71  192 1    
   141   71  193 1    
   142   71  194 1    
   143   72   73 2    
   144   72   74 am   BACKBONE|DICT|INTERRES
   145   74   75 1    
   146   74  195 1    
   147   75   76 1    
   148   75   77 1    
   149   75  196 1    
   150   76  197 1    
   151   76  198 1    
   152   76  199 1    
   153   77   78 2    
   154   77   79 am   BACKBONE|DICT|INTERRES
   155   79   80 1    
   156   79  200 1    
   157   80   81 1    
   158   80   82 1    
   159   80  201 1    
   160   81  202 1    
   161   81  203 1    
   162   81  204 1    
   163   82   83 2    
   164   82   84 am   BACKBONE|DICT|INTERRES
   165   84   85 1    
   166   84  205 1    
   167   85   86 1    
   168   85   87 1    
   169   85  206 1    
   170   86  207 1    
   171   86  208 1    
   172   86  209 1    
   173   87   88 2    
   174   87   89 am   BACKBONE|DICT|INTERRES
   175   89   90 1    
   176   89  210 1    
   177   90   91 1    
   178   90   92 1    
   179   90  211 1    
   180   91  212 1    
   181   91  213 1    
   182   91  214 1    
   183   92   93 2    
   184   92   94 am   BACKBONE|DICT|INTERRES
   185   94   95 1    
   186   94  215 1    
   187   95   96 1    
   188   95   97 1    
   189   95  216 1    
   190   96  217 1    
   191   96  218 1    
   192   96  219 1    
   193   97   98 2    
   194   97   99 am   BACKBONE|DICT|INTERRES
   195   99  100 1    
   196   99  220 1    
   197  100  101 1    
   198  100  102 1    
   199  100  221 1    
   200  101  222 1    
   201  101  223 1    
   202  101  224 1    
   203  102  103 2    
   204  102  104 am   BACKBONE|DICT|INTERRES
   205  104  105 1    
   206  104  225 1    
   207  105  106 1    
   208  105  107 1    
   209  105  226 1    
   210  106  227 1    
   211  106  228 1    
   212  106  229 1    
   213  107  108 2    
   214  107  109 am   BACKBONE|DICT|INTERRES
   215  109  110 1    
   216  109  230 1    
   217  110  111 1    
   218  110  112 1    
   219  110  231 1    
   220  111  232 1    
   221  111  233 1    
   222  111  234 1    
   223  112  113 2    
   224  112  114 am   BACKBONE|DICT|INTERRES
   225  114  115 1    
   226  114  235 1    
   227  115  116 1    
   228  115  117 1    
   229  115  236 1    
   230  116  237 1    
   231  116  238 1    
   232  116  239 1    
   233  117  118 2    
   234  117  119 am   BACKBONE|DICT|INTERRES
   235  119  120 1    
   236  119  240 1    
   237  120  121 1    
   238  120  124 1    
   239  120  241 1    
   240  121  122 am   BACKBONE|DICT|INTERRES
   241  121  123 2    
   242  122  242 1    
   243  122  243 1    
   244  124  125 1    
   245  124  244 1    
   246  124  245 1    
   247  125  126 1    
   248  126  246 1    
   249  126  247 1    
@<TRIPOS>SUBSTRUCTURE
     1 UNK         1 GROUP             0       ****    0 ROOT    
