@<TRIPOS>MOLECULE
3R540
247   249    1
SMALL
USER_CHARGES


@<TRIPOS>ATOM
      1 CA          4.8775  -12.9789  -47.2770 C.3       0 UNK        -0.1800 
      2 C           3.6042  -13.4408  -46.5852 C.2       0 UNK         0.5000 
      3 O           3.4849  -13.3134  -45.3682 O.2       0 UNK        -0.5000 
      4 N           2.6401  -13.9613  -47.3552 N.am      1 UNK        -0.5000 
      5 CA          1.3582  -14.5010  -46.8752 C.3       1 UNK         0.1400 
      6 C6          0.6565  -15.3835  -47.9389 C.3       23 UNK        -0.0398 
      7 S7          0.5196  -14.6290  -49.5948 S.3       23 UNK        -0.2404 
      8 C8          1.5055  -15.7944  -50.5986 C.3       23 UNK        -0.0205 
      9 C9          0.8111  -17.1386  -50.7907 C.ar      23 UNK        -0.0193 
     10 C10        -0.3981  -17.2005  -51.4861 C.ar      23 UNK        -0.1150 
     11 C11        -1.0502  -18.4202  -51.6844 C.ar      23 UNK        -0.0193 
     12 C12        -0.4669  -19.5949  -51.1983 C.ar      23 UNK        -0.1150 
     13 C13         0.7548  -19.5570  -50.5152 C.ar      23 UNK        -0.0193 
     14 C14         1.3854  -18.3219  -50.3121 C.ar      23 UNK        -0.1150 
     15 C15         1.4098  -20.8603  -50.0595 C.3       23 UNK        -0.0205 
     16 S16         1.9540  -20.8273  -48.3169 S.3       23 UNK        -0.2404 
     17 C17         1.2750  -22.3786  -47.6322 C.3       23 UNK        -0.0398 
     18 CA         -0.0982  -22.2772  -46.9144 C.3       11 UNK         0.1400 
     19 N          -0.0235  -21.6931  -45.5673 N.am      11 UNK        -0.5000 
     20 C          -1.0032  -21.8225  -44.6562 C.2       10 UNK         0.5000 
     21 O          -2.0331  -22.4656  -44.8575 O.2       10 UNK        -0.5000 
     22 CA         -0.8446  -21.0789  -43.3178 C.3       10 UNK         0.1400 
     23 CB          0.0515  -21.8582  -42.3433 C.3       10 UNK        -0.1800 
     24 N          -0.3408  -19.7183  -43.4935 N.am      10 UNK        -0.5000 
     25 C          -1.0361  -18.7296  -44.0741 C.2       9 UNK         0.5000 
     26 O          -2.1897  -18.8558  -44.4818 O.2       9 UNK        -0.5000 
     27 CA         -0.3082  -17.3904  -44.2797 C.3       9 UNK         0.1400 
     28 CB         -0.5173  -16.4578  -43.0828 C.3       9 UNK        -0.1800 
     29 N           1.1213  -17.5781  -44.5306 N.am      9 UNK        -0.5000 
     30 C           1.5894  -18.0868  -45.6793 C.2       8 UNK         0.5000 
     31 O           0.8558  -18.3738  -46.6226 O.2       8 UNK        -0.5000 
     32 CA          3.1053  -18.3527  -45.7806 C.3       8 UNK         0.1400 
     33 CB          3.8597  -17.1009  -46.2469 C.3       8 UNK        -0.1800 
     34 N           3.6824  -18.8156  -44.5226 N.am      8 UNK        -0.5000 
     35 C           3.3537  -19.9579  -43.9042 C.2       7 UNK         0.5000 
     36 O           2.5932  -20.7969  -44.3870 O.2       7 UNK        -0.5000 
     37 CA          3.9289  -20.1683  -42.4879 C.3       7 UNK         0.1400 
     38 CB          5.1475  -21.1014  -42.5356 C.3       7 UNK        -0.1800 
     39 N           4.3055  -18.9147  -41.8212 N.am      7 UNK        -0.5000 
     40 C           3.4480  -17.9383  -41.4925 C.2       6 UNK         0.5000 
     41 O           2.2324  -18.0095  -41.6851 O.2       6 UNK        -0.5000 
     42 CA          4.0747  -16.6400  -40.9577 C.3       6 UNK         0.1400 
     43 CB          4.5372  -15.7573  -42.1295 C.3       6 UNK        -0.1800 
     44 N           3.1357  -15.8821  -40.1314 N.am      6 UNK        -0.5000 
     45 C           2.8824  -16.1552  -38.8434 C.2       5 UNK         0.5000 
     46 O           3.4141  -17.0855  -38.2346 O.2       5 UNK        -0.5000 
     47 CA          1.9123  -15.2292  -38.0800 C.3       5 UNK         0.1400 
     48 CB          2.6919  -14.3165  -37.1196 C.3       5 UNK        -0.1800 
     49 N           1.0928  -14.3891  -38.9521 N.am      5 UNK        -0.5000 
     50 C          -0.0256  -14.7909  -39.5684 C.2       4 UNK         0.5000 
     51 O          -0.5156  -15.9119  -39.4301 O.2       4 UNK        -0.5000 
     52 CA         -0.7208  -13.7690  -40.4935 C.3       4 UNK         0.1400 
     53 CB         -1.8883  -13.0937  -39.7577 C.3       4 UNK        -0.1800 
     54 N           0.1508  -12.7266  -41.0509 N.am      4 UNK        -0.5000 
     55 C           1.2448  -12.9369  -41.7943 C.2       3 UNK         0.5000 
     56 O           1.7110  -14.0523  -42.0241 O.2       3 UNK        -0.5000 
     57 CA          1.9198  -11.6934  -42.3919 C.3       3 UNK         0.1400 
     58 CB          3.4524  -11.7753  -42.2901 C.3       3 UNK        -0.1800 
     59 N           1.5303  -11.5666  -43.7935 N.am      3 UNK        -0.5000 
     60 C           0.3873  -11.0019  -44.2128 C.2       2 UNK         0.5000 
     61 O          -0.4152  -10.4562  -43.4539 O.2       2 UNK        -0.5000 
     62 CA          0.0763  -11.0468  -45.7243 C.3       2 UNK         0.1400 
     63 CB          0.4948   -9.7313  -46.3983 C.3       2 UNK        -0.1800 
     64 N           0.7297  -12.1593  -46.4125 N.am      2 UNK        -0.5000 
     65 C           0.4076  -13.4507  -46.2570 C.2       1 UNK         0.5000 
     66 O          -0.5751  -13.8301  -45.6194 O.2       1 UNK        -0.5000 
     67 C          -1.1992  -21.6162  -47.7731 C.2       11 UNK         0.5000 
     68 O          -1.8722  -22.3134  -48.5348 O.2       11 UNK        -0.5000 
     69 N          -1.3979  -20.3009  -47.5997 N.am      12 UNK        -0.5000 
     70 CA         -2.4919  -19.5497  -48.2087 C.3       12 UNK         0.1400 
     71 CB         -2.2653  -18.0433  -48.0244 C.3       12 UNK        -0.1800 
     72 C          -3.8613  -19.9946  -47.6692 C.2       12 UNK         0.5000 
     73 O          -4.7454  -20.2979  -48.4662 O.2       12 UNK        -0.5000 
     74 N          -4.0013  -20.0994  -46.3394 N.am      13 UNK        -0.5000 
     75 CA         -5.2136  -20.5813  -45.6668 C.3       13 UNK         0.1400 
     76 CB         -5.0456  -20.4485  -44.1459 C.3       13 UNK        -0.1800 
     77 C          -5.5983  -22.0261  -46.0454 C.2       13 UNK         0.5000 
     78 O          -6.7865  -22.3319  -46.1509 O.2       13 UNK        -0.5000 
     79 N          -4.5890  -22.8758  -46.2747 N.am      14 UNK        -0.5000 
     80 CA         -4.7399  -24.2436  -46.7723 C.3       14 UNK         0.1400 
     81 CB         -3.4500  -25.0207  -46.4633 C.3       14 UNK        -0.1800 
     82 C          -5.0598  -24.3256  -48.2804 C.2       14 UNK         0.5000 
     83 O          -5.4262  -25.4045  -48.7481 O.2       14 UNK        -0.5000 
     84 N          -4.8911  -23.2127  -49.0132 N.am      15 UNK        -0.5000 
     85 CA         -4.9816  -23.0775  -50.4717 C.3       15 UNK         0.1400 
     86 CB         -6.4336  -23.2600  -50.9561 C.3       15 UNK        -0.1800 
     87 C          -3.9749  -23.9926  -51.1996 C.2       15 UNK         0.5000 
     88 O          -4.3150  -24.6377  -52.1933 O.2       15 UNK        -0.5000 
     89 N          -2.7416  -24.0417  -50.6736 N.am      16 UNK        -0.5000 
     90 CA         -1.6726  -24.9503  -51.0986 C.3       16 UNK         0.1400 
     91 CB         -0.5289  -24.8840  -50.0792 C.3       16 UNK        -0.1800 
     92 C          -1.1383  -24.6941  -52.5209 C.2       16 UNK         0.5000 
     93 O          -0.4510  -25.5565  -53.0700 O.2       16 UNK        -0.5000 
     94 N          -1.4856  -23.5443  -53.1140 N.am      17 UNK        -0.5000 
     95 CA         -1.2257  -23.1709  -54.5056 C.3       17 UNK         0.1400 
     96 CB         -1.3786  -21.6447  -54.6318 C.3       17 UNK        -0.1800 
     97 C          -2.1367  -23.9433  -55.4888 C.2       17 UNK         0.5000 
     98 O          -2.8738  -23.3327  -56.2649 O.2       17 UNK        -0.5000 
     99 N          -2.1044  -25.2815  -55.3975 N.am      18 UNK        -0.5000 
    100 CA        -2.8446  -26.2761  -56.1868 C.3       18 UNK         0.1400 
    101 CB        -2.3095  -26.2932  -57.6337 C.3       18 UNK        -0.1800 
    102 C         -4.3826  -26.1212  -56.1425 C.2       18 UNK         0.5000 
    103 O         -5.0654  -26.6032  -57.0477 O.2       18 UNK        -0.5000 
    104 N         -4.8970  -25.4157  -55.1218 N.am      19 UNK        -0.5000 
    105 CA        -6.2722  -24.9203  -54.9791 C.3       19 UNK         0.1400 
    106 CB        -7.2636  -26.0874  -54.7953 C.3       19 UNK        -0.1800 
    107 C         -6.7066  -23.9404  -56.0965 C.2       19 UNK         0.5000 
    108 O         -7.9006  -23.6707  -56.2371 O.2       19 UNK        -0.5000 
    109 N         -5.7423  -23.4141  -56.8650 N.am      20 UNK        -0.5000 
    110 CA        -5.9572  -22.4833  -57.9719 C.3       20 UNK         0.1400 
    111 CB        -4.8908  -22.7419  -59.0479 C.3       20 UNK        -0.1800 
    112 C         -5.9113  -21.0174  -57.5083 C.2       20 UNK         0.5000 
    113 O         -6.4207  -20.1457  -58.2143 O.2       20 UNK        -0.5000 
    114 N         -5.3171  -20.7703  -56.3359 N.am      21 UNK        -0.5000 
    115 CA        -5.2506  -19.4752  -55.6757 C.3       21 UNK         0.1400 
    116 CB        -3.9093  -18.7969  -55.9987 C.3       21 UNK        -0.1800 
    117 C         -5.4204  -19.6829  -54.1661 C.2       21 UNK         0.5000 
    118 O         -5.0591  -20.7411  -53.6438 O.2       21 UNK        -0.5000 
    119 N         -5.9606  -18.6548  -53.5041 N.am      22 UNK        -0.5000 
    120 CA        -6.2075  -18.5669  -52.0528 C.3       22 UNK         0.1400 
    121 C         -7.3349  -19.4974  -51.5068 C.2       22 UNK         0.5000 
    122 N         -8.0766  -20.2126  -52.3436 N.am      22 UNK        -0.7600 
    123 O         -7.5821  -19.5328  -50.3055 O.2       22 UNK        -0.5000 
    124 C124       -4.9120  -18.6464  -51.1975 C.3       23 UNK        -0.0398 
    125 S125       -3.6488  -17.4250  -51.6929 S.3       23 UNK        -0.2404 
    126 C126       -2.3584  -18.4608  -52.4633 C.3       23 UNK        -0.0205 
    127 H127        5.0394  -11.9167  -47.0942 H         1 UNK         0.0600 
    128 H128        5.7342  -13.5280  -46.8865 H         1 UNK         0.0600 
    129 H129        4.8337  -13.1373  -48.3548 H         1 UNK         0.0600 
    130 H130        2.7731  -14.0047  -48.3557 H         1 UNK         0.3000 
    131 H131        1.6004  -15.1575  -46.0386 H         1 UNK         0.0600 
    132 H132       -0.3369  -15.6886  -47.6062 H         1 UNK         0.0800 
    133 H133        1.2167  -16.3101  -48.0446 H         1 UNK         0.0800 
    134 H134        2.4892  -15.9244  -50.1447 H         1 UNK         0.0800 
    135 H135        1.6795  -15.3490  -51.5790 H         1 UNK         0.0800 
    136 H136       -0.8385  -16.2908  -51.8698 H         1 UNK         0.1150 
    137 H137       -0.9576  -20.5433  -51.3654 H         1 UNK         0.1150 
    138 H138        2.3307  -18.2864  -49.7894 H         1 UNK         0.1150 
    139 H139        0.7242  -21.6925  -50.2161 H         1 UNK         0.0800 
    140 H140        2.2759  -21.0568  -50.6923 H         1 UNK         0.0800 
    141 H141        1.2293  -23.1210  -48.4269 H         1 UNK         0.0800 
    142 H142        2.0121  -22.7723  -46.9311 H         1 UNK         0.0800 
    143 H143       -0.4234  -23.3099  -46.7695 H         1 UNK         0.0600 
    144 H144        0.8176  -21.1776  -45.3280 H         1 UNK         0.3000 
    145 H145       -1.8349  -21.0055  -42.8634 H         1 UNK         0.0600 
    146 H146        0.1590  -21.3298  -41.3958 H         1 UNK         0.0600 
    147 H147       -0.3794  -22.8355  -42.1231 H         1 UNK         0.0600 
    148 H148        1.0480  -22.0299  -42.7474 H         1 UNK         0.0600 
    149 H149        0.6074  -19.5346  -43.1987 H         1 UNK         0.3000 
    150 H150       -0.7506  -16.9045  -45.1522 H         1 UNK         0.0600 
    151 H151       -1.5796  -16.3108  -42.8850 H         1 UNK         0.0600 
    152 H152       -0.0874  -15.4772  -43.2820 H         1 UNK         0.0600 
    153 H153       -0.0650  -16.8496  -42.1720 H         1 UNK         0.0600 
    154 H154        1.7466  -17.4177  -43.7510 H         1 UNK         0.3000 
    155 H155        3.2657  -19.1342  -46.5219 H         1 UNK         0.0600 
    156 H156        4.9222  -17.3068  -46.3774 H         1 UNK         0.0600 
    157 H157        3.7634  -16.2840  -45.5311 H         1 UNK         0.0600 
    158 H158        3.4811  -16.7532  -47.2082 H         1 UNK         0.0600 
    159 H159        4.3266  -18.1922  -44.0609 H         1 UNK         0.3000 
    160 H160        3.1521  -20.6476  -41.8885 H         1 UNK         0.0600 
    161 H161        5.9673  -20.6646  -43.1073 H         1 UNK         0.0600 
    162 H162        4.8919  -22.0534  -43.0030 H         1 UNK         0.0600 
    163 H163        5.5155  -21.3220  -41.5334 H         1 UNK         0.0600 
    164 H164        5.2909  -18.7826  -41.6420 H         1 UNK         0.3000 
    165 H165        4.9489  -16.8941  -40.3543 H         1 UNK         0.0600 
    166 H166        3.7231  -15.5414  -42.8227 H         1 UNK         0.0600 
    167 H167        4.9340  -14.8058  -41.7753 H         1 UNK         0.0600 
    168 H168        5.3286  -16.2442  -42.7000 H         1 UNK         0.0600 
    169 H169        2.5999  -15.1637  -40.6078 H         1 UNK         0.3000 
    170 H170        1.2561  -15.8658  -37.4825 H         1 UNK         0.0600 
    171 H171        3.2919  -14.9024  -36.4221 H         1 UNK         0.0600 
    172 H172        3.3694  -13.6519  -37.6572 H         1 UNK         0.0600 
    173 H173        2.0168  -13.7002  -36.5255 H         1 UNK         0.0600 
    174 H174        1.4224  -13.4506  -39.1223 H         1 UNK         0.3000 
    175 H175       -1.1344  -14.3263  -41.3345 H         1 UNK         0.0600 
    176 H176       -2.4595  -12.4511  -40.4281 H         1 UNK         0.0600 
    177 H177       -2.5798  -13.8354  -39.3552 H         1 UNK         0.0600 
    178 H178       -1.5383  -12.4844  -38.9235 H         1 UNK         0.0600 
    179 H179       -0.1713  -11.7758  -40.9371 H         1 UNK         0.3000 
    180 H180        1.5984  -10.8086  -41.8382 H         1 UNK         0.0600 
    181 H181        3.9225  -10.8839  -42.7054 H         1 UNK         0.0600 
    182 H182        3.7689  -11.8573  -41.2497 H         1 UNK         0.0600 
    183 H183        3.8518  -12.6400  -42.8208 H         1 UNK         0.0600 
    184 H184        2.1176  -12.0575  -44.4598 H         1 UNK         0.3000 
    185 H185       -1.0040  -11.1607  -45.8364 H         1 UNK         0.0600 
    186 H186        0.2192   -9.7228  -47.4530 H         1 UNK         0.0600 
    187 H187        0.0035   -8.8782  -45.9284 H         1 UNK         0.0600 
    188 H188        1.5712   -9.5687  -46.3300 H         1 UNK         0.0600 
    189 H189        1.5514  -11.9390  -46.9555 H         1 UNK         0.3000 
    190 H190       -0.7526  -19.7803  -47.0165 H         1 UNK         0.3000 
    191 H191       -2.4844  -19.7566  -49.2800 H         1 UNK         0.0600 
    192 H192       -3.0655  -17.4682  -48.4912 H         1 UNK         0.0600 
    193 H193       -1.3300  -17.7351  -48.4919 H         1 UNK         0.0600 
    194 H194       -2.2249  -17.7621  -46.9728 H         1 UNK         0.0600 
    195 H195       -3.2391  -19.7999  -45.7362 H         1 UNK         0.3000 
    196 H196       -6.0369  -19.9336  -45.9749 H         1 UNK         0.0600 
    197 H197       -5.9416  -20.7837  -43.6221 H         1 UNK         0.0600 
    198 H198       -4.8695  -19.4121  -43.8576 H         1 UNK         0.0600 
    199 H199       -4.2088  -21.0447  -43.7813 H         1 UNK         0.0600 
    200 H200       -3.6419  -22.5652  -46.0826 H         1 UNK         0.3000 
    201 H201       -5.5626  -24.7200  -46.2355 H         1 UNK         0.0600 
    202 H202       -3.2339  -25.0191  -45.3948 H         1 UNK         0.0600 
    203 H203       -2.5910  -24.5913  -46.9796 H         1 UNK         0.0600 
    204 H204       -3.5335  -26.0623  -46.7759 H         1 UNK         0.0600 
    205 H205       -4.6138  -22.3663  -48.5289 H         1 UNK         0.3000 
    206 H206       -4.6861  -22.0535  -50.7027 H         1 UNK         0.0600 
    207 H207       -7.1153  -22.6142  -50.4025 H         1 UNK         0.0600 
    208 H208       -6.5246  -22.9952  -52.0100 H         1 UNK         0.0600 
    209 H209       -6.7759  -24.2889  -50.8426 H         1 UNK         0.0600 
    210 H210       -2.5351  -23.4563  -49.8663 H         1 UNK         0.3000 
    211 H211       -2.0803  -25.9631  -51.0864 H         1 UNK         0.0600 
    212 H212       -0.0591  -23.9028  -50.0929 H         1 UNK         0.0600 
    213 H213        0.2425  -25.6217  -50.3035 H         1 UNK         0.0600 
    214 H214       -0.8834  -25.0787  -49.0667 H         1 UNK         0.0600 
    215 H215       -2.0858  -22.9232  -52.5931 H         1 UNK         0.3000 
    216 H216       -0.1934  -23.4274  -54.7514 H         1 UNK         0.0600 
    217 H217       -1.1761  -21.3114  -55.6504 H         1 UNK         0.0600 
    218 H218       -0.6824  -21.1214  -53.9762 H         1 UNK         0.0600 
    219 H219       -2.3883  -21.3240  -54.3738 H         1 UNK         0.0600 
    220 H220       -1.4853  -25.6637  -54.6874 H         1 UNK         0.3000 
    221 H221       -2.6259  -27.2459  -55.7381 H         1 UNK         0.0600 
    222 H222       -2.5516  -25.3707  -58.1630 H         1 UNK         0.0600 
    223 H223       -1.2266  -26.4161  -57.6524 H         1 UNK         0.0600 
    224 H224       -2.7361  -27.1195  -58.2034 H         1 UNK         0.0600 
    225 H225       -4.2627  -25.0970  -54.3991 H         1 UNK         0.3000 
    226 H226       -6.2832  -24.3362  -54.0588 H         1 UNK         0.0600 
    227 H227       -8.2550  -25.7202  -54.5280 H         1 UNK         0.0600 
    228 H228       -7.3699  -26.6783  -55.7052 H         1 UNK         0.0600 
    229 H229       -6.9410  -26.7544  -53.9959 H         1 UNK         0.0600 
    230 H230       -4.7731  -23.6410  -56.6611 H         1 UNK         0.3000 
    231 H231       -6.9383  -22.6632  -58.4163 H         1 UNK         0.0600 
    232 H232       -5.0497  -22.1021  -59.9168 H         1 UNK         0.0600 
    233 H233       -4.9226  -23.7753  -59.3939 H         1 UNK         0.0600 
    234 H234       -3.8850  -22.5448  -58.6751 H         1 UNK         0.0600 
    235 H235       -4.9563  -21.5443  -55.7930 H         1 UNK         0.3000 
    236 H236       -6.0670  -18.8393  -56.0253 H         1 UNK         0.0600 
    237 H237       -3.0628  -19.3995  -55.6703 H         1 UNK         0.0600 
    238 H238       -3.8024  -18.6286  -57.0704 H         1 UNK         0.0600 
    239 H239       -3.8328  -17.8260  -55.5078 H         1 UNK         0.0600 
    240 H240       -6.2277  -17.8336  -54.0278 H         1 UNK         0.3000 
    241 H241       -6.6098  -17.5634  -51.9093 H         1 UNK         0.0600 
    242 H242       -8.8174  -20.7889  -51.9776 H         1 UNK         0.3800 
    243 H243       -7.9018  -20.1873  -53.3344 H         1 UNK         0.3800 
    244 H244       -4.4977  -19.6545  -51.2057 H         1 UNK         0.0800 
    245 H245       -5.1524  -18.4274  -50.1571 H         1 UNK         0.0800 
    246 H246       -2.7072  -19.4867  -52.5834 H         1 UNK         0.0800 
    247 H247       -2.1720  -18.0880  -53.4709 H         1 UNK         0.0800 
@<TRIPOS>BOND
     1    1    2 1    
     2    1  127 1    
     3    1  128 1    
     4    1  129 1    
     5    2    3 2    
     6    2    4 am   BACKBONE|DICT|INTERRES
     7    4    5 1    
     8    4  130 1    
     9    5    6 1    
    10    5   65 1    
    11    5  131 1    
    12    6    7 1    
    13    6  132 1    
    14    6  133 1    
    15    7    8 1    
    16    8    9 1    
    17    8  134 1    
    18    8  135 1    
    19    9   10 ar   
    20    9   14 ar   
    21   10   11 ar   
    22   10  136 1    
    23   11   12 ar   
    24   11  126 1    
    25   12   13 ar   
    26   12  137 1    
    27   13   14 ar   
    28   13   15 1    
    29   14  138 1    
    30   15   16 1    
    31   15  139 1    
    32   15  140 1    
    33   16   17 1    
    34   17   18 1    
    35   17  141 1    
    36   17  142 1    
    37   18   19 1    
    38   18   67 1    
    39   18  143 1    
    40   19   20 am   BACKBONE|DICT|INTERRES
    41   19  144 1    
    42   20   21 2    
    43   20   22 1    
    44   22   23 1    
    45   22   24 1    
    46   22  145 1    
    47   23  146 1    
    48   23  147 1    
    49   23  148 1    
    50   24   25 am   BACKBONE|DICT|INTERRES
    51   24  149 1    
    52   25   26 2    
    53   25   27 1    
    54   27   28 1    
    55   27   29 1    
    56   27  150 1    
    57   28  151 1    
    58   28  152 1    
    59   28  153 1    
    60   29   30 am   BACKBONE|DICT|INTERRES
    61   29  154 1    
    62   30   31 2    
    63   30   32 1    
    64   32   33 1    
    65   32   34 1    
    66   32  155 1    
    67   33  156 1    
    68   33  157 1    
    69   33  158 1    
    70   34   35 am   BACKBONE|DICT|INTERRES
    71   34  159 1    
    72   35   36 2    
    73   35   37 1    
    74   37   38 1    
    75   37   39 1    
    76   37  160 1    
    77   38  161 1    
    78   38  162 1    
    79   38  163 1    
    80   39   40 am   BACKBONE|DICT|INTERRES
    81   39  164 1    
    82   40   41 2    
    83   40   42 1    
    84   42   43 1    
    85   42   44 1    
    86   42  165 1    
    87   43  166 1    
    88   43  167 1    
    89   43  168 1    
    90   44   45 am   BACKBONE|DICT|INTERRES
    91   44  169 1    
    92   45   46 2    
    93   45   47 1    
    94   47   48 1    
    95   47   49 1    
    96   47  170 1    
    97   48  171 1    
    98   48  172 1    
    99   48  173 1    
   100   49   50 am   BACKBONE|DICT|INTERRES
   101   49  174 1    
   102   50   51 2    
   103   50   52 1    
   104   52   53 1    
   105   52   54 1    
   106   52  175 1    
   107   53  176 1    
   108   53  177 1    
   109   53  178 1    
   110   54   55 am   BACKBONE|DICT|INTERRES
   111   54  179 1    
   112   55   56 2    
   113   55   57 1    
   114   57   58 1    
   115   57   59 1    
   116   57  180 1    
   117   58  181 1    
   118   58  182 1    
   119   58  183 1    
   120   59   60 am   BACKBONE|DICT|INTERRES
   121   59  184 1    
   122   60   61 2    
   123   60   62 1    
   124   62   63 1    
   125   62   64 1    
   126   62  185 1    
   127   63  186 1    
   128   63  187 1    
   129   63  188 1    
   130   64   65 am   BACKBONE|DICT|INTERRES
   131   64  189 1    
   132   65   66 2    
   133   67   68 2    
   134   67   69 am   BACKBONE|DICT|INTERRES
   135   69   70 1    
   136   69  190 1    
   137   70   71 1    
   138   70   72 1    
   139   70  191 1    
   140   71  192 1    
   141   71  193 1    
   142   71  194 1    
   143   72   73 2    
   144   72   74 am   BACKBONE|DICT|INTERRES
   145   74   75 1    
   146   74  195 1    
   147   75   76 1    
   148   75   77 1    
   149   75  196 1    
   150   76  197 1    
   151   76  198 1    
   152   76  199 1    
   153   77   78 2    
   154   77   79 am   BACKBONE|DICT|INTERRES
   155   79   80 1    
   156   79  200 1    
   157   80   81 1    
   158   80   82 1    
   159   80  201 1    
   160   81  202 1    
   161   81  203 1    
   162   81  204 1    
   163   82   83 2    
   164   82   84 am   BACKBONE|DICT|INTERRES
   165   84   85 1    
   166   84  205 1    
   167   85   86 1    
   168   85   87 1    
   169   85  206 1    
   170   86  207 1    
   171   86  208 1    
   172   86  209 1    
   173   87   88 2    
   174   87   89 am   BACKBONE|DICT|INTERRES
   175   89   90 1    
   176   89  210 1    
   177   90   91 1    
   178   90   92 1    
   179   90  211 1    
   180   91  212 1    
   181   91  213 1    
   182   91  214 1    
   183   92   93 2    
   184   92   94 am   BACKBONE|DICT|INTERRES
   185   94   95 1    
   186   94  215 1    
   187   95   96 1    
   188   95   97 1    
   189   95  216 1    
   190   96  217 1    
   191   96  218 1    
   192   96  219 1    
   193   97   98 2    
   194   97   99 am   BACKBONE|DICT|INTERRES
   195   99  100 1    
   196   99  220 1    
   197  100  101 1    
   198  100  102 1    
   199  100  221 1    
   200  101  222 1    
   201  101  223 1    
   202  101  224 1    
   203  102  103 2    
   204  102  104 am   BACKBONE|DICT|INTERRES
   205  104  105 1    
   206  104  225 1    
   207  105  106 1    
   208  105  107 1    
   209  105  226 1    
   210  106  227 1    
   211  106  228 1    
   212  106  229 1    
   213  107  108 2    
   214  107  109 am   BACKBONE|DICT|INTERRES
   215  109  110 1    
   216  109  230 1    
   217  110  111 1    
   218  110  112 1    
   219  110  231 1    
   220  111  232 1    
   221  111  233 1    
   222  111  234 1    
   223  112  113 2    
   224  112  114 am   BACKBONE|DICT|INTERRES
   225  114  115 1    
   226  114  235 1    
   227  115  116 1    
   228  115  117 1    
   229  115  236 1    
   230  116  237 1    
   231  116  238 1    
   232  116  239 1    
   233  117  118 2    
   234  117  119 am   BACKBONE|DICT|INTERRES
   235  119  120 1    
   236  119  240 1    
   237  120  121 1    
   238  120  124 1    
   239  120  241 1    
   240  121  122 am   BACKBONE|DICT|INTERRES
   241  121  123 2    
   242  122  242 1    
   243  122  243 1    
   244  124  125 1    
   245  124  244 1    
   246  124  245 1    
   247  125  126 1    
   248  126  246 1    
   249  126  247 1    
@<TRIPOS>SUBSTRUCTURE
     1 UNK         1 GROUP             0       ****    0 ROOT    
