@<TRIPOS>MOLECULE
3R540
247   249    1
SMALL
USER_CHARGES


@<TRIPOS>ATOM
      1 CA         -3.6935  -17.0138  -46.8091 C.3       0 UNK        -0.1800 
      2 C          -3.5998  -16.0575  -47.9888 C.2       0 UNK         0.5000 
      3 O          -4.6220  -15.6926  -48.5668 O.2       0 UNK        -0.5000 
      4 N          -2.3744  -15.6469  -48.3420 N.am      1 UNK        -0.5000 
      5 CA         -2.0687  -14.7462  -49.4651 C.3       1 UNK         0.1400 
      6 C6         -0.5634  -14.7630  -49.8357 C.3       23 UNK        -0.0398 
      7 S7          0.0578  -16.4360  -50.2119 S.3       23 UNK        -0.2404 
      8 C8          1.8384  -16.2130  -49.9330 C.3       23 UNK        -0.0205 
      9 C9          2.6000  -17.4974  -50.2170 C.ar      23 UNK        -0.0193 
     10 C10         3.0080  -17.8004  -51.5176 C.ar      23 UNK        -0.1150 
     11 C11         3.7237  -18.9715  -51.7797 C.ar      23 UNK        -0.0193 
     12 C12         4.0395  -19.8355  -50.7265 C.ar      23 UNK        -0.1150 
     13 C13         3.5887  -19.5753  -49.4261 C.ar      23 UNK        -0.0193 
     14 C14         2.8919  -18.3881  -49.1813 C.ar      23 UNK        -0.1150 
     15 C15         3.8216  -20.5265  -48.2504 C.3       23 UNK        -0.0205 
     16 S16         4.3291  -22.2399  -48.6421 S.3       23 UNK        -0.2404 
     17 C17         3.0163  -22.8882  -49.7444 C.3       23 UNK        -0.0398 
     18 CA          1.6517  -23.2180  -49.0870 C.3       11 UNK         0.1400 
     19 N           1.7899  -23.9143  -47.8054 N.am      11 UNK        -0.5000 
     20 C           0.8245  -24.6045  -47.1840 C.2       10 UNK         0.5000 
     21 O          -0.2965  -24.7870  -47.6565 O.2       10 UNK        -0.5000 
     22 CA          1.1401  -25.1275  -45.7682 C.3       10 UNK         0.1400 
     23 CB          1.5863  -26.5956  -45.8305 C.3       10 UNK        -0.1800 
     24 N           2.1405  -24.3535  -45.0184 N.am      10 UNK        -0.5000 
     25 C           2.0963  -23.0363  -44.7783 C.2       9 UNK         0.5000 
     26 O           1.2525  -22.2795  -45.2687 O.2       9 UNK        -0.5000 
     27 CA          3.1839  -22.4636  -43.8611 C.3       9 UNK         0.1400 
     28 CB          4.4915  -22.2485  -44.6388 C.3       9 UNK        -0.1800 
     29 N           2.7178  -21.1755  -43.3652 N.am      9 UNK        -0.5000 
     30 C           2.6315  -20.7939  -42.0877 C.2       8 UNK         0.5000 
     31 O           3.0153  -21.4770  -41.1366 O.2       8 UNK        -0.5000 
     32 CA          1.9947  -19.4070  -41.8578 C.3       8 UNK         0.1400 
     33 CB          2.2455  -18.8358  -40.4473 C.3       8 UNK        -0.1800 
     34 N           2.3667  -18.4415  -42.8986 N.am      8 UNK        -0.5000 
     35 C           3.5989  -17.9877  -43.1824 C.2       7 UNK         0.5000 
     36 O           4.6085  -18.2865  -42.5436 O.2       7 UNK        -0.5000 
     37 CA          3.7408  -17.0628  -44.4082 C.3       7 UNK         0.1400 
     38 CB          4.2835  -17.8598  -45.6045 C.3       7 UNK        -0.1800 
     39 N           2.4857  -16.4287  -44.8097 N.am      7 UNK        -0.5000 
     40 C           1.8489  -15.4677  -44.1288 C.2       6 UNK         0.5000 
     41 O           2.2843  -14.9507  -43.0995 O.2       6 UNK        -0.5000 
     42 CA          0.4843  -15.0195  -44.6880 C.3       6 UNK         0.1400 
     43 CB          0.3745  -15.1451  -46.2215 C.3       6 UNK        -0.1800 
     44 N          -0.6431  -15.6943  -44.0392 N.am      6 UNK        -0.5000 
     45 C          -0.8499  -17.0134  -43.8903 C.2       5 UNK         0.5000 
     46 O          -0.0877  -17.8751  -44.3310 O.2       5 UNK        -0.5000 
     47 CA         -2.1369  -17.4570  -43.1569 C.3       5 UNK         0.1400 
     48 CB         -1.9033  -18.6854  -42.2533 C.3       5 UNK        -0.1800 
     49 N          -2.8213  -16.3805  -42.4278 N.am      5 UNK        -0.5000 
     50 C          -2.3721  -15.7002  -41.3613 C.2       4 UNK         0.5000 
     51 O          -1.3087  -15.9438  -40.7895 O.2       4 UNK        -0.5000 
     52 CA         -3.2572  -14.5256  -40.8852 C.3       4 UNK         0.1400 
     53 CB         -2.4778  -13.5108  -40.0227 C.3       4 UNK        -0.1800 
     54 N          -3.9611  -13.8241  -41.9716 N.am      4 UNK        -0.5000 
     55 C          -3.4094  -13.2427  -43.0471 C.2       3 UNK         0.5000 
     56 O          -2.2094  -13.3080  -43.3300 O.2       3 UNK        -0.5000 
     57 CA         -4.3604  -12.4552  -43.9593 C.3       3 UNK         0.1400 
     58 CB         -4.7677  -11.1224  -43.3005 C.3       3 UNK        -0.1800 
     59 N          -3.6826  -12.2052  -45.2276 N.am      3 UNK        -0.5000 
     60 C          -4.2615  -11.8062  -46.3651 C.2       2 UNK         0.5000 
     61 O          -5.4716  -11.6173  -46.4920 O.2       2 UNK        -0.5000 
     62 CA         -3.3332  -11.6239  -47.5718 C.3       2 UNK         0.1400 
     63 CB         -2.1777  -10.6458  -47.2871 C.3       2 UNK        -0.1800 
     64 N          -2.8100  -12.9258  -47.9717 N.am      2 UNK        -0.5000 
     65 C          -2.5413  -13.2924  -49.2312 C.2       1 UNK         0.5000 
     66 O          -2.6492  -12.5349  -50.1967 O.2       1 UNK        -0.5000 
     67 C           0.6997  -21.9977  -49.0624 C.2       11 UNK         0.5000 
     68 O           0.3927  -21.4772  -50.1330 O.2       11 UNK        -0.5000 
     69 N           0.2206  -21.5799  -47.8820 N.am      12 UNK        -0.5000 
     70 CA         -0.8284  -20.5710  -47.7348 C.3       12 UNK         0.1400 
     71 CB         -0.2046  -19.1966  -47.4589 C.3       12 UNK        -0.1800 
     72 C          -1.8617  -20.9400  -46.6600 C.2       12 UNK         0.5000 
     73 O          -3.0383  -20.6153  -46.8252 O.2       12 UNK        -0.5000 
     74 N          -1.4269  -21.6253  -45.5931 N.am      13 UNK        -0.5000 
     75 CA         -2.2507  -22.0068  -44.4429 C.3       13 UNK         0.1400 
     76 CB         -1.3355  -22.5185  -43.3193 C.3       13 UNK        -0.1800 
     77 C          -3.3510  -23.0400  -44.7526 C.2       13 UNK         0.5000 
     78 O          -4.2943  -23.1604  -43.9690 O.2       13 UNK        -0.5000 
     79 N          -3.2376  -23.7555  -45.8807 N.am      14 UNK        -0.5000 
     80 CA         -4.2287  -24.7077  -46.3850 C.3       14 UNK         0.1400 
     81 CB         -3.5514  -25.6396  -47.4024 C.3       14 UNK        -0.1800 
     82 C          -5.4681  -23.9933  -46.9671 C.2       14 UNK         0.5000 
     83 O          -5.6897  -24.0134  -48.1803 O.2       14 UNK        -0.5000 
     84 N          -6.2313  -23.3388  -46.0794 N.am      15 UNK        -0.5000 
     85 CA         -7.5220  -22.6696  -46.2973 C.3       15 UNK         0.1400 
     86 CB         -8.6099  -23.7251  -46.5849 C.3       15 UNK        -0.1800 
     87 C          -7.5057  -21.5529  -47.3654 C.2       15 UNK         0.5000 
     88 O          -8.5564  -21.2290  -47.9204 O.2       15 UNK        -0.5000 
     89 N          -6.3131  -21.0138  -47.6623 N.am      16 UNK        -0.5000 
     90 CA         -5.9950  -20.0853  -48.7541 C.3       16 UNK         0.1400 
     91 CB         -6.7290  -18.7403  -48.5841 C.3       16 UNK        -0.1800 
     92 C          -6.1803  -20.6775  -50.1718 C.2       16 UNK         0.5000 
     93 O          -6.0111  -19.9537  -51.1540 O.2       16 UNK        -0.5000 
     94 N          -6.4625  -21.9842  -50.2789 N.am      17 UNK        -0.5000 
     95 CA         -6.5683  -22.7033  -51.5487 C.3       17 UNK         0.1400 
     96 CB         -7.2646  -24.0531  -51.3201 C.3       17 UNK        -0.1800 
     97 C          -5.1830  -22.8952  -52.1841 C.2       17 UNK         0.5000 
     98 O          -5.0259  -22.7057  -53.3904 O.2       17 UNK        -0.5000 
     99 N          -4.1893  -23.2044  -51.3391 N.am      18 UNK        -0.5000 
    100 CA        -2.7807  -23.2558  -51.7214 C.3       18 UNK         0.1400 
    101 CB        -1.9707  -23.9420  -50.6158 C.3       18 UNK        -0.1800 
    102 C         -2.2132  -21.8613  -52.0408 C.2       18 UNK         0.5000 
    103 O         -1.4121  -21.7438  -52.9655 O.2       18 UNK        -0.5000 
    104 N         -2.6751  -20.8266  -51.3192 N.am      19 UNK        -0.5000 
    105 CA        -2.2897  -19.4289  -51.5414 C.3       19 UNK         0.1400 
    106 CB        -2.9001  -18.5263  -50.4586 C.3       19 UNK        -0.1800 
    107 C         -2.7057  -18.9262  -52.9334 C.2       19 UNK         0.5000 
    108 O         -1.9065  -18.2864  -53.6168 O.2       19 UNK        -0.5000 
    109 N         -3.9357  -19.2694  -53.3423 N.am      20 UNK        -0.5000 
    110 CA        -4.4859  -18.9750  -54.6653 C.3       20 UNK         0.1400 
    111 CB        -5.9728  -19.3602  -54.6874 C.3       20 UNK        -0.1800 
    112 C         -3.7246  -19.6700  -55.8119 C.2       20 UNK         0.5000 
    113 O         -3.6414  -19.1099  -56.9056 O.2       20 UNK        -0.5000 
    114 N         -3.1760  -20.8627  -55.5427 N.am      21 UNK        -0.5000 
    115 CA        -2.3353  -21.6105  -56.4751 C.3       21 UNK         0.1400 
    116 CB        -2.3353  -23.0982  -56.0884 C.3       21 UNK        -0.1800 
    117 C         -0.9013  -21.0514  -56.5380 C.2       21 UNK         0.5000 
    118 O         -0.3696  -20.8794  -57.6359 O.2       21 UNK        -0.5000 
    119 N         -0.2995  -20.7904  -55.3694 N.am      22 UNK        -0.5000 
    120 CA         1.0706  -20.2712  -55.2315 C.3       22 UNK         0.1400 
    121 C          1.2342  -18.7871  -55.6660 C.2       22 UNK         0.5000 
    122 N          0.2598  -17.9204  -55.4207 N.am      22 UNK        -0.7600 
    123 O          2.2510  -18.4191  -56.2477 O.2       22 UNK        -0.5000 
    124 C124        1.6325  -20.5118  -53.8039 C.3       23 UNK        -0.0398 
    125 S125        3.4238  -20.8727  -53.7968 S.3       23 UNK        -0.2404 
    126 C126        4.1471  -19.3070  -53.2029 C.3       23 UNK        -0.0205 
    127 H127       -2.7337  -17.1268  -46.3074 H         1 UNK         0.0600 
    128 H128       -4.0182  -17.9972  -47.1479 H         1 UNK         0.0600 
    129 H129       -4.4162  -16.6459  -46.0810 H         1 UNK         0.0600 
    130 H130       -1.5700  -16.0153  -47.8580 H         1 UNK         0.3000 
    131 H131       -2.6246  -15.1090  -50.3322 H         1 UNK         0.0600 
    132 H132       -0.3802  -14.1408  -50.7138 H         1 UNK         0.0800 
    133 H133        0.0329  -14.3337  -49.0295 H         1 UNK         0.0800 
    134 H134        2.0109  -15.8935  -48.9044 H         1 UNK         0.0800 
    135 H135        2.2093  -15.4118  -50.5740 H         1 UNK         0.0800 
    136 H136        2.7628  -17.1244  -52.3249 H         1 UNK         0.1150 
    137 H137        4.6086  -20.7278  -50.9409 H         1 UNK         0.1150 
    138 H138        2.5611  -18.1607  -48.1784 H         1 UNK         0.1150 
    139 H139        4.5995  -20.0923  -47.6220 H         1 UNK         0.0800 
    140 H140        2.9227  -20.5701  -47.6341 H         1 UNK         0.0800 
    141 H141        3.4171  -23.8133  -50.1605 H         1 UNK         0.0800 
    142 H142        2.8885  -22.2403  -50.6115 H         1 UNK         0.0800 
    143 H143        1.1625  -23.9263  -49.7583 H         1 UNK         0.0600 
    144 H144        2.6764  -23.7963  -47.3366 H         1 UNK         0.3000 
    145 H145        0.2082  -25.0816  -45.2014 H         1 UNK         0.0600 
    146 H146        1.6969  -27.0181  -44.8317 H         1 UNK         0.0600 
    147 H147        0.8529  -27.2060  -46.3593 H         1 UNK         0.0600 
    148 H148        2.5394  -26.7036  -46.3498 H         1 UNK         0.0600 
    149 H149        2.8829  -24.8927  -44.5962 H         1 UNK         0.3000 
    150 H150        3.3523  -23.1618  -43.0387 H         1 UNK         0.0600 
    151 H151        4.8726  -23.1875  -45.0419 H         1 UNK         0.0600 
    152 H152        5.2660  -21.8334  -43.9936 H         1 UNK         0.0600 
    153 H153        4.3543  -21.5622  -45.4748 H         1 UNK         0.0600 
    154 H154        2.2981  -20.5835  -44.0685 H         1 UNK         0.3000 
    155 H155        0.9202  -19.5575  -41.9602 H         1 UNK         0.0600 
    156 H156        3.3088  -18.7143  -40.2396 H         1 UNK         0.0600 
    157 H157        1.8368  -19.4956  -39.6813 H         1 UNK         0.0600 
    158 H158        1.7656  -17.8643  -40.3271 H         1 UNK         0.0600 
    159 H159        1.6017  -18.1406  -43.4977 H         1 UNK         0.3000 
    160 H160        4.4589  -16.2800  -44.1553 H         1 UNK         0.0600 
    161 H161        3.5972  -18.6566  -45.8924 H         1 UNK         0.0600 
    162 H162        5.2417  -18.3233  -45.3656 H         1 UNK         0.0600 
    163 H163        4.4408  -17.2185  -46.4720 H         1 UNK         0.0600 
    164 H164        2.0209  -16.8203  -45.6150 H         1 UNK         0.3000 
    165 H165        0.3903  -13.9605  -44.4420 H         1 UNK         0.0600 
    166 H166       -0.5096  -14.6184  -46.5763 H         1 UNK         0.0600 
    167 H167        1.2342  -14.6902  -46.7153 H         1 UNK         0.0600 
    168 H168        0.3078  -16.1815  -46.5536 H         1 UNK         0.0600 
    169 H169       -1.3101  -15.0597  -43.6122 H         1 UNK         0.3000 
    170 H170       -2.8254  -17.7685  -43.9428 H         1 UNK         0.0600 
    171 H171       -1.4859  -19.5152  -42.8222 H         1 UNK         0.0600 
    172 H172       -1.2088  -18.4710  -41.4414 H         1 UNK         0.0600 
    173 H173       -2.8373  -19.0336  -41.8126 H         1 UNK         0.0600 
    174 H174       -3.7068  -16.0888  -42.8171 H         1 UNK         0.3000 
    175 H175       -4.0287  -14.9692  -40.2543 H         1 UNK         0.0600 
    176 H176       -1.6518  -13.0623  -40.5759 H         1 UNK         0.0600 
    177 H177       -3.1266  -12.7054  -39.6786 H         1 UNK         0.0600 
    178 H178       -2.0583  -13.9873  -39.1359 H         1 UNK         0.0600 
    179 H179       -4.9595  -13.7315  -41.8428 H         1 UNK         0.3000 
    180 H180       -5.2472  -13.0653  -44.1426 H         1 UNK         0.0600 
    181 H181       -3.9017  -10.4830  -43.1248 H         1 UNK         0.0600 
    182 H182       -5.2537  -11.2884  -42.3385 H         1 UNK         0.0600 
    183 H183       -5.4713  -10.5675  -43.9210 H         1 UNK         0.0600 
    184 H184       -2.6827  -12.3602  -45.1858 H         1 UNK         0.3000 
    185 H185       -3.9410  -11.2096  -48.3795 H         1 UNK         0.0600 
    186 H186       -1.6112  -10.4370  -48.1947 H         1 UNK         0.0600 
    187 H187       -2.5553   -9.6929  -46.9142 H         1 UNK         0.0600 
    188 H188       -1.4810  -11.0390  -46.5461 H         1 UNK         0.0600 
    189 H189       -2.7543  -13.6269  -47.2476 H         1 UNK         0.3000 
    190 H190        0.5533  -22.0255  -47.0334 H         1 UNK         0.3000 
    191 H191       -1.3924  -20.5108  -48.6656 H         1 UNK         0.0600 
    192 H192       -0.9637  -18.4585  -47.2021 H         1 UNK         0.0600 
    193 H193        0.3082  -18.8309  -48.3458 H         1 UNK         0.0600 
    194 H194        0.5128  -19.2359  -46.6386 H         1 UNK         0.0600 
    195 H195       -0.4341  -21.8299  -45.5045 H         1 UNK         0.3000 
    196 H196       -2.7558  -21.1065  -44.0884 H         1 UNK         0.0600 
    197 H197       -0.8275  -23.4399  -43.6048 H         1 UNK         0.0600 
    198 H198       -0.5732  -21.7835  -43.0604 H         1 UNK         0.0600 
    199 H199       -1.9064  -22.7262  -42.4135 H         1 UNK         0.0600 
    200 H200       -2.4326  -23.5939  -46.4689 H         1 UNK         0.3000 
    201 H201       -4.5726  -25.3270  -45.5539 H         1 UNK         0.0600 
    202 H202       -3.1445  -25.0818  -48.2438 H         1 UNK         0.0600 
    203 H203       -4.2582  -26.3689  -47.8000 H         1 UNK         0.0600 
    204 H204       -2.7328  -26.1952  -46.9446 H         1 UNK         0.0600 
    205 H205       -5.8845  -23.3143  -45.1245 H         1 UNK         0.3000 
    206 H206       -7.7738  -22.1802  -45.3556 H         1 UNK         0.0600 
    207 H207       -8.6252  -24.4959  -45.8144 H         1 UNK         0.0600 
    208 H208       -9.6029  -23.2744  -46.6069 H         1 UNK         0.0600 
    209 H209       -8.4507  -24.2151  -47.5462 H         1 UNK         0.0600 
    210 H210       -5.5116  -21.3475  -47.1430 H         1 UNK         0.3000 
    211 H211       -4.9283  -19.8846  -48.6567 H         1 UNK         0.0600 
    212 H212       -6.3532  -17.9995  -49.2910 H         1 UNK         0.0600 
    213 H213       -6.5816  -18.3330  -47.5839 H         1 UNK         0.0600 
    214 H214       -7.8013  -18.8356  -48.7549 H         1 UNK         0.0600 
    215 H215       -6.5250  -22.5427  -49.4352 H         1 UNK         0.3000 
    216 H216       -7.1793  -22.1135  -52.2355 H         1 UNK         0.0600 
    217 H217       -6.6961  -24.6945  -50.6456 H         1 UNK         0.0600 
    218 H218       -7.3864  -24.5919  -52.2605 H         1 UNK         0.0600 
    219 H219       -8.2577  -23.9157  -50.8920 H         1 UNK         0.0600 
    220 H220       -4.4147  -23.3680  -50.3675 H         1 UNK         0.3000 
    221 H221       -2.6953  -23.8623  -52.6258 H         1 UNK         0.0600 
    222 H222       -2.3203  -24.9600  -50.4461 H         1 UNK         0.0600 
    223 H223       -2.0278  -23.3982  -49.6720 H         1 UNK         0.0600 
    224 H224       -0.9197  -24.0083  -50.8965 H         1 UNK         0.0600 
    225 H225       -3.3542  -21.0079  -50.5985 H         1 UNK         0.3000 
    226 H226       -1.2013  -19.3649  -51.4696 H         1 UNK         0.0600 
    227 H227       -3.9873  -18.5475  -50.4669 H         1 UNK         0.0600 
    228 H228       -2.5634  -18.7921  -49.4593 H         1 UNK         0.0600 
    229 H229       -2.6137  -17.4901  -50.6282 H         1 UNK         0.0600 
    230 H230       -4.5460  -19.7570  -52.6962 H         1 UNK         0.3000 
    231 H231       -4.4096  -17.8974  -54.8245 H         1 UNK         0.0600 
    232 H232       -6.1143  -20.4275  -54.5140 H         1 UNK         0.0600 
    233 H233       -6.4247  -19.1205  -55.6507 H         1 UNK         0.0600 
    234 H234       -6.5313  -18.8210  -53.9220 H         1 UNK         0.0600 
    235 H235       -3.2996  -21.2558  -54.6199 H         1 UNK         0.3000 
    236 H236       -2.7691  -21.5304  -57.4743 H         1 UNK         0.0600 
    237 H237       -3.3475  -23.5032  -56.0826 H         1 UNK         0.0600 
    238 H238       -1.7536  -23.6844  -56.8007 H         1 UNK         0.0600 
    239 H239       -1.9050  -23.2639  -55.1009 H         1 UNK         0.0600 
    240 H240       -0.7918  -20.9997  -54.5033 H         1 UNK         0.3000 
    241 H241        1.6755  -20.8599  -55.9244 H         1 UNK         0.0600 
    242 H242        0.3670  -16.9636  -55.7151 H         1 UNK         0.3800 
    243 H243       -0.5609  -18.1854  -54.8795 H         1 UNK         0.3800 
    244 H244        1.1615  -21.3891  -53.3596 H         1 UNK         0.0800 
    245 H245        1.3896  -19.6892  -53.1290 H         1 UNK         0.0800 
    246 H246        5.2343  -19.3863  -53.2372 H         1 UNK         0.0800 
    247 H247        3.8762  -18.5054  -53.8916 H         1 UNK         0.0800 
@<TRIPOS>BOND
     1    1    2 1    
     2    1  127 1    
     3    1  128 1    
     4    1  129 1    
     5    2    3 2    
     6    2    4 am   BACKBONE|DICT|INTERRES
     7    4    5 1    
     8    4  130 1    
     9    5    6 1    
    10    5   65 1    
    11    5  131 1    
    12    6    7 1    
    13    6  132 1    
    14    6  133 1    
    15    7    8 1    
    16    8    9 1    
    17    8  134 1    
    18    8  135 1    
    19    9   10 ar   
    20    9   14 ar   
    21   10   11 ar   
    22   10  136 1    
    23   11   12 ar   
    24   11  126 1    
    25   12   13 ar   
    26   12  137 1    
    27   13   14 ar   
    28   13   15 1    
    29   14  138 1    
    30   15   16 1    
    31   15  139 1    
    32   15  140 1    
    33   16   17 1    
    34   17   18 1    
    35   17  141 1    
    36   17  142 1    
    37   18   19 1    
    38   18   67 1    
    39   18  143 1    
    40   19   20 am   BACKBONE|DICT|INTERRES
    41   19  144 1    
    42   20   21 2    
    43   20   22 1    
    44   22   23 1    
    45   22   24 1    
    46   22  145 1    
    47   23  146 1    
    48   23  147 1    
    49   23  148 1    
    50   24   25 am   BACKBONE|DICT|INTERRES
    51   24  149 1    
    52   25   26 2    
    53   25   27 1    
    54   27   28 1    
    55   27   29 1    
    56   27  150 1    
    57   28  151 1    
    58   28  152 1    
    59   28  153 1    
    60   29   30 am   BACKBONE|DICT|INTERRES
    61   29  154 1    
    62   30   31 2    
    63   30   32 1    
    64   32   33 1    
    65   32   34 1    
    66   32  155 1    
    67   33  156 1    
    68   33  157 1    
    69   33  158 1    
    70   34   35 am   BACKBONE|DICT|INTERRES
    71   34  159 1    
    72   35   36 2    
    73   35   37 1    
    74   37   38 1    
    75   37   39 1    
    76   37  160 1    
    77   38  161 1    
    78   38  162 1    
    79   38  163 1    
    80   39   40 am   BACKBONE|DICT|INTERRES
    81   39  164 1    
    82   40   41 2    
    83   40   42 1    
    84   42   43 1    
    85   42   44 1    
    86   42  165 1    
    87   43  166 1    
    88   43  167 1    
    89   43  168 1    
    90   44   45 am   BACKBONE|DICT|INTERRES
    91   44  169 1    
    92   45   46 2    
    93   45   47 1    
    94   47   48 1    
    95   47   49 1    
    96   47  170 1    
    97   48  171 1    
    98   48  172 1    
    99   48  173 1    
   100   49   50 am   BACKBONE|DICT|INTERRES
   101   49  174 1    
   102   50   51 2    
   103   50   52 1    
   104   52   53 1    
   105   52   54 1    
   106   52  175 1    
   107   53  176 1    
   108   53  177 1    
   109   53  178 1    
   110   54   55 am   BACKBONE|DICT|INTERRES
   111   54  179 1    
   112   55   56 2    
   113   55   57 1    
   114   57   58 1    
   115   57   59 1    
   116   57  180 1    
   117   58  181 1    
   118   58  182 1    
   119   58  183 1    
   120   59   60 am   BACKBONE|DICT|INTERRES
   121   59  184 1    
   122   60   61 2    
   123   60   62 1    
   124   62   63 1    
   125   62   64 1    
   126   62  185 1    
   127   63  186 1    
   128   63  187 1    
   129   63  188 1    
   130   64   65 am   BACKBONE|DICT|INTERRES
   131   64  189 1    
   132   65   66 2    
   133   67   68 2    
   134   67   69 am   BACKBONE|DICT|INTERRES
   135   69   70 1    
   136   69  190 1    
   137   70   71 1    
   138   70   72 1    
   139   70  191 1    
   140   71  192 1    
   141   71  193 1    
   142   71  194 1    
   143   72   73 2    
   144   72   74 am   BACKBONE|DICT|INTERRES
   145   74   75 1    
   146   74  195 1    
   147   75   76 1    
   148   75   77 1    
   149   75  196 1    
   150   76  197 1    
   151   76  198 1    
   152   76  199 1    
   153   77   78 2    
   154   77   79 am   BACKBONE|DICT|INTERRES
   155   79   80 1    
   156   79  200 1    
   157   80   81 1    
   158   80   82 1    
   159   80  201 1    
   160   81  202 1    
   161   81  203 1    
   162   81  204 1    
   163   82   83 2    
   164   82   84 am   BACKBONE|DICT|INTERRES
   165   84   85 1    
   166   84  205 1    
   167   85   86 1    
   168   85   87 1    
   169   85  206 1    
   170   86  207 1    
   171   86  208 1    
   172   86  209 1    
   173   87   88 2    
   174   87   89 am   BACKBONE|DICT|INTERRES
   175   89   90 1    
   176   89  210 1    
   177   90   91 1    
   178   90   92 1    
   179   90  211 1    
   180   91  212 1    
   181   91  213 1    
   182   91  214 1    
   183   92   93 2    
   184   92   94 am   BACKBONE|DICT|INTERRES
   185   94   95 1    
   186   94  215 1    
   187   95   96 1    
   188   95   97 1    
   189   95  216 1    
   190   96  217 1    
   191   96  218 1    
   192   96  219 1    
   193   97   98 2    
   194   97   99 am   BACKBONE|DICT|INTERRES
   195   99  100 1    
   196   99  220 1    
   197  100  101 1    
   198  100  102 1    
   199  100  221 1    
   200  101  222 1    
   201  101  223 1    
   202  101  224 1    
   203  102  103 2    
   204  102  104 am   BACKBONE|DICT|INTERRES
   205  104  105 1    
   206  104  225 1    
   207  105  106 1    
   208  105  107 1    
   209  105  226 1    
   210  106  227 1    
   211  106  228 1    
   212  106  229 1    
   213  107  108 2    
   214  107  109 am   BACKBONE|DICT|INTERRES
   215  109  110 1    
   216  109  230 1    
   217  110  111 1    
   218  110  112 1    
   219  110  231 1    
   220  111  232 1    
   221  111  233 1    
   222  111  234 1    
   223  112  113 2    
   224  112  114 am   BACKBONE|DICT|INTERRES
   225  114  115 1    
   226  114  235 1    
   227  115  116 1    
   228  115  117 1    
   229  115  236 1    
   230  116  237 1    
   231  116  238 1    
   232  116  239 1    
   233  117  118 2    
   234  117  119 am   BACKBONE|DICT|INTERRES
   235  119  120 1    
   236  119  240 1    
   237  120  121 1    
   238  120  124 1    
   239  120  241 1    
   240  121  122 am   BACKBONE|DICT|INTERRES
   241  121  123 2    
   242  122  242 1    
   243  122  243 1    
   244  124  125 1    
   245  124  244 1    
   246  124  245 1    
   247  125  126 1    
   248  126  246 1    
   249  126  247 1    
@<TRIPOS>SUBSTRUCTURE
     1 UNK         1 GROUP             0       ****    0 ROOT    
