@<TRIPOS>MOLECULE
3R540
247   249    1
SMALL
USER_CHARGES


@<TRIPOS>ATOM
      1 CA         -0.0932  -10.1793  -47.4713 C.3       0 UNK        -0.1800 
      2 C          -0.5574  -11.6268  -47.4149 C.2       0 UNK         0.5000 
      3 O          -0.8275  -12.1422  -46.3280 O.2       0 UNK        -0.5000 
      4 N          -0.6619  -12.2843  -48.5789 N.am      1 UNK        -0.5000 
      5 CA         -1.0921  -13.6812  -48.7076 C.3       1 UNK         0.1400 
      6 C6         -0.8609  -14.2518  -50.1300 C.3       23 UNK        -0.0398 
      7 S7         -0.4498  -16.0308  -50.1033 S.3       23 UNK        -0.2404 
      8 C8          1.3645  -15.9211  -50.1854 C.3       23 UNK        -0.0205 
      9 C9          2.0340  -17.2819  -50.2967 C.ar      23 UNK        -0.0193 
     10 C10         1.8963  -18.0350  -51.4666 C.ar      23 UNK        -0.1150 
     11 C11         2.5835  -19.2418  -51.6201 C.ar      23 UNK        -0.0193 
     12 C12         3.4193  -19.6900  -50.5930 C.ar      23 UNK        -0.1150 
     13 C13         3.5527  -18.9564  -49.4111 C.ar      23 UNK        -0.0193 
     14 C14         2.8510  -17.7557  -49.2651 C.ar      23 UNK        -0.1150 
     15 C15         4.4994  -19.4360  -48.3193 C.3       23 UNK        -0.0205 
     16 S16         3.9552  -20.9949  -47.5524 S.3       23 UNK        -0.2404 
     17 C17         2.4680  -20.4596  -46.6434 C.3       23 UNK        -0.0398 
     18 CA          1.1886  -21.1787  -47.1242 C.3       11 UNK         0.1400 
     19 N           1.2785  -22.6354  -46.9858 N.am      11 UNK        -0.5000 
     20 C           0.4808  -23.5160  -47.6036 C.2       10 UNK         0.5000 
     21 O          -0.3924  -23.1944  -48.4074 O.2       10 UNK        -0.5000 
     22 CA          0.6603  -25.0002  -47.2263 C.3       10 UNK         0.1400 
     23 CB          1.7210  -25.6670  -48.1130 C.3       10 UNK        -0.1800 
     24 N           1.0323  -25.1820  -45.8220 N.am      10 UNK        -0.5000 
     25 C           0.2147  -24.9448  -44.7868 C.2       9 UNK         0.5000 
     26 O          -0.9580  -24.5967  -44.9138 O.2       9 UNK        -0.5000 
     27 CA          0.8246  -25.0648  -43.3752 C.3       9 UNK         0.1400 
     28 CB          0.6849  -26.5008  -42.8490 C.3       9 UNK        -0.1800 
     29 N           2.2328  -24.6570  -43.3079 N.am      9 UNK        -0.5000 
     30 C           2.6867  -23.4359  -43.6215 C.2       8 UNK         0.5000 
     31 O           1.9536  -22.5233  -44.0045 O.2       8 UNK        -0.5000 
     32 CA          4.2145  -23.2440  -43.5745 C.3       8 UNK         0.1400 
     33 CB          4.8748  -23.9727  -44.7573 C.3       8 UNK        -0.1800 
     34 N           4.6206  -21.8391  -43.6246 N.am      8 UNK        -0.5000 
     35 C           4.4544  -20.9395  -42.6463 C.2       7 UNK         0.5000 
     36 O           3.9416  -21.2036  -41.5561 O.2       7 UNK        -0.5000 
     37 CA          5.0122  -19.5176  -42.8933 C.3       7 UNK         0.1400 
     38 CB          5.4919  -19.2566  -44.3400 C.3       7 UNK        -0.1800 
     39 N           4.0945  -18.4574  -42.4645 N.am      7 UNK        -0.5000 
     40 C           2.8534  -18.2314  -42.9188 C.2       6 UNK         0.5000 
     41 O           2.2865  -18.9424  -43.7493 O.2       6 UNK        -0.5000 
     42 CA          2.1053  -17.0032  -42.3535 C.3       6 UNK         0.1400 
     43 CB          3.0155  -15.9558  -41.6730 C.3       6 UNK        -0.1800 
     44 N           1.2645  -16.3754  -43.3760 N.am      6 UNK        -0.5000 
     45 C           1.6488  -15.8289  -44.5380 C.2       5 UNK         0.5000 
     46 O           2.8240  -15.6600  -44.8657 O.2       5 UNK        -0.5000 
     47 CA          0.5325  -15.3964  -45.5116 C.3       5 UNK         0.1400 
     48 CB          0.0524  -16.6095  -46.3310 C.3       5 UNK        -0.1800 
     49 N          -0.5865  -14.6700  -44.8851 N.am      5 UNK        -0.5000 
     50 C          -1.4872  -15.1266  -44.0005 C.2       4 UNK         0.5000 
     51 O          -1.5473  -16.2987  -43.6269 O.2       4 UNK        -0.5000 
     52 CA         -2.4314  -14.1034  -43.3533 C.3       4 UNK         0.1400 
     53 CB         -1.7497  -13.4964  -42.1091 C.3       4 UNK        -0.1800 
     54 N          -2.8696  -13.0495  -44.2715 N.am      4 UNK        -0.5000 
     55 C          -3.8957  -12.2226  -44.0205 C.2       3 UNK         0.5000 
     56 O          -4.5824  -12.2728  -42.9989 O.2       3 UNK        -0.5000 
     57 CA         -4.2289  -11.1646  -45.0865 C.3       3 UNK         0.1400 
     58 CB         -3.2852   -9.9568  -44.9763 C.3       3 UNK        -0.1800 
     59 N          -4.1814  -11.7101  -46.4407 N.am      3 UNK        -0.5000 
     60 C          -5.1217  -12.5082  -46.9674 C.2       2 UNK         0.5000 
     61 O          -6.1561  -12.8249  -46.3790 O.2       2 UNK        -0.5000 
     62 CA         -4.8734  -13.0366  -48.3949 C.3       2 UNK         0.1400 
     63 CB         -5.6590  -12.2071  -49.4220 C.3       2 UNK        -0.1800 
     64 N          -3.4580  -13.0443  -48.7730 N.am      2 UNK        -0.5000 
     65 C          -2.5466  -13.8685  -48.2389 C.2       1 UNK         0.5000 
     66 O          -2.8050  -14.6884  -47.3634 O.2       1 UNK        -0.5000 
     67 C          -0.0541  -20.6418  -46.3857 C.2       11 UNK         0.5000 
     68 O          -0.7616  -19.7913  -46.9221 O.2       11 UNK        -0.5000 
     69 N          -0.3362  -21.1899  -45.1949 N.am      12 UNK        -0.5000 
     70 CA         -1.5435  -20.9030  -44.4192 C.3       12 UNK         0.1400 
     71 CB         -1.4228  -21.5384  -43.0269 C.3       12 UNK        -0.1800 
     72 C          -2.8304  -21.3649  -45.1325 C.2       12 UNK         0.5000 
     73 O          -3.8396  -20.6640  -45.0736 O.2       12 UNK        -0.5000 
     74 N          -2.7690  -22.5082  -45.8309 N.am      13 UNK        -0.5000 
     75 CA         -3.8327  -22.9917  -46.7123 C.3       13 UNK         0.1400 
     76 CB         -3.5452  -24.4389  -47.1375 C.3       13 UNK        -0.1800 
     77 C          -4.0201  -22.0839  -47.9411 C.2       13 UNK         0.5000 
     78 O          -5.1553  -21.7543  -48.2830 O.2       13 UNK        -0.5000 
     79 N          -2.9069  -21.6519  -48.5509 N.am      14 UNK        -0.5000 
     80 CA         -2.8683  -20.7283  -49.6876 C.3       14 UNK         0.1400 
     81 CB         -1.4300  -20.6098  -50.2030 C.3       14 UNK        -0.1800 
     82 C          -3.4629  -19.3385  -49.3991 C.2       14 UNK         0.5000 
     83 O          -3.9392  -18.6919  -50.3318 O.2       14 UNK        -0.5000 
     84 N          -3.4703  -18.9172  -48.1276 N.am      15 UNK        -0.5000 
     85 CA         -4.1414  -17.7014  -47.6684 C.3       15 UNK         0.1400 
     86 CB         -3.7794  -17.4344  -46.1992 C.3       15 UNK        -0.1800 
     87 C          -5.6709  -17.7751  -47.8284 C.2       15 UNK         0.5000 
     88 O          -6.2926  -16.7844  -48.2127 O.2       15 UNK        -0.5000 
     89 N          -6.2434  -18.9522  -47.5418 N.am      16 UNK        -0.5000 
     90 CA         -7.6729  -19.2293  -47.6624 C.3       16 UNK         0.1400 
     91 CB         -8.0564  -20.3408  -46.6730 C.3       16 UNK        -0.1800 
     92 C          -8.0578  -19.6220  -49.0983 C.2       16 UNK         0.5000 
     93 O          -9.0901  -19.1720  -49.5964 O.2       16 UNK        -0.5000 
     94 N          -7.2221  -20.4519  -49.7371 N.am      17 UNK        -0.5000 
     95 CA         -7.4319  -20.9738  -51.0892 C.3       17 UNK         0.1400 
     96 CB         -6.5671  -22.2307  -51.2732 C.3       17 UNK        -0.1800 
     97 C          -7.1608  -19.9494  -52.2103 C.2       17 UNK         0.5000 
     98 O          -7.5824  -20.1897  -53.3422 O.2       17 UNK        -0.5000 
     99 N          -6.4810  -18.8403  -51.8782 N.am      18 UNK        -0.5000 
    100 CA        -6.0102  -17.7735  -52.7672 C.3       18 UNK         0.1400 
    101 CB        -7.1853  -17.0464  -53.4545 C.3       18 UNK        -0.1800 
    102 C         -4.9556  -18.3137  -53.7517 C.2       18 UNK         0.5000 
    103 O         -5.2119  -18.4145  -54.9532 O.2       18 UNK        -0.5000 
    104 N         -3.7988  -18.6836  -53.1855 N.am      19 UNK        -0.5000 
    105 CA        -2.7054  -19.4426  -53.7994 C.3       19 UNK         0.1400 
    106 CB        -2.1380  -18.7423  -55.0550 C.3       19 UNK        -0.1800 
    107 C         -3.1190  -20.9135  -54.0155 C.2       19 UNK         0.5000 
    108 O         -3.9299  -21.4303  -53.2437 O.2       19 UNK        -0.5000 
    109 N         -2.5357  -21.5716  -55.0271 N.am      20 UNK        -0.5000 
    110 CA        -2.7705  -22.9477  -55.4900 C.3       20 UNK         0.1400 
    111 CB        -4.2288  -23.1457  -55.9468 C.3       20 UNK        -0.1800 
    112 C         -2.3428  -24.0499  -54.5003 C.2       20 UNK         0.5000 
    113 O         -1.5769  -24.9366  -54.8803 O.2       20 UNK        -0.5000 
    114 N         -2.8132  -23.9710  -53.2491 N.am      21 UNK        -0.5000 
    115 CA        -2.5447  -24.9249  -52.1665 C.3       21 UNK         0.1400 
    116 CB        -3.4113  -24.5609  -50.9527 C.3       21 UNK        -0.1800 
    117 C         -1.0587  -25.0079  -51.7642 C.2       21 UNK         0.5000 
    118 O         -0.6202  -26.0427  -51.2610 O.2       21 UNK        -0.5000 
    119 N         -0.3138  -23.9291  -52.0255 N.am      22 UNK        -0.5000 
    120 CA         1.1453  -23.8471  -51.8997 C.3       22 UNK         0.1400 
    121 C          1.9392  -24.4993  -53.0723 C.2       22 UNK         0.5000 
    122 N          1.3044  -24.9865  -54.1330 N.am      22 UNK        -0.7600 
    123 O          3.1627  -24.5823  -53.0101 O.2       22 UNK        -0.5000 
    124 C124        1.6023  -22.3964  -51.6109 C.3       23 UNK        -0.0398 
    125 S125        1.0252  -21.1768  -52.8481 S.3       23 UNK        -0.2404 
    126 C126        2.4454  -20.0418  -52.9073 C.3       23 UNK        -0.0205 
    127 H127        0.7682  -10.0375  -46.8190 H         1 UNK         0.0600 
    128 H128       -0.8898   -9.5161  -47.1350 H         1 UNK         0.0600 
    129 H129        0.1928   -9.8845  -48.4811 H         1 UNK         0.0600 
    130 H130       -0.4309  -11.8056  -49.4380 H         1 UNK         0.3000 
    131 H131       -0.4593  -14.2402  -48.0187 H         1 UNK         0.0600 
    132 H132       -1.7268  -14.1004  -50.7771 H         1 UNK         0.0800 
    133 H133       -0.0449  -13.7209  -50.6218 H         1 UNK         0.0800 
    134 H134        1.6533  -15.3242  -51.0517 H         1 UNK         0.0800 
    135 H135        1.7264  -15.3851  -49.3064 H         1 UNK         0.0800 
    136 H136        1.2650  -17.6712  -52.2653 H         1 UNK         0.1150 
    137 H137        3.9751  -20.6091  -50.7105 H         1 UNK         0.1150 
    138 H138        2.9698  -17.1719  -48.3631 H         1 UNK         0.1150 
    139 H139        5.4880  -19.5886  -48.7542 H         1 UNK         0.0800 
    140 H140        4.6229  -18.6765  -47.5457 H         1 UNK         0.0800 
    141 H141        2.3531  -19.3776  -46.7295 H         1 UNK         0.0800 
    142 H142        2.6428  -20.6581  -45.5878 H         1 UNK         0.0800 
    143 H143        1.0672  -20.9504  -48.1846 H         1 UNK         0.0600 
    144 H144        1.9332  -22.9709  -46.2951 H         1 UNK         0.3000 
    145 H145       -0.2921  -25.5072  -47.3950 H         1 UNK         0.0600 
    146 H146        1.8847  -26.7047  -47.8218 H         1 UNK         0.0600 
    147 H147        1.4005  -25.6775  -49.1536 H         1 UNK         0.0600 
    148 H148        2.6790  -25.1476  -48.0628 H         1 UNK         0.0600 
    149 H149        1.9796  -25.4730  -45.6320 H         1 UNK         0.3000 
    150 H150        0.2583  -24.4045  -42.7158 H         1 UNK         0.0600 
    151 H151        1.2584  -27.2081  -43.4494 H         1 UNK         0.0600 
    152 H152       -0.3570  -26.8234  -42.8674 H         1 UNK         0.0600 
    153 H153        1.0289  -26.5784  -41.8174 H         1 UNK         0.0600 
    154 H154        2.8905  -25.3638  -43.0117 H         1 UNK         0.3000 
    155 H155        4.5842  -23.6744  -42.6416 H         1 UNK         0.0600 
    156 H156        4.5267  -23.5836  -45.7153 H         1 UNK         0.0600 
    157 H157        4.6579  -25.0413  -44.7389 H         1 UNK         0.0600 
    158 H158        5.9596  -23.8671  -44.7290 H         1 UNK         0.0600 
    159 H159        5.0239  -21.5248  -44.4945 H         1 UNK         0.3000 
    160 H160        5.8867  -19.4337  -42.2466 H         1 UNK         0.0600 
    161 H161        4.6777  -19.3372  -45.0588 H         1 UNK         0.0600 
    162 H162        6.2754  -19.9544  -44.6375 H         1 UNK         0.0600 
    163 H163        5.9104  -18.2545  -44.4345 H         1 UNK         0.0600 
    164 H164        4.4551  -17.8357  -41.7552 H         1 UNK         0.3000 
    165 H165        1.4206  -17.3885  -41.5969 H         1 UNK         0.0600 
    166 H166        2.4375  -15.0910  -41.3467 H         1 UNK         0.0600 
    167 H167        3.4986  -16.3661  -40.7858 H         1 UNK         0.0600 
    168 H168        3.7975  -15.5965  -42.3429 H         1 UNK         0.0600 
    169 H169        0.2625  -16.5046  -43.2597 H         1 UNK         0.3000 
    170 H170        0.9838  -14.6872  -46.2067 H         1 UNK         0.0600 
    171 H171        0.8650  -17.0225  -46.9291 H         1 UNK         0.0600 
    172 H172       -0.3090  -17.4125  -45.6887 H         1 UNK         0.0600 
    173 H173       -0.7512  -16.3480  -47.0164 H         1 UNK         0.0600 
    174 H174       -0.6150  -13.6840  -45.1249 H         1 UNK         0.3000 
    175 H175       -3.3153  -14.6574  -43.0295 H         1 UNK         0.0600 
    176 H176       -0.9088  -12.8594  -42.3861 H         1 UNK         0.0600 
    177 H177       -2.4423  -12.8971  -41.5188 H         1 UNK         0.0600 
    178 H178       -1.3662  -14.2772  -41.4506 H         1 UNK         0.0600 
    179 H179       -2.3689  -12.9633  -45.1490 H         1 UNK         0.3000 
    180 H180       -5.2440  -10.8082  -44.8979 H         1 UNK         0.0600 
    181 H181       -3.3758   -9.4849  -43.9972 H         1 UNK         0.0600 
    182 H182       -3.5208   -9.1998  -45.7244 H         1 UNK         0.0600 
    183 H183       -2.2411  -10.2417  -45.1016 H         1 UNK         0.0600 
    184 H184       -3.3535  -11.5183  -46.9837 H         1 UNK         0.3000 
    185 H185       -5.2420  -14.0644  -48.4316 H         1 UNK         0.0600 
    186 H186       -5.5503  -12.6168  -50.4264 H         1 UNK         0.0600 
    187 H187       -6.7245  -12.2037  -49.1881 H         1 UNK         0.0600 
    188 H188       -5.3241  -11.1693  -49.4426 H         1 UNK         0.0600 
    189 H189       -3.1670  -12.3672  -49.4630 H         1 UNK         0.3000 
    190 H190        0.3380  -21.8293  -44.7835 H         1 UNK         0.3000 
    191 H191       -1.6045  -19.8195  -44.2935 H         1 UNK         0.0600 
    192 H192       -0.5216  -21.1990  -42.5154 H         1 UNK         0.0600 
    193 H193       -2.2751  -21.2688  -42.4022 H         1 UNK         0.0600 
    194 H194       -1.3884  -22.6260  -43.0817 H         1 UNK         0.0600 
    195 H195       -1.9376  -23.0848  -45.7534 H         1 UNK         0.3000 
    196 H196       -4.7678  -22.9854  -46.1483 H         1 UNK         0.0600 
    197 H197       -4.3493  -24.8268  -47.7641 H         1 UNK         0.0600 
    198 H198       -3.4622  -25.0950  -46.2709 H         1 UNK         0.0600 
    199 H199       -2.6193  -24.5186  -47.7063 H         1 UNK         0.0600 
    200 H200       -2.0104  -22.0101  -48.2382 H         1 UNK         0.3000 
    201 H201       -3.4690  -21.1637  -50.4864 H         1 UNK         0.0600 
    202 H202       -1.3487  -19.8775  -51.0026 H         1 UNK         0.0600 
    203 H203       -1.0819  -21.5651  -50.5911 H         1 UNK         0.0600 
    204 H204       -0.7427  -20.2899  -49.4243 H         1 UNK         0.0600 
    205 H205       -2.9857  -19.4713  -47.4329 H         1 UNK         0.3000 
    206 H206       -3.7763  -16.8754  -48.2801 H         1 UNK         0.0600 
    207 H207       -2.7013  -17.4312  -46.0493 H         1 UNK         0.0600 
    208 H208       -4.1553  -16.4624  -45.8779 H         1 UNK         0.0600 
    209 H209       -4.2078  -18.1789  -45.5302 H         1 UNK         0.0600 
    210 H210       -5.6509  -19.7284  -47.2769 H         1 UNK         0.3000 
    211 H211       -8.2364  -18.3327  -47.3950 H         1 UNK         0.0600 
    212 H212       -7.5193  -21.2681  -46.8762 H         1 UNK         0.0600 
    213 H213       -9.1234  -20.5604  -46.7275 H         1 UNK         0.0600 
    214 H214       -7.8369  -20.0462  -45.6466 H         1 UNK         0.0600 
    215 H215       -6.4192  -20.8203  -49.2311 H         1 UNK         0.3000 
    216 H216       -8.4779  -21.2742  -51.1790 H         1 UNK         0.0600 
    217 H217       -6.6942  -22.6567  -52.2692 H         1 UNK         0.0600 
    218 H218       -6.8331  -23.0027  -50.5511 H         1 UNK         0.0600 
    219 H219       -5.5087  -22.0089  -51.1467 H         1 UNK         0.0600 
    220 H220       -6.1320  -18.7852  -50.9304 H         1 UNK         0.3000 
    221 H221       -5.5072  -17.0431  -52.1311 H         1 UNK         0.0600 
    222 H222       -7.7279  -17.6943  -54.1431 H         1 UNK         0.0600 
    223 H223       -7.8965  -16.6682  -52.7201 H         1 UNK         0.0600 
    224 H224       -6.8259  -16.1927  -54.0298 H         1 UNK         0.0600 
    225 H225       -3.7510  -18.6128  -52.1709 H         1 UNK         0.3000 
    226 H226       -1.9025  -19.4582  -53.0659 H         1 UNK         0.0600 
    227 H227       -1.1795  -19.1734  -55.3457 H         1 UNK         0.0600 
    228 H228       -2.8088  -18.8225  -55.9109 H         1 UNK         0.0600 
    229 H229       -1.9637  -17.6829  -54.8665 H         1 UNK         0.0600 
    230 H230       -1.8545  -21.0604  -55.5706 H         1 UNK         0.3000 
    231 H231       -2.1404  -23.0667  -56.3730 H         1 UNK         0.0600 
    232 H232       -4.9352  -23.0477  -55.1219 H         1 UNK         0.0600 
    233 H233       -4.3696  -24.1376  -56.3781 H         1 UNK         0.0600 
    234 H234       -4.5041  -22.4176  -56.7097 H         1 UNK         0.0600 
    235 H235       -3.4038  -23.1710  -53.0307 H         1 UNK         0.3000 
    236 H236       -2.8434  -25.9149  -52.5166 H         1 UNK         0.0600 
    237 H237       -4.4715  -24.5624  -51.2055 H         1 UNK         0.0600 
    238 H238       -3.2680  -25.2760  -50.1420 H         1 UNK         0.0600 
    239 H239       -3.1582  -23.5742  -50.5683 H         1 UNK         0.0600 
    240 H240       -0.7589  -23.1314  -52.4533 H         1 UNK         0.3000 
    241 H241        1.4251  -24.4301  -51.0232 H         1 UNK         0.0600 
    242 H242        0.2945  -24.9431  -54.2170 H         1 UNK         0.3800 
    243 H243        1.8417  -25.4093  -54.8728 H         1 UNK         0.3800 
    244 H244        1.2341  -22.0847  -50.6327 H         1 UNK         0.0800 
    245 H245        2.6893  -22.3612  -51.5331 H         1 UNK         0.0800 
    246 H246        3.3585  -20.6034  -53.1110 H         1 UNK         0.0800 
    247 H247        2.3150  -19.3615  -53.7501 H         1 UNK         0.0800 
@<TRIPOS>BOND
     1    1    2 1    
     2    1  127 1    
     3    1  128 1    
     4    1  129 1    
     5    2    3 2    
     6    2    4 am   BACKBONE|DICT|INTERRES
     7    4    5 1    
     8    4  130 1    
     9    5    6 1    
    10    5   65 1    
    11    5  131 1    
    12    6    7 1    
    13    6  132 1    
    14    6  133 1    
    15    7    8 1    
    16    8    9 1    
    17    8  134 1    
    18    8  135 1    
    19    9   10 ar   
    20    9   14 ar   
    21   10   11 ar   
    22   10  136 1    
    23   11   12 ar   
    24   11  126 1    
    25   12   13 ar   
    26   12  137 1    
    27   13   14 ar   
    28   13   15 1    
    29   14  138 1    
    30   15   16 1    
    31   15  139 1    
    32   15  140 1    
    33   16   17 1    
    34   17   18 1    
    35   17  141 1    
    36   17  142 1    
    37   18   19 1    
    38   18   67 1    
    39   18  143 1    
    40   19   20 am   BACKBONE|DICT|INTERRES
    41   19  144 1    
    42   20   21 2    
    43   20   22 1    
    44   22   23 1    
    45   22   24 1    
    46   22  145 1    
    47   23  146 1    
    48   23  147 1    
    49   23  148 1    
    50   24   25 am   BACKBONE|DICT|INTERRES
    51   24  149 1    
    52   25   26 2    
    53   25   27 1    
    54   27   28 1    
    55   27   29 1    
    56   27  150 1    
    57   28  151 1    
    58   28  152 1    
    59   28  153 1    
    60   29   30 am   BACKBONE|DICT|INTERRES
    61   29  154 1    
    62   30   31 2    
    63   30   32 1    
    64   32   33 1    
    65   32   34 1    
    66   32  155 1    
    67   33  156 1    
    68   33  157 1    
    69   33  158 1    
    70   34   35 am   BACKBONE|DICT|INTERRES
    71   34  159 1    
    72   35   36 2    
    73   35   37 1    
    74   37   38 1    
    75   37   39 1    
    76   37  160 1    
    77   38  161 1    
    78   38  162 1    
    79   38  163 1    
    80   39   40 am   BACKBONE|DICT|INTERRES
    81   39  164 1    
    82   40   41 2    
    83   40   42 1    
    84   42   43 1    
    85   42   44 1    
    86   42  165 1    
    87   43  166 1    
    88   43  167 1    
    89   43  168 1    
    90   44   45 am   BACKBONE|DICT|INTERRES
    91   44  169 1    
    92   45   46 2    
    93   45   47 1    
    94   47   48 1    
    95   47   49 1    
    96   47  170 1    
    97   48  171 1    
    98   48  172 1    
    99   48  173 1    
   100   49   50 am   BACKBONE|DICT|INTERRES
   101   49  174 1    
   102   50   51 2    
   103   50   52 1    
   104   52   53 1    
   105   52   54 1    
   106   52  175 1    
   107   53  176 1    
   108   53  177 1    
   109   53  178 1    
   110   54   55 am   BACKBONE|DICT|INTERRES
   111   54  179 1    
   112   55   56 2    
   113   55   57 1    
   114   57   58 1    
   115   57   59 1    
   116   57  180 1    
   117   58  181 1    
   118   58  182 1    
   119   58  183 1    
   120   59   60 am   BACKBONE|DICT|INTERRES
   121   59  184 1    
   122   60   61 2    
   123   60   62 1    
   124   62   63 1    
   125   62   64 1    
   126   62  185 1    
   127   63  186 1    
   128   63  187 1    
   129   63  188 1    
   130   64   65 am   BACKBONE|DICT|INTERRES
   131   64  189 1    
   132   65   66 2    
   133   67   68 2    
   134   67   69 am   BACKBONE|DICT|INTERRES
   135   69   70 1    
   136   69  190 1    
   137   70   71 1    
   138   70   72 1    
   139   70  191 1    
   140   71  192 1    
   141   71  193 1    
   142   71  194 1    
   143   72   73 2    
   144   72   74 am   BACKBONE|DICT|INTERRES
   145   74   75 1    
   146   74  195 1    
   147   75   76 1    
   148   75   77 1    
   149   75  196 1    
   150   76  197 1    
   151   76  198 1    
   152   76  199 1    
   153   77   78 2    
   154   77   79 am   BACKBONE|DICT|INTERRES
   155   79   80 1    
   156   79  200 1    
   157   80   81 1    
   158   80   82 1    
   159   80  201 1    
   160   81  202 1    
   161   81  203 1    
   162   81  204 1    
   163   82   83 2    
   164   82   84 am   BACKBONE|DICT|INTERRES
   165   84   85 1    
   166   84  205 1    
   167   85   86 1    
   168   85   87 1    
   169   85  206 1    
   170   86  207 1    
   171   86  208 1    
   172   86  209 1    
   173   87   88 2    
   174   87   89 am   BACKBONE|DICT|INTERRES
   175   89   90 1    
   176   89  210 1    
   177   90   91 1    
   178   90   92 1    
   179   90  211 1    
   180   91  212 1    
   181   91  213 1    
   182   91  214 1    
   183   92   93 2    
   184   92   94 am   BACKBONE|DICT|INTERRES
   185   94   95 1    
   186   94  215 1    
   187   95   96 1    
   188   95   97 1    
   189   95  216 1    
   190   96  217 1    
   191   96  218 1    
   192   96  219 1    
   193   97   98 2    
   194   97   99 am   BACKBONE|DICT|INTERRES
   195   99  100 1    
   196   99  220 1    
   197  100  101 1    
   198  100  102 1    
   199  100  221 1    
   200  101  222 1    
   201  101  223 1    
   202  101  224 1    
   203  102  103 2    
   204  102  104 am   BACKBONE|DICT|INTERRES
   205  104  105 1    
   206  104  225 1    
   207  105  106 1    
   208  105  107 1    
   209  105  226 1    
   210  106  227 1    
   211  106  228 1    
   212  106  229 1    
   213  107  108 2    
   214  107  109 am   BACKBONE|DICT|INTERRES
   215  109  110 1    
   216  109  230 1    
   217  110  111 1    
   218  110  112 1    
   219  110  231 1    
   220  111  232 1    
   221  111  233 1    
   222  111  234 1    
   223  112  113 2    
   224  112  114 am   BACKBONE|DICT|INTERRES
   225  114  115 1    
   226  114  235 1    
   227  115  116 1    
   228  115  117 1    
   229  115  236 1    
   230  116  237 1    
   231  116  238 1    
   232  116  239 1    
   233  117  118 2    
   234  117  119 am   BACKBONE|DICT|INTERRES
   235  119  120 1    
   236  119  240 1    
   237  120  121 1    
   238  120  124 1    
   239  120  241 1    
   240  121  122 am   BACKBONE|DICT|INTERRES
   241  121  123 2    
   242  122  242 1    
   243  122  243 1    
   244  124  125 1    
   245  124  244 1    
   246  124  245 1    
   247  125  126 1    
   248  126  246 1    
   249  126  247 1    
@<TRIPOS>SUBSTRUCTURE
     1 UNK         1 GROUP             0       ****    0 ROOT    
