@<TRIPOS>MOLECULE
3R540
247   249    1
SMALL
USER_CHARGES


@<TRIPOS>ATOM
      1 CA         -5.1559  -13.3333  -51.1142 C.3       0 UNK        -0.1800 
      2 C          -3.7519  -13.2385  -50.5340 C.2       0 UNK         0.5000 
      3 O          -3.0299  -12.2883  -50.8360 O.2       0 UNK        -0.5000 
      4 N          -3.3654  -14.2194  -49.7083 N.am      1 UNK        -0.5000 
      5 CA         -2.0600  -14.2999  -49.0435 C.3       1 UNK         0.1400 
      6 C6         -1.8532  -15.6687  -48.3502 C.3       23 UNK        -0.0398 
      7 S7         -1.4324  -16.9986  -49.5238 S.3       23 UNK        -0.2404 
      8 C8          0.3558  -17.1174  -49.1866 C.3       23 UNK        -0.0205 
      9 C9          1.0515  -18.2323  -49.9534 C.ar      23 UNK        -0.0193 
     10 C10         0.9579  -18.3048  -51.3462 C.ar      23 UNK        -0.1150 
     11 C11         1.6643  -19.2785  -52.0571 C.ar      23 UNK        -0.0193 
     12 C12         2.4693  -20.1871  -51.3637 C.ar      23 UNK        -0.1150 
     13 C13         2.5930  -20.1106  -49.9726 C.ar      23 UNK        -0.0193 
     14 C14         1.8700  -19.1397  -49.2727 C.ar      23 UNK        -0.1150 
     15 C15         3.5781  -21.0172  -49.2463 C.3       23 UNK        -0.0205 
     16 S16         2.8010  -22.5210  -48.5826 S.3       23 UNK        -0.2404 
     17 C17         2.2872  -21.9696  -46.9200 C.3       23 UNK        -0.0398 
     18 CA          0.9251  -22.5633  -46.4976 C.3       11 UNK         0.1400 
     19 N           0.7413  -22.5247  -45.0454 N.am      11 UNK        -0.5000 
     20 C          -0.2326  -23.1702  -44.3883 C.2       10 UNK         0.5000 
     21 O          -1.0431  -23.9224  -44.9316 O.2       10 UNK        -0.5000 
     22 CA         -0.3514  -22.8815  -42.8802 C.3       10 UNK         0.1400 
     23 CB          0.6733  -23.6996  -42.0806 C.3       10 UNK        -0.1800 
     24 N          -0.1937  -21.4577  -42.5759 N.am      10 UNK        -0.5000 
     25 C          -1.0388  -20.5035  -42.9906 C.2       9 UNK         0.5000 
     26 O          -2.0798  -20.7400  -43.6018 O.2       9 UNK        -0.5000 
     27 CA         -0.6381  -19.0416  -42.7267 C.3       9 UNK         0.1400 
     28 CB         -1.0650  -18.5977  -41.3206 C.3       9 UNK        -0.1800 
     29 N           0.7928  -18.8001  -42.9092 N.am      9 UNK        -0.5000 
     30 C           1.4506  -18.9067  -44.0721 C.2       8 UNK         0.5000 
     31 O           0.9130  -19.1938  -45.1379 O.2       8 UNK        -0.5000 
     32 CA          2.9739  -18.7080  -44.0360 C.3       8 UNK         0.1400 
     33 CB          3.3460  -17.2188  -44.0692 C.3       8 UNK        -0.1800 
     34 N           3.5737  -19.3445  -42.8663 N.am      8 UNK        -0.5000 
     35 C           3.6411  -20.6704  -42.6845 C.2       7 UNK         0.5000 
     36 O           3.2467  -21.4965  -43.5094 O.2       7 UNK        -0.5000 
     37 CA          4.2035  -21.1425  -41.3319 C.3       7 UNK         0.1400 
     38 CB          5.7391  -21.1546  -41.3559 C.3       7 UNK        -0.1800 
     39 N           3.7394  -20.3133  -40.2164 N.am      7 UNK        -0.5000 
     40 C           2.4697  -20.2760  -39.7884 C.2       6 UNK         0.5000 
     41 O           1.5648  -20.9497  -40.2802 O.2       6 UNK        -0.5000 
     42 CA          2.1498  -19.2949  -38.6453 C.3       6 UNK         0.1400 
     43 CB          2.4977  -19.9186  -37.2854 C.3       6 UNK        -0.1800 
     44 N           2.8174  -17.9949  -38.7708 N.am      6 UNK        -0.5000 
     45 C           2.6318  -17.1382  -39.7834 C.2       5 UNK         0.5000 
     46 O           1.9522  -17.3925  -40.7783 O.2       5 UNK        -0.5000 
     47 CA          3.3574  -15.7867  -39.6947 C.3       5 UNK         0.1400 
     48 CB          4.7071  -15.8548  -40.4259 C.3       5 UNK        -0.1800 
     49 N           2.5464  -14.7185  -40.2825 N.am      5 UNK        -0.5000 
     50 C           1.5089  -14.1314  -39.6682 C.2       4 UNK         0.5000 
     51 O           1.1494  -14.4122  -38.5239 O.2       4 UNK        -0.5000 
     52 CA          0.7523  -13.0386  -40.4459 C.3       4 UNK         0.1400 
     53 CB          1.4162  -11.6709  -40.2196 C.3       4 UNK        -0.1800 
     54 N           0.7021  -13.3112  -41.8844 N.am      4 UNK        -0.5000 
     55 C          -0.3586  -13.8221  -42.5219 C.2       3 UNK         0.5000 
     56 O          -1.4238  -14.1139  -41.9734 O.2       3 UNK        -0.5000 
     57 CA         -0.1886  -14.0793  -44.0303 C.3       3 UNK         0.1400 
     58 CB         -0.0136  -15.5805  -44.2987 C.3       3 UNK        -0.1800 
     59 N          -1.3212  -13.5944  -44.8167 N.am      3 UNK        -0.5000 
     60 C          -1.6326  -12.3067  -45.0198 C.2       2 UNK         0.5000 
     61 O          -1.0132  -11.3683  -44.5146 O.2       2 UNK        -0.5000 
     62 CA         -2.8122  -12.0394  -45.9874 C.3       2 UNK         0.1400 
     63 CB         -2.8766  -10.5754  -46.4705 C.3       2 UNK        -0.1800 
     64 N          -2.8354  -12.9617  -47.1348 N.am      2 UNK        -0.5000 
     65 C          -1.8466  -13.1625  -48.0234 C.2       1 UNK         0.5000 
     66 O          -0.7918  -12.5270  -48.0431 O.2       1 UNK        -0.5000 
     67 C          -0.2581  -21.9046  -47.2377 C.2       11 UNK         0.5000 
     68 O          -0.7704  -22.4867  -48.1917 O.2       11 UNK        -0.5000 
     69 N          -0.7144  -20.7428  -46.7483 N.am      12 UNK        -0.5000 
     70 CA         -1.8843  -20.0223  -47.2471 C.3       12 UNK         0.1400 
     71 CB         -2.0596  -18.7029  -46.4823 C.3       12 UNK        -0.1800 
     72 C          -3.1739  -20.8513  -47.1637 C.2       12 UNK         0.5000 
     73 O          -3.9398  -20.8594  -48.1237 O.2       12 UNK        -0.5000 
     74 N          -3.3789  -21.5566  -46.0432 N.am      13 UNK        -0.5000 
     75 CA         -4.5015  -22.4714  -45.8376 C.3       13 UNK         0.1400 
     76 CB         -4.5091  -22.9668  -44.3837 C.3       13 UNK        -0.1800 
     77 C          -4.4886  -23.6523  -46.8252 C.2       13 UNK         0.5000 
     78 O          -5.5326  -23.9765  -47.3920 O.2       13 UNK        -0.5000 
     79 N          -3.3044  -24.2394  -47.0510 N.am      14 UNK        -0.5000 
     80 CA         -3.0836  -25.3077  -48.0286 C.3       14 UNK         0.1400 
     81 CB         -1.6820  -25.9042  -47.8276 C.3       14 UNK        -0.1800 
     82 C          -3.2818  -24.8391  -49.4846 C.2       14 UNK         0.5000 
     83 O          -3.8613  -25.5730  -50.2850 O.2       14 UNK        -0.5000 
     84 N          -2.8263  -23.6168  -49.7886 N.am      15 UNK        -0.5000 
     85 CA         -2.9514  -22.9597  -51.0915 C.3       15 UNK         0.1400 
     86 CB         -1.8559  -21.8858  -51.2064 C.3       15 UNK        -0.1800 
     87 C          -4.3404  -22.3372  -51.3478 C.2       15 UNK         0.5000 
     88 O          -4.5512  -21.7742  -52.4232 O.2       15 UNK        -0.5000 
     89 N          -5.2432  -22.3945  -50.3568 N.am      16 UNK        -0.5000 
     90 CA         -6.5863  -21.8038  -50.3376 C.3       16 UNK         0.1400 
     91 CB         -7.5099  -22.5329  -51.3354 C.3       16 UNK        -0.1800 
     92 C          -6.5597  -20.2748  -50.5520 C.2       16 UNK         0.5000 
     93 O          -7.3178  -19.7481  -51.3649 O.2       16 UNK        -0.5000 
     94 N          -5.6386  -19.5966  -49.8537 N.am      17 UNK        -0.5000 
     95 CA         -5.3024  -18.1729  -49.9713 C.3       17 UNK         0.1400 
     96 CB         -6.4671  -17.2871  -49.4837 C.3       17 UNK        -0.1800 
     97 C          -4.8016  -17.8047  -51.3848 C.2       17 UNK         0.5000 
     98 O          -5.1339  -16.7395  -51.9051 O.2       17 UNK        -0.5000 
     99 N          -4.0207  -18.7235  -51.9707 N.am      18 UNK        -0.5000 
    100 CA        -3.4420  -18.7055  -53.3173 C.3       18 UNK         0.1400 
    101 CB        -2.5756  -17.4492  -53.5479 C.3       18 UNK        -0.1800 
    102 C         -4.4620  -18.9446  -54.4511 C.2       18 UNK         0.5000 
    103 O         -4.1132  -18.7605  -55.6176 O.2       18 UNK        -0.5000 
    104 N         -5.6880  -19.3770  -54.1196 N.am      19 UNK        -0.5000 
    105 CA        -6.7199  -19.7312  -55.0969 C.3       19 UNK         0.1400 
    106 CB        -8.1067  -19.6355  -54.4444 C.3       19 UNK        -0.1800 
    107 C         -6.5163  -21.1299  -55.7100 C.2       19 UNK         0.5000 
    108 O         -7.0407  -21.3832  -56.7954 O.2       19 UNK        -0.5000 
    109 N         -5.7723  -22.0106  -55.0272 N.am      20 UNK        -0.5000 
    110 CA        -5.4966  -23.3790  -55.4558 C.3       20 UNK         0.1400 
    111 CB        -6.4780  -24.3299  -54.7442 C.3       20 UNK        -0.1800 
    112 C         -4.0211  -23.7186  -55.1624 C.2       20 UNK         0.5000 
    113 O         -3.7471  -24.4334  -54.2001 O.2       20 UNK        -0.5000 
    114 N         -3.0494  -23.2205  -55.9383 N.am      21 UNK        -0.5000 
    115 CA        -3.1841  -22.3899  -57.1391 C.3       21 UNK         0.1400 
    116 CB        -3.3504  -23.2873  -58.3788 C.3       21 UNK        -0.1800 
    117 C         -1.9889  -21.4388  -57.3203 C.2       21 UNK         0.5000 
    118 O         -2.1544  -20.3978  -57.9558 O.2       21 UNK        -0.5000 
    119 N         -0.8144  -21.8026  -56.7789 N.am      22 UNK        -0.5000 
    120 CA         0.4337  -21.0134  -56.8188 C.3       22 UNK         0.1400 
    121 C          1.0460  -20.8189  -58.2432 C.2       22 UNK         0.5000 
    122 N          0.6761  -21.6182  -59.2366 N.am      22 UNK        -0.7600 
    123 O          1.8976  -19.9583  -58.4501 O.2       22 UNK        -0.5000 
    124 C124        0.3256  -19.6844  -56.0169 C.3       23 UNK        -0.0398 
    125 S125        0.0708  -19.9710  -54.2301 S.3       23 UNK        -0.2404 
    126 C126        1.6241  -19.2878  -53.5770 C.3       23 UNK        -0.0205 
    127 H127       -5.1058  -13.4647  -52.1951 H         1 UNK         0.0600 
    128 H128       -5.7129  -12.4201  -50.9045 H         1 UNK         0.0600 
    129 H129       -5.7121  -14.1728  -50.6975 H         1 UNK         0.0600 
    130 H130       -3.9982  -14.9849  -49.5329 H         1 UNK         0.3000 
    131 H131       -1.2905  -14.1822  -49.8101 H         1 UNK         0.0600 
    132 H132       -1.0647  -15.6152  -47.5968 H         1 UNK         0.0800 
    133 H133       -2.7525  -15.9575  -47.8052 H         1 UNK         0.0800 
    134 H134        0.8302  -16.1695  -49.4442 H         1 UNK         0.0800 
    135 H135        0.5049  -17.2576  -48.1148 H         1 UNK         0.0800 
    136 H136        0.3549  -17.5850  -51.8810 H         1 UNK         0.1150 
    137 H137        3.0371  -20.9262  -51.9113 H         1 UNK         0.1150 
    138 H138        1.9764  -19.0610  -48.2004 H         1 UNK         0.1150 
    139 H139        4.3703  -21.3188  -49.9333 H         1 UNK         0.0800 
    140 H140        4.0775  -20.4688  -48.4460 H         1 UNK         0.0800 
    141 H141        2.2756  -20.8818  -46.8540 H         1 UNK         0.0800 
    142 H142        3.0638  -22.2983  -46.2279 H         1 UNK         0.0800 
    143 H143        0.9259  -23.6201  -46.7745 H         1 UNK         0.0600 
    144 H144        1.3836  -21.9449  -44.5179 H         1 UNK         0.3000 
    145 H145       -1.3509  -23.1847  -42.5615 H         1 UNK         0.0600 
    146 H146        0.5423  -23.5533  -41.0083 H         1 UNK         0.0600 
    147 H147        0.5623  -24.7661  -42.2798 H         1 UNK         0.0600 
    148 H148        1.6973  -23.4227  -42.3319 H         1 UNK         0.0600 
    149 H149        0.6055  -21.1934  -42.0084 H         1 UNK         0.3000 
    150 H150       -1.1709  -18.4196  -43.4462 H         1 UNK         0.0600 
    151 H151       -2.1363  -18.7403  -41.1746 H         1 UNK         0.0600 
    152 H152       -0.8527  -17.5401  -41.1611 H         1 UNK         0.0600 
    153 H153       -0.5489  -19.1641  -40.5458 H         1 UNK         0.0600 
    154 H154        1.3037  -18.4857  -42.0870 H         1 UNK         0.3000 
    155 H155        3.3901  -19.1781  -44.9298 H         1 UNK         0.0600 
    156 H156        2.9783  -16.6895  -43.1907 H         1 UNK         0.0600 
    157 H157        4.4268  -17.0843  -44.1126 H         1 UNK         0.0600 
    158 H158        2.9230  -16.7317  -44.9487 H         1 UNK         0.0600 
    159 H159        3.8740  -18.7373  -42.1191 H         1 UNK         0.3000 
    160 H160        3.8566  -22.1649  -41.1662 H         1 UNK         0.0600 
    161 H161        6.1499  -20.1536  -41.4940 H         1 UNK         0.0600 
    162 H162        6.1112  -21.7776  -42.1705 H         1 UNK         0.0600 
    163 H163        6.1443  -21.5589  -40.4282 H         1 UNK         0.0600 
    164 H164        4.4232  -19.7284  -39.7592 H         1 UNK         0.3000 
    165 H165        1.0735  -19.1126  -38.6654 H         1 UNK         0.0600 
    166 H166        2.1772  -19.2776  -36.4638 H         1 UNK         0.0600 
    167 H167        1.9991  -20.8805  -37.1579 H         1 UNK         0.0600 
    168 H168        3.5700  -20.0881  -37.1810 H         1 UNK         0.0600 
    169 H169        3.4068  -17.7184  -37.9987 H         1 UNK         0.3000 
    170 H170        3.5446  -15.5526  -38.6445 H         1 UNK         0.0600 
    171 H171        4.5851  -16.0748  -41.4865 H         1 UNK         0.0600 
    172 H172        5.2476  -14.9119  -40.3408 H         1 UNK         0.0600 
    173 H173        5.3441  -16.6316  -40.0010 H         1 UNK         0.0600 
    174 H174        2.7545  -14.4709  -41.2366 H         1 UNK         0.3000 
    175 H175       -0.2592  -12.9862  -40.0373 H         1 UNK         0.0600 
    176 H176        0.8568  -10.8764  -40.7141 H         1 UNK         0.0600 
    177 H177        2.4382  -11.6482  -40.5999 H         1 UNK         0.0600 
    178 H178        1.4555  -11.4266  -39.1572 H         1 UNK         0.0600 
    179 H179        1.5261  -13.0756  -42.4178 H         1 UNK         0.3000 
    180 H180        0.7093  -13.5631  -44.3770 H         1 UNK         0.0600 
    181 H181       -0.9325  -16.1328  -44.1006 H         1 UNK         0.0600 
    182 H182        0.7591  -15.9978  -43.6547 H         1 UNK         0.0600 
    183 H183        0.2794  -15.7720  -45.3310 H         1 UNK         0.0600 
    184 H184       -1.9098  -14.2983  -45.2340 H         1 UNK         0.3000 
    185 H185       -3.7203  -12.2355  -45.4156 H         1 UNK         0.0600 
    186 H186       -2.9891   -9.8900  -45.6296 H         1 UNK         0.0600 
    187 H187       -1.9740  -10.2863  -47.0096 H         1 UNK         0.0600 
    188 H188       -3.7273  -10.4166  -47.1331 H         1 UNK         0.0600 
    189 H189       -3.6709  -13.5228  -47.2227 H         1 UNK         0.3000 
    190 H190       -0.1967  -20.2907  -45.9970 H         1 UNK         0.3000 
    191 H191       -1.7002  -19.7909  -48.2979 H         1 UNK         0.0600 
    192 H192       -1.1669  -18.0820  -46.5442 H         1 UNK         0.0600 
    193 H193       -2.8914  -18.1307  -46.8925 H         1 UNK         0.0600 
    194 H194       -2.2782  -18.8706  -45.4299 H         1 UNK         0.0600 
    195 H195       -2.7340  -21.4403  -45.2661 H         1 UNK         0.3000 
    196 H196       -5.4217  -21.9084  -46.0071 H         1 UNK         0.0600 
    197 H197       -5.3516  -23.6355  -44.2032 H         1 UNK         0.0600 
    198 H198       -4.5985  -22.1346  -43.6853 H         1 UNK         0.0600 
    199 H199       -3.5980  -23.5119  -44.1370 H         1 UNK         0.0600 
    200 H200       -2.4949  -23.9222  -46.5291 H         1 UNK         0.3000 
    201 H201       -3.8150  -26.0945  -47.8325 H         1 UNK         0.0600 
    202 H202       -1.5599  -26.2910  -46.8157 H         1 UNK         0.0600 
    203 H203       -0.8990  -25.1653  -47.9983 H         1 UNK         0.0600 
    204 H204       -1.5080  -26.7316  -48.5166 H         1 UNK         0.0600 
    205 H205       -2.2921  -23.1124  -49.0843 H         1 UNK         0.3000 
    206 H206       -2.7770  -23.7039  -51.8695 H         1 UNK         0.0600 
    207 H207       -0.8653  -22.3101  -51.0407 H         1 UNK         0.0600 
    208 H208       -1.8476  -21.4381  -52.2000 H         1 UNK         0.0600 
    209 H209       -1.9991  -21.0835  -50.4817 H         1 UNK         0.0600 
    210 H210       -4.9507  -22.8316  -49.4930 H         1 UNK         0.3000 
    211 H211       -6.9809  -21.9691  -49.3342 H         1 UNK         0.0600 
    212 H212       -7.2083  -22.3585  -52.3682 H         1 UNK         0.0600 
    213 H213       -8.5402  -22.1901  -51.2353 H         1 UNK         0.0600 
    214 H214       -7.5067  -23.6090  -51.1623 H         1 UNK         0.0600 
    215 H215       -5.0442  -20.1296  -49.2161 H         1 UNK         0.3000 
    216 H216       -4.4600  -18.0062  -49.2985 H         1 UNK         0.0600 
    217 H217       -6.1661  -16.2411  -49.4273 H         1 UNK         0.0600 
    218 H218       -6.7958  -17.5827  -48.4875 H         1 UNK         0.0600 
    219 H219       -7.3272  -17.3435  -50.1515 H         1 UNK         0.0600 
    220 H220       -3.8675  -19.5823  -51.4620 H         1 UNK         0.3000 
    221 H221       -2.7739  -19.5655  -53.3511 H         1 UNK         0.0600 
    222 H222       -3.1806  -16.5476  -53.6433 H         1 UNK         0.0600 
    223 H223       -1.8741  -17.2988  -52.7280 H         1 UNK         0.0600 
    224 H224       -1.9888  -17.5433  -54.4621 H         1 UNK         0.0600 
    225 H225       -5.9163  -19.5190  -53.1434 H         1 UNK         0.3000 
    226 H226       -6.6884  -19.0052  -55.9121 H         1 UNK         0.0600 
    227 H227       -8.2517  -18.6723  -53.9549 H         1 UNK         0.0600 
    228 H228       -8.8941  -19.7440  -55.1911 H         1 UNK         0.0600 
    229 H229       -8.2569  -20.4191  -53.7016 H         1 UNK         0.0600 
    230 H230       -5.3523  -21.7379  -54.1402 H         1 UNK         0.3000 
    231 H231       -5.6581  -23.4887  -56.5284 H         1 UNK         0.0600 
    232 H232       -6.3764  -24.2774  -53.6596 H         1 UNK         0.0600 
    233 H233       -6.3028  -25.3645  -55.0415 H         1 UNK         0.0600 
    234 H234       -7.5113  -24.0896  -54.9945 H         1 UNK         0.0600 
    235 H235       -2.1039  -23.4388  -55.6704 H         1 UNK         0.3000 
    236 H236       -4.0587  -21.7464  -57.0563 H         1 UNK         0.0600 
    237 H237       -4.2434  -23.9078  -58.3153 H         1 UNK         0.0600 
    238 H238       -3.4408  -22.6874  -59.2854 H         1 UNK         0.0600 
    239 H239       -2.4949  -23.9511  -58.5091 H         1 UNK         0.0600 
    240 H240       -0.7342  -22.6930  -56.3154 H         1 UNK         0.3000 
    241 H241        1.1762  -21.6278  -56.3082 H         1 UNK         0.0600 
    242 H242       -0.0110  -22.3393  -59.0881 H         1 UNK         0.3800 
    243 H243        1.0843  -21.4948  -60.1501 H         1 UNK         0.3800 
    244 H244        1.2254  -19.0814  -56.1453 H         1 UNK         0.0800 
    245 H245       -0.4922  -19.0679  -56.3910 H         1 UNK         0.0800 
    246 H246        2.4623  -19.8597  -53.9781 H         1 UNK         0.0800 
    247 H247        1.7484  -18.2655  -53.9378 H         1 UNK         0.0800 
@<TRIPOS>BOND
     1    1    2 1    
     2    1  127 1    
     3    1  128 1    
     4    1  129 1    
     5    2    3 2    
     6    2    4 am   BACKBONE|DICT|INTERRES
     7    4    5 1    
     8    4  130 1    
     9    5    6 1    
    10    5   65 1    
    11    5  131 1    
    12    6    7 1    
    13    6  132 1    
    14    6  133 1    
    15    7    8 1    
    16    8    9 1    
    17    8  134 1    
    18    8  135 1    
    19    9   10 ar   
    20    9   14 ar   
    21   10   11 ar   
    22   10  136 1    
    23   11   12 ar   
    24   11  126 1    
    25   12   13 ar   
    26   12  137 1    
    27   13   14 ar   
    28   13   15 1    
    29   14  138 1    
    30   15   16 1    
    31   15  139 1    
    32   15  140 1    
    33   16   17 1    
    34   17   18 1    
    35   17  141 1    
    36   17  142 1    
    37   18   19 1    
    38   18   67 1    
    39   18  143 1    
    40   19   20 am   BACKBONE|DICT|INTERRES
    41   19  144 1    
    42   20   21 2    
    43   20   22 1    
    44   22   23 1    
    45   22   24 1    
    46   22  145 1    
    47   23  146 1    
    48   23  147 1    
    49   23  148 1    
    50   24   25 am   BACKBONE|DICT|INTERRES
    51   24  149 1    
    52   25   26 2    
    53   25   27 1    
    54   27   28 1    
    55   27   29 1    
    56   27  150 1    
    57   28  151 1    
    58   28  152 1    
    59   28  153 1    
    60   29   30 am   BACKBONE|DICT|INTERRES
    61   29  154 1    
    62   30   31 2    
    63   30   32 1    
    64   32   33 1    
    65   32   34 1    
    66   32  155 1    
    67   33  156 1    
    68   33  157 1    
    69   33  158 1    
    70   34   35 am   BACKBONE|DICT|INTERRES
    71   34  159 1    
    72   35   36 2    
    73   35   37 1    
    74   37   38 1    
    75   37   39 1    
    76   37  160 1    
    77   38  161 1    
    78   38  162 1    
    79   38  163 1    
    80   39   40 am   BACKBONE|DICT|INTERRES
    81   39  164 1    
    82   40   41 2    
    83   40   42 1    
    84   42   43 1    
    85   42   44 1    
    86   42  165 1    
    87   43  166 1    
    88   43  167 1    
    89   43  168 1    
    90   44   45 am   BACKBONE|DICT|INTERRES
    91   44  169 1    
    92   45   46 2    
    93   45   47 1    
    94   47   48 1    
    95   47   49 1    
    96   47  170 1    
    97   48  171 1    
    98   48  172 1    
    99   48  173 1    
   100   49   50 am   BACKBONE|DICT|INTERRES
   101   49  174 1    
   102   50   51 2    
   103   50   52 1    
   104   52   53 1    
   105   52   54 1    
   106   52  175 1    
   107   53  176 1    
   108   53  177 1    
   109   53  178 1    
   110   54   55 am   BACKBONE|DICT|INTERRES
   111   54  179 1    
   112   55   56 2    
   113   55   57 1    
   114   57   58 1    
   115   57   59 1    
   116   57  180 1    
   117   58  181 1    
   118   58  182 1    
   119   58  183 1    
   120   59   60 am   BACKBONE|DICT|INTERRES
   121   59  184 1    
   122   60   61 2    
   123   60   62 1    
   124   62   63 1    
   125   62   64 1    
   126   62  185 1    
   127   63  186 1    
   128   63  187 1    
   129   63  188 1    
   130   64   65 am   BACKBONE|DICT|INTERRES
   131   64  189 1    
   132   65   66 2    
   133   67   68 2    
   134   67   69 am   BACKBONE|DICT|INTERRES
   135   69   70 1    
   136   69  190 1    
   137   70   71 1    
   138   70   72 1    
   139   70  191 1    
   140   71  192 1    
   141   71  193 1    
   142   71  194 1    
   143   72   73 2    
   144   72   74 am   BACKBONE|DICT|INTERRES
   145   74   75 1    
   146   74  195 1    
   147   75   76 1    
   148   75   77 1    
   149   75  196 1    
   150   76  197 1    
   151   76  198 1    
   152   76  199 1    
   153   77   78 2    
   154   77   79 am   BACKBONE|DICT|INTERRES
   155   79   80 1    
   156   79  200 1    
   157   80   81 1    
   158   80   82 1    
   159   80  201 1    
   160   81  202 1    
   161   81  203 1    
   162   81  204 1    
   163   82   83 2    
   164   82   84 am   BACKBONE|DICT|INTERRES
   165   84   85 1    
   166   84  205 1    
   167   85   86 1    
   168   85   87 1    
   169   85  206 1    
   170   86  207 1    
   171   86  208 1    
   172   86  209 1    
   173   87   88 2    
   174   87   89 am   BACKBONE|DICT|INTERRES
   175   89   90 1    
   176   89  210 1    
   177   90   91 1    
   178   90   92 1    
   179   90  211 1    
   180   91  212 1    
   181   91  213 1    
   182   91  214 1    
   183   92   93 2    
   184   92   94 am   BACKBONE|DICT|INTERRES
   185   94   95 1    
   186   94  215 1    
   187   95   96 1    
   188   95   97 1    
   189   95  216 1    
   190   96  217 1    
   191   96  218 1    
   192   96  219 1    
   193   97   98 2    
   194   97   99 am   BACKBONE|DICT|INTERRES
   195   99  100 1    
   196   99  220 1    
   197  100  101 1    
   198  100  102 1    
   199  100  221 1    
   200  101  222 1    
   201  101  223 1    
   202  101  224 1    
   203  102  103 2    
   204  102  104 am   BACKBONE|DICT|INTERRES
   205  104  105 1    
   206  104  225 1    
   207  105  106 1    
   208  105  107 1    
   209  105  226 1    
   210  106  227 1    
   211  106  228 1    
   212  106  229 1    
   213  107  108 2    
   214  107  109 am   BACKBONE|DICT|INTERRES
   215  109  110 1    
   216  109  230 1    
   217  110  111 1    
   218  110  112 1    
   219  110  231 1    
   220  111  232 1    
   221  111  233 1    
   222  111  234 1    
   223  112  113 2    
   224  112  114 am   BACKBONE|DICT|INTERRES
   225  114  115 1    
   226  114  235 1    
   227  115  116 1    
   228  115  117 1    
   229  115  236 1    
   230  116  237 1    
   231  116  238 1    
   232  116  239 1    
   233  117  118 2    
   234  117  119 am   BACKBONE|DICT|INTERRES
   235  119  120 1    
   236  119  240 1    
   237  120  121 1    
   238  120  124 1    
   239  120  241 1    
   240  121  122 am   BACKBONE|DICT|INTERRES
   241  121  123 2    
   242  122  242 1    
   243  122  243 1    
   244  124  125 1    
   245  124  244 1    
   246  124  245 1    
   247  125  126 1    
   248  126  246 1    
   249  126  247 1    
@<TRIPOS>SUBSTRUCTURE
     1 UNK         1 GROUP             0       ****    0 ROOT    
