@<TRIPOS>MOLECULE
3R540
247   249    1
SMALL
USER_CHARGES


@<TRIPOS>ATOM
      1 CA          4.6071  -11.7835  -51.9306 C.3       0 UNK        -0.1800 
      2 C           4.5229  -11.8326  -50.4121 C.2       0 UNK         0.5000 
      3 O           5.2832  -11.1449  -49.7301 O.2       0 UNK        -0.5000 
      4 N           3.5875  -12.6248  -49.8748 N.am      1 UNK        -0.5000 
      5 CA          3.3600  -12.8444  -48.4386 C.3       1 UNK         0.1400 
      6 C6          2.7354  -14.2371  -48.1593 C.3       23 UNK        -0.0398 
      7 S7          3.7571  -15.6191  -48.7817 S.3       23 UNK        -0.2404 
      8 C8          2.9106  -16.0579  -50.3356 C.3       23 UNK        -0.0205 
      9 C9          1.8211  -17.0993  -50.1253 C.ar      23 UNK        -0.0193 
     10 C10         0.5322  -16.7119  -49.7465 C.ar      23 UNK        -0.1150 
     11 C11        -0.4707  -17.6667  -49.5637 C.ar      23 UNK        -0.0193 
     12 C12        -0.1815  -19.0178  -49.7714 C.ar      23 UNK        -0.1150 
     13 C13         1.0941  -19.4172  -50.1793 C.ar      23 UNK        -0.0193 
     14 C14         2.0934  -18.4535  -50.3463 C.ar      23 UNK        -0.1150 
     15 C15         1.3781  -20.8858  -50.4675 C.3       23 UNK        -0.0205 
     16 S16         2.5869  -21.6253  -49.3201 S.3       23 UNK        -0.2404 
     17 C17         1.8142  -21.3360  -47.6933 C.3       23 UNK        -0.0398 
     18 CA          1.0175  -22.5421  -47.1440 C.3       11 UNK         0.1400 
     19 N           0.7687  -22.4062  -45.7076 N.am      11 UNK        -0.5000 
     20 C           0.2176  -23.3437  -44.9243 C.2       10 UNK         0.5000 
     21 O          -0.0803  -24.4728  -45.3135 O.2       10 UNK        -0.5000 
     22 CA         -0.1039  -22.9290  -43.4762 C.3       10 UNK         0.1400 
     23 CB          1.1484  -23.0106  -42.5912 C.3       10 UNK        -0.1800 
     24 N          -0.6766  -21.5837  -43.3950 N.am      10 UNK        -0.5000 
     25 C          -1.8517  -21.2236  -43.9311 C.2       9 UNK         0.5000 
     26 O          -2.6118  -22.0089  -44.4960 O.2       9 UNK        -0.5000 
     27 CA         -2.2111  -19.7273  -43.8800 C.3       9 UNK         0.1400 
     28 CB         -2.7906  -19.3387  -42.5116 C.3       9 UNK        -0.1800 
     29 N          -1.0635  -18.8759  -44.1968 N.am      9 UNK        -0.5000 
     30 C          -0.4790  -18.8197  -45.4024 C.2       8 UNK         0.5000 
     31 O          -0.8860  -19.4359  -46.3858 O.2       8 UNK        -0.5000 
     32 CA          0.8041  -17.9792  -45.5125 C.3       8 UNK         0.1400 
     33 CB          0.4710  -16.5061  -45.7917 C.3       8 UNK        -0.1800 
     34 N           1.6235  -18.0842  -44.3032 N.am      8 UNK        -0.5000 
     35 C           2.3195  -19.1806  -43.9646 C.2       7 UNK         0.5000 
     36 O           2.3554  -20.1985  -44.6533 O.2       7 UNK        -0.5000 
     37 CA          3.0614  -19.1647  -42.6137 C.3       7 UNK         0.1400 
     38 CB          4.4549  -18.5392  -42.7727 C.3       7 UNK        -0.1800 
     39 N           2.3311  -18.4523  -41.5665 N.am      7 UNK        -0.5000 
     40 C           1.1196  -18.7948  -41.1067 C.2       6 UNK         0.5000 
     41 O           0.5271  -19.8162  -41.4523 O.2       6 UNK        -0.5000 
     42 CA          0.4273  -17.8037  -40.1480 C.3       6 UNK         0.1400 
     43 CB          0.6100  -18.2524  -38.6909 C.3       6 UNK        -0.1800 
     44 N           0.8835  -16.4143  -40.2857 N.am      6 UNK        -0.5000 
     45 C           0.8178  -15.6864  -41.4094 C.2       5 UNK         0.5000 
     46 O           0.3720  -16.1201  -42.4745 O.2       5 UNK        -0.5000 
     47 CA          1.4288  -14.2746  -41.3384 C.3       5 UNK         0.1400 
     48 CB          2.9641  -14.3574  -41.2974 C.3       5 UNK        -0.1800 
     49 N           1.0503  -13.4418  -42.4779 N.am      5 UNK        -0.5000 
     50 C          -0.1680  -12.9323  -42.7007 C.2       4 UNK         0.5000 
     51 O          -1.1279  -13.0990  -41.9450 O.2       4 UNK        -0.5000 
     52 CA         -0.3113  -12.0698  -43.9754 C.3       4 UNK         0.1400 
     53 CB         -1.5851  -11.1996  -43.9774 C.3       4 UNK        -0.1800 
     54 N           0.8746  -11.2471  -44.2521 N.am      4 UNK        -0.5000 
     55 C           1.4265  -10.3213  -43.4470 C.2       3 UNK         0.5000 
     56 O           0.9862  -10.0235  -42.3361 O.2       3 UNK        -0.5000 
     57 CA          2.6975   -9.6101  -43.9564 C.3       3 UNK         0.1400 
     58 CB          3.9496  -10.2591  -43.3455 C.3       3 UNK        -0.1800 
     59 N           2.8267   -9.6167  -45.4138 N.am      3 UNK        -0.5000 
     60 C           2.0283   -8.9498  -46.2583 C.2       2 UNK         0.5000 
     61 O           1.1447   -8.1741  -45.8919 O.2       2 UNK        -0.5000 
     62 CA          2.2345   -9.2019  -47.7651 C.3       2 UNK         0.1400 
     63 CB          2.9906   -8.0290  -48.4081 C.3       2 UNK        -0.1800 
     64 N           2.9338  -10.4482  -48.0970 N.am      2 UNK        -0.5000 
     65 C           2.5229  -11.6949  -47.8253 C.2       1 UNK         0.5000 
     66 O           1.5309  -11.9432  -47.1366 O.2       1 UNK        -0.5000 
     67 C          -0.2932  -22.7754  -47.9237 C.2       11 UNK         0.5000 
     68 O          -0.3582  -23.7043  -48.7278 O.2       11 UNK        -0.5000 
     69 N          -1.3280  -21.9689  -47.6419 N.am      12 UNK        -0.5000 
     70 CA         -2.6643  -22.1159  -48.2189 C.3       12 UNK         0.1400 
     71 CB         -3.5569  -20.9365  -47.8120 C.3       12 UNK        -0.1800 
     72 C          -3.3292  -23.4551  -47.8621 C.2       12 UNK         0.5000 
     73 O          -3.9195  -24.0789  -48.7414 O.2       12 UNK        -0.5000 
     74 N          -3.1894  -23.8973  -46.6050 N.am      13 UNK        -0.5000 
     75 CA         -3.6674  -25.1967  -46.1302 C.3       13 UNK         0.1400 
     76 CB         -3.4986  -25.2921  -44.6066 C.3       13 UNK        -0.1800 
     77 C          -2.9790  -26.3768  -46.8413 C.2       13 UNK         0.5000 
     78 O          -3.6651  -27.3024  -47.2756 O.2       13 UNK        -0.5000 
     79 N          -1.6496  -26.2993  -47.0013 N.am      14 UNK        -0.5000 
     80 CA         -0.8413  -27.2691  -47.7477 C.3       14 UNK         0.1400 
     81 CB          0.6488  -26.9603  -47.5383 C.3       14 UNK        -0.1800 
     82 C          -1.1861  -27.3122  -49.2505 C.2       14 UNK         0.5000 
     83 O          -1.1790  -28.3880  -49.8491 O.2       14 UNK        -0.5000 
     84 N          -1.5230  -26.1474  -49.8177 N.am      15 UNK        -0.5000 
     85 CA         -1.9965  -25.9631  -51.1907 C.3       15 UNK         0.1400 
     86 CB         -1.7626  -24.4948  -51.5795 C.3       15 UNK        -0.1800 
     87 C          -3.4791  -26.3476  -51.3972 C.2       15 UNK         0.5000 
     88 O          -3.9728  -26.2340  -52.5205 O.2       15 UNK        -0.5000 
     89 N          -4.1727  -26.7580  -50.3225 N.am      16 UNK        -0.5000 
     90 CA         -5.5964  -27.1100  -50.2586 C.3       16 UNK         0.1400 
     91 CB         -5.8734  -28.4028  -51.0534 C.3       16 UNK        -0.1800 
     92 C          -6.5235  -25.9437  -50.6644 C.2       16 UNK         0.5000 
     93 O          -7.5741  -26.1668  -51.2697 O.2       16 UNK        -0.5000 
     94 N          -6.0941  -24.7152  -50.3421 N.am      17 UNK        -0.5000 
     95 CA         -6.6689  -23.4017  -50.6441 C.3       17 UNK         0.1400 
     96 CB         -8.0583  -23.2325  -50.0038 C.3       17 UNK        -0.1800 
     97 C          -6.6960  -23.0461  -52.1417 C.2       17 UNK         0.5000 
     98 O          -6.2650  -21.9524  -52.5059 O.2       17 UNK        -0.5000 
     99 N          -7.1951  -23.9623  -52.9782 N.am      18 UNK        -0.5000 
    100 CA        -7.4697  -23.7784  -54.4027 C.3       18 UNK         0.1400 
    101 CB        -8.1375  -25.0488  -54.9505 C.3       18 UNK        -0.1800 
    102 C         -6.2422  -23.4055  -55.2518 C.2       18 UNK         0.5000 
    103 O         -6.3643  -22.5621  -56.1409 O.2       18 UNK        -0.5000 
    104 N         -5.0872  -24.0251  -54.9689 N.am      19 UNK        -0.5000 
    105 CA        -3.8430  -23.7676  -55.6994 C.3       19 UNK         0.1400 
    106 CB        -2.9211  -24.9924  -55.6015 C.3       19 UNK        -0.1800 
    107 C         -3.1259  -22.4843  -55.2361 C.2       19 UNK         0.5000 
    108 O         -2.3498  -21.9213  -56.0093 O.2       19 UNK        -0.5000 
    109 N         -3.3965  -22.0379  -54.0015 N.am      20 UNK        -0.5000 
    110 CA        -2.8872  -20.7788  -53.4554 C.3       20 UNK         0.1400 
    111 CB        -2.7930  -20.8813  -51.9258 C.3       20 UNK        -0.1800 
    112 C         -3.7631  -19.5854  -53.8744 C.2       20 UNK         0.5000 
    113 O         -3.2279  -18.5365  -54.2329 O.2       20 UNK        -0.5000 
    114 N         -5.0901  -19.7815  -53.8293 N.am      21 UNK        -0.5000 
    115 CA        -6.1522  -18.8238  -54.1559 C.3       21 UNK         0.1400 
    116 CB        -6.1042  -18.4311  -55.6473 C.3       21 UNK        -0.1800 
    117 C         -6.1993  -17.6058  -53.2060 C.2       21 UNK         0.5000 
    118 O         -6.6437  -16.5284  -53.6069 O.2       21 UNK        -0.5000 
    119 N         -5.7548  -17.8018  -51.9575 N.am      22 UNK        -0.5000 
    120 CA        -5.7125  -16.7725  -50.9021 C.3       22 UNK         0.1400 
    121 C         -7.0764  -16.5206  -50.1931 C.2       22 UNK         0.5000 
    122 N         -8.1169  -17.3065  -50.4433 N.am      22 UNK        -0.7600 
    123 O         -7.1964  -15.5859  -49.4059 O.2       22 UNK        -0.5000 
    124 C124       -4.5946  -17.0556  -49.8640 C.3       23 UNK        -0.0398 
    125 S125       -2.9459  -17.1533  -50.6338 S.3       23 UNK        -0.2404 
    126 C126       -1.8745  -17.2414  -49.1684 C.3       23 UNK        -0.0205 
    127 H127        4.4257  -10.7683  -52.2837 H         1 UNK         0.0600 
    128 H128        3.8760  -12.4430  -52.3989 H         1 UNK         0.0600 
    129 H129        5.6002  -12.0884  -52.2606 H         1 UNK         0.0600 
    130 H130        2.9669  -13.1279  -50.4908 H         1 UNK         0.3000 
    131 H131        4.3271  -12.8203  -47.9317 H         1 UNK         0.0600 
    132 H132        2.6266  -14.3826  -47.0840 H         1 UNK         0.0800 
    133 H133        1.7298  -14.2974  -48.5737 H         1 UNK         0.0800 
    134 H134        2.4921  -15.1684  -50.8070 H         1 UNK         0.0800 
    135 H135        3.6552  -16.4415  -51.0348 H         1 UNK         0.0800 
    136 H136        0.3004  -15.6671  -49.6041 H         1 UNK         0.1150 
    137 H137       -0.9593  -19.7549  -49.6328 H         1 UNK         0.1150 
    138 H138        3.0825  -18.7605  -50.6564 H         1 UNK         0.1150 
    139 H139        0.4574  -21.4705  -50.4461 H         1 UNK         0.0800 
    140 H140        1.7642  -20.9752  -51.4837 H         1 UNK         0.0800 
    141 H141        1.2063  -20.4326  -47.7052 H         1 UNK         0.0800 
    142 H142        2.6425  -21.1179  -47.0198 H         1 UNK         0.0800 
    143 H143        1.6328  -23.4358  -47.2683 H         1 UNK         0.0600 
    144 H144        1.0455  -21.5249  -45.2868 H         1 UNK         0.3000 
    145 H145       -0.8432  -23.6306  -43.0848 H         1 UNK         0.0600 
    146 H146        1.5719  -24.0155  -42.6066 H         1 UNK         0.0600 
    147 H147        1.9244  -22.3217  -42.9249 H         1 UNK         0.0600 
    148 H148        0.9136  -22.7713  -41.5538 H         1 UNK         0.0600 
    149 H149       -0.1398  -20.8878  -42.8844 H         1 UNK         0.3000 
    150 H150       -2.9802  -19.5447  -44.6335 H         1 UNK         0.0600 
    151 H151       -3.0683  -18.2849  -42.4851 H         1 UNK         0.0600 
    152 H152       -2.0843  -19.5201  -41.7021 H         1 UNK         0.0600 
    153 H153       -3.6892  -19.9174  -42.2944 H         1 UNK         0.0600 
    154 H154       -0.6580  -18.3447  -43.4393 H         1 UNK         0.3000 
    155 H155        1.3861  -18.3562  -46.3564 H         1 UNK         0.0600 
    156 H156       -0.1990  -16.0885  -45.0399 H         1 UNK         0.0600 
    157 H157       -0.0179  -16.3968  -46.7598 H         1 UNK         0.0600 
    158 H158        1.3732  -15.8967  -45.8106 H         1 UNK         0.0600 
    159 H159        1.5586  -17.3128  -43.6488 H         1 UNK         0.3000 
    160 H160        3.1849  -20.2002  -42.2901 H         1 UNK         0.0600 
    161 H161        5.0324  -19.0625  -43.5360 H         1 UNK         0.0600 
    162 H162        4.3951  -17.4906  -43.0673 H         1 UNK         0.0600 
    163 H163        5.0213  -18.5956  -41.8429 H         1 UNK         0.0600 
    164 H164        2.7475  -17.6009  -41.2213 H         1 UNK         0.3000 
    165 H165       -0.6392  -17.8227  -40.3807 H         1 UNK         0.0600 
    166 H166        0.0454  -17.6173  -38.0080 H         1 UNK         0.0600 
    167 H167        0.2551  -19.2743  -38.5492 H         1 UNK         0.0600 
    168 H168        1.6578  -18.2240  -38.3894 H         1 UNK         0.0600 
    169 H169        1.2782  -15.9933  -39.4568 H         1 UNK         0.3000 
    170 H170        1.0743  -13.7913  -40.4257 H         1 UNK         0.0600 
    171 H171        3.4101  -13.3643  -41.2351 H         1 UNK         0.0600 
    172 H172        3.3094  -14.9176  -40.4277 H         1 UNK         0.0600 
    173 H173        3.3650  -14.8488  -42.1851 H         1 UNK         0.0600 
    174 H174        1.7686  -13.2657  -43.1634 H         1 UNK         0.3000 
    175 H175       -0.3931  -12.7725  -44.8061 H         1 UNK         0.0600 
    176 H176       -1.6004  -10.5019  -43.1396 H         1 UNK         0.0600 
    177 H177       -1.6635  -10.6202  -44.8974 H         1 UNK         0.0600 
    178 H178       -2.4813  -11.8169  -43.9062 H         1 UNK         0.0600 
    179 H179        1.2962  -11.4005  -45.1625 H         1 UNK         0.3000 
    180 H180        2.6507   -8.5714  -43.6227 H         1 UNK         0.0600 
    181 H181        3.9030  -10.2493  -42.2556 H         1 UNK         0.0600 
    182 H182        4.8536   -9.7229  -43.6349 H         1 UNK         0.0600 
    183 H183        4.0591  -11.2981  -43.6591 H         1 UNK         0.0600 
    184 H184        3.5353  -10.2183  -45.8066 H         1 UNK         0.3000 
    185 H185        1.2420   -9.2563  -48.2167 H         1 UNK         0.0600 
    186 H186        2.4846   -7.0820  -48.2152 H         1 UNK         0.0600 
    187 H187        4.0058   -7.9450  -48.0184 H         1 UNK         0.0600 
    188 H188        3.0549   -8.1464  -49.4901 H         1 UNK         0.0600 
    189 H189        3.7776  -10.3577  -48.6540 H         1 UNK         0.3000 
    190 H190       -1.1916  -21.1895  -47.0028 H         1 UNK         0.3000 
    191 H191       -2.5531  -22.0881  -49.3029 H         1 UNK         0.0600 
    192 H192       -3.6636  -20.8632  -46.7299 H         1 UNK         0.0600 
    193 H193       -4.5565  -21.0368  -48.2367 H         1 UNK         0.0600 
    194 H194       -3.1467  -19.9961  -48.1729 H         1 UNK         0.0600 
    195 H195       -2.7423  -23.2940  -45.9200 H         1 UNK         0.3000 
    196 H196       -4.7348  -25.2551  -46.3535 H         1 UNK         0.0600 
    197 H197       -3.8849  -26.2401  -44.2303 H         1 UNK         0.0600 
    198 H198       -4.0423  -24.4947  -44.0998 H         1 UNK         0.0600 
    199 H199       -2.4525  -25.2233  -44.3095 H         1 UNK         0.0600 
    200 H200       -1.1515  -25.5189  -46.5816 H         1 UNK         0.3000 
    201 H201       -1.0442  -28.2591  -47.3343 H         1 UNK         0.0600 
    202 H202        0.9141  -26.9988  -46.4816 H         1 UNK         0.0600 
    203 H203        0.9119  -25.9704  -47.9119 H         1 UNK         0.0600 
    204 H204        1.2754  -27.6856  -48.0587 H         1 UNK         0.0600 
    205 H205       -1.4255  -25.3014  -49.2641 H         1 UNK         0.3000 
    206 H206       -1.4010  -26.5933  -51.8540 H         1 UNK         0.0600 
    207 H207       -2.0328  -24.3026  -52.6160 H         1 UNK         0.0600 
    208 H208       -2.3587  -23.8266  -50.9600 H         1 UNK         0.0600 
    209 H209       -0.7153  -24.2150  -51.4636 H         1 UNK         0.0600 
    210 H210       -3.6867  -26.7841  -49.4348 H         1 UNK         0.3000 
    211 H211       -5.8113  -27.3148  -49.2091 H         1 UNK         0.0600 
    212 H212       -5.7403  -28.2560  -52.1256 H         1 UNK         0.0600 
    213 H213       -6.8958  -28.7478  -50.8954 H         1 UNK         0.0600 
    214 H214       -5.2085  -29.2075  -50.7396 H         1 UNK         0.0600 
    215 H215       -5.2120  -24.6593  -49.8335 H         1 UNK         0.3000 
    216 H216       -6.0033  -22.6797  -50.1682 H         1 UNK         0.0600 
    217 H217       -8.4345  -22.2199  -50.1552 H         1 UNK         0.0600 
    218 H218       -8.0186  -23.4068  -48.9285 H         1 UNK         0.0600 
    219 H219       -8.7918  -23.9185  -50.4279 H         1 UNK         0.0600 
    220 H220       -7.4881  -24.8444  -52.5648 H         1 UNK         0.3000 
    221 H221       -8.1838  -22.9569  -54.4886 H         1 UNK         0.0600 
    222 H222       -7.4900  -25.9202  -54.8437 H         1 UNK         0.0600 
    223 H223       -9.0709  -25.2598  -54.4283 H         1 UNK         0.0600 
    224 H224       -8.3751  -24.9420  -56.0098 H         1 UNK         0.0600 
    225 H225       -5.0557  -24.7091  -54.2235 H         1 UNK         0.3000 
    226 H226       -4.0822  -23.6321  -56.7566 H         1 UNK         0.0600 
    227 H227       -3.4013  -25.8787  -56.0165 H         1 UNK         0.0600 
    228 H228       -1.9981  -24.8323  -56.1600 H         1 UNK         0.0600 
    229 H229       -2.6454  -25.2164  -54.5735 H         1 UNK         0.0600 
    230 H230       -4.0821  -22.5339  -53.4511 H         1 UNK         0.3000 
    231 H231       -1.8791  -20.5989  -53.8357 H         1 UNK         0.0600 
    232 H232       -3.7383  -21.1838  -51.4743 H         1 UNK         0.0600 
    233 H233       -2.0281  -21.5990  -51.6338 H         1 UNK         0.0600 
    234 H234       -2.5107  -19.9242  -51.4895 H         1 UNK         0.0600 
    235 H235       -5.4279  -20.6721  -53.4689 H         1 UNK         0.3000 
    236 H236       -7.0883  -19.3598  -53.9941 H         1 UNK         0.0600 
    237 H237       -5.2292  -17.8238  -55.8798 H         1 UNK         0.0600 
    238 H238       -6.0795  -19.3151  -56.2850 H         1 UNK         0.0600 
    239 H239       -6.9857  -17.8542  -55.9288 H         1 UNK         0.0600 
    240 H240       -5.4002  -18.7134  -51.7112 H         1 UNK         0.3000 
    241 H241       -5.4625  -15.8243  -51.3823 H         1 UNK         0.0600 
    242 H242       -8.9954  -17.1283  -49.9822 H         1 UNK         0.3800 
    243 H243       -8.0367  -18.0738  -51.0905 H         1 UNK         0.3800 
    244 H244       -4.5649  -16.2689  -49.1078 H         1 UNK         0.0800 
    245 H245       -4.7908  -17.9892  -49.3340 H         1 UNK         0.0800 
    246 H246       -2.2798  -17.9454  -48.4427 H         1 UNK         0.0800 
    247 H247       -1.8575  -16.2688  -48.6746 H         1 UNK         0.0800 
@<TRIPOS>BOND
     1    1    2 1    
     2    1  127 1    
     3    1  128 1    
     4    1  129 1    
     5    2    3 2    
     6    2    4 am   BACKBONE|DICT|INTERRES
     7    4    5 1    
     8    4  130 1    
     9    5    6 1    
    10    5   65 1    
    11    5  131 1    
    12    6    7 1    
    13    6  132 1    
    14    6  133 1    
    15    7    8 1    
    16    8    9 1    
    17    8  134 1    
    18    8  135 1    
    19    9   10 ar   
    20    9   14 ar   
    21   10   11 ar   
    22   10  136 1    
    23   11   12 ar   
    24   11  126 1    
    25   12   13 ar   
    26   12  137 1    
    27   13   14 ar   
    28   13   15 1    
    29   14  138 1    
    30   15   16 1    
    31   15  139 1    
    32   15  140 1    
    33   16   17 1    
    34   17   18 1    
    35   17  141 1    
    36   17  142 1    
    37   18   19 1    
    38   18   67 1    
    39   18  143 1    
    40   19   20 am   BACKBONE|DICT|INTERRES
    41   19  144 1    
    42   20   21 2    
    43   20   22 1    
    44   22   23 1    
    45   22   24 1    
    46   22  145 1    
    47   23  146 1    
    48   23  147 1    
    49   23  148 1    
    50   24   25 am   BACKBONE|DICT|INTERRES
    51   24  149 1    
    52   25   26 2    
    53   25   27 1    
    54   27   28 1    
    55   27   29 1    
    56   27  150 1    
    57   28  151 1    
    58   28  152 1    
    59   28  153 1    
    60   29   30 am   BACKBONE|DICT|INTERRES
    61   29  154 1    
    62   30   31 2    
    63   30   32 1    
    64   32   33 1    
    65   32   34 1    
    66   32  155 1    
    67   33  156 1    
    68   33  157 1    
    69   33  158 1    
    70   34   35 am   BACKBONE|DICT|INTERRES
    71   34  159 1    
    72   35   36 2    
    73   35   37 1    
    74   37   38 1    
    75   37   39 1    
    76   37  160 1    
    77   38  161 1    
    78   38  162 1    
    79   38  163 1    
    80   39   40 am   BACKBONE|DICT|INTERRES
    81   39  164 1    
    82   40   41 2    
    83   40   42 1    
    84   42   43 1    
    85   42   44 1    
    86   42  165 1    
    87   43  166 1    
    88   43  167 1    
    89   43  168 1    
    90   44   45 am   BACKBONE|DICT|INTERRES
    91   44  169 1    
    92   45   46 2    
    93   45   47 1    
    94   47   48 1    
    95   47   49 1    
    96   47  170 1    
    97   48  171 1    
    98   48  172 1    
    99   48  173 1    
   100   49   50 am   BACKBONE|DICT|INTERRES
   101   49  174 1    
   102   50   51 2    
   103   50   52 1    
   104   52   53 1    
   105   52   54 1    
   106   52  175 1    
   107   53  176 1    
   108   53  177 1    
   109   53  178 1    
   110   54   55 am   BACKBONE|DICT|INTERRES
   111   54  179 1    
   112   55   56 2    
   113   55   57 1    
   114   57   58 1    
   115   57   59 1    
   116   57  180 1    
   117   58  181 1    
   118   58  182 1    
   119   58  183 1    
   120   59   60 am   BACKBONE|DICT|INTERRES
   121   59  184 1    
   122   60   61 2    
   123   60   62 1    
   124   62   63 1    
   125   62   64 1    
   126   62  185 1    
   127   63  186 1    
   128   63  187 1    
   129   63  188 1    
   130   64   65 am   BACKBONE|DICT|INTERRES
   131   64  189 1    
   132   65   66 2    
   133   67   68 2    
   134   67   69 am   BACKBONE|DICT|INTERRES
   135   69   70 1    
   136   69  190 1    
   137   70   71 1    
   138   70   72 1    
   139   70  191 1    
   140   71  192 1    
   141   71  193 1    
   142   71  194 1    
   143   72   73 2    
   144   72   74 am   BACKBONE|DICT|INTERRES
   145   74   75 1    
   146   74  195 1    
   147   75   76 1    
   148   75   77 1    
   149   75  196 1    
   150   76  197 1    
   151   76  198 1    
   152   76  199 1    
   153   77   78 2    
   154   77   79 am   BACKBONE|DICT|INTERRES
   155   79   80 1    
   156   79  200 1    
   157   80   81 1    
   158   80   82 1    
   159   80  201 1    
   160   81  202 1    
   161   81  203 1    
   162   81  204 1    
   163   82   83 2    
   164   82   84 am   BACKBONE|DICT|INTERRES
   165   84   85 1    
   166   84  205 1    
   167   85   86 1    
   168   85   87 1    
   169   85  206 1    
   170   86  207 1    
   171   86  208 1    
   172   86  209 1    
   173   87   88 2    
   174   87   89 am   BACKBONE|DICT|INTERRES
   175   89   90 1    
   176   89  210 1    
   177   90   91 1    
   178   90   92 1    
   179   90  211 1    
   180   91  212 1    
   181   91  213 1    
   182   91  214 1    
   183   92   93 2    
   184   92   94 am   BACKBONE|DICT|INTERRES
   185   94   95 1    
   186   94  215 1    
   187   95   96 1    
   188   95   97 1    
   189   95  216 1    
   190   96  217 1    
   191   96  218 1    
   192   96  219 1    
   193   97   98 2    
   194   97   99 am   BACKBONE|DICT|INTERRES
   195   99  100 1    
   196   99  220 1    
   197  100  101 1    
   198  100  102 1    
   199  100  221 1    
   200  101  222 1    
   201  101  223 1    
   202  101  224 1    
   203  102  103 2    
   204  102  104 am   BACKBONE|DICT|INTERRES
   205  104  105 1    
   206  104  225 1    
   207  105  106 1    
   208  105  107 1    
   209  105  226 1    
   210  106  227 1    
   211  106  228 1    
   212  106  229 1    
   213  107  108 2    
   214  107  109 am   BACKBONE|DICT|INTERRES
   215  109  110 1    
   216  109  230 1    
   217  110  111 1    
   218  110  112 1    
   219  110  231 1    
   220  111  232 1    
   221  111  233 1    
   222  111  234 1    
   223  112  113 2    
   224  112  114 am   BACKBONE|DICT|INTERRES
   225  114  115 1    
   226  114  235 1    
   227  115  116 1    
   228  115  117 1    
   229  115  236 1    
   230  116  237 1    
   231  116  238 1    
   232  116  239 1    
   233  117  118 2    
   234  117  119 am   BACKBONE|DICT|INTERRES
   235  119  120 1    
   236  119  240 1    
   237  120  121 1    
   238  120  124 1    
   239  120  241 1    
   240  121  122 am   BACKBONE|DICT|INTERRES
   241  121  123 2    
   242  122  242 1    
   243  122  243 1    
   244  124  125 1    
   245  124  244 1    
   246  124  245 1    
   247  125  126 1    
   248  126  246 1    
   249  126  247 1    
@<TRIPOS>SUBSTRUCTURE
     1 UNK         1 GROUP             0       ****    0 ROOT    
