@<TRIPOS>MOLECULE
3R540
247   249    1
SMALL
USER_CHARGES


@<TRIPOS>ATOM
      1 CA         -2.1650  -11.9475  -43.1334 C.3       0 UNK        -0.1800 
      2 C          -0.7090  -12.3226  -43.3625 C.2       0 UNK         0.5000 
      3 O           0.1692  -11.8539  -42.6383 O.2       0 UNK        -0.5000 
      4 N          -0.4446  -13.1879  -44.3504 N.am      1 UNK        -0.5000 
      5 CA          0.9041  -13.6261  -44.7411 C.3       1 UNK         0.1400 
      6 C6          0.9233  -14.4054  -46.0791 C.3       23 UNK        -0.0398 
      7 S7          0.0658  -13.5214  -47.4296 S.3       23 UNK        -0.2404 
      8 C8         -1.4593  -14.5071  -47.6144 C.3       23 UNK        -0.0205 
      9 C9         -1.4278  -15.4079  -48.8423 C.ar      23 UNK        -0.0193 
     10 C10        -2.3973  -15.2666  -49.8380 C.ar      23 UNK        -0.1150 
     11 C11        -2.3818  -16.0851  -50.9707 C.ar      23 UNK        -0.0193 
     12 C12        -1.3864  -17.0583  -51.1051 C.ar      23 UNK        -0.1150 
     13 C13        -0.4080  -17.2089  -50.1174 C.ar      23 UNK        -0.0193 
     14 C14        -0.4400  -16.3852  -48.9889 C.ar      23 UNK        -0.1150 
     15 C15         0.7187  -18.2175  -50.2884 C.3       23 UNK        -0.0205 
     16 S16         0.6584  -19.5549  -49.0556 S.3       23 UNK        -0.2404 
     17 C17        -0.6852  -20.6064  -49.6934 C.3       23 UNK        -0.0398 
     18 CA         -1.7264  -20.9181  -48.5966 C.3       11 UNK         0.1400 
     19 N          -2.4231  -19.7148  -48.1241 N.am      11 UNK        -0.5000 
     20 C          -3.3292  -19.6951  -47.1396 C.2       10 UNK         0.5000 
     21 O          -3.7379  -20.7115  -46.5709 O.2       10 UNK        -0.5000 
     22 CA         -3.9067  -18.3226  -46.7628 C.3       10 UNK         0.1400 
     23 CB         -5.0108  -17.9321  -47.7571 C.3       10 UNK        -0.1800 
     24 N          -4.4926  -18.4044  -45.4231 N.am      10 UNK        -0.5000 
     25 C          -4.0138  -17.9530  -44.2560 C.2       9 UNK         0.5000 
     26 O          -4.5484  -18.2749  -43.1952 O.2       9 UNK        -0.5000 
     27 CA         -2.7701  -17.0417  -44.2063 C.3       9 UNK         0.1400 
     28 CB         -2.8562  -16.0298  -43.0480 C.3       9 UNK        -0.1800 
     29 N          -1.5768  -17.8644  -44.0144 N.am      9 UNK        -0.5000 
     30 C          -0.6384  -18.0781  -44.9414 C.2       8 UNK         0.5000 
     31 O          -0.6963  -17.6267  -46.0844 O.2       8 UNK        -0.5000 
     32 CA          0.5588  -18.9504  -44.5371 C.3       8 UNK         0.1400 
     33 CB          0.2378  -20.4327  -44.7748 C.3       8 UNK        -0.1800 
     34 N           1.7101  -18.5772  -45.3569 N.am      8 UNK        -0.5000 
     35 C           2.8412  -18.0220  -44.9073 C.2       7 UNK         0.5000 
     36 O           3.0914  -17.8589  -43.7125 O.2       7 UNK        -0.5000 
     37 CA          3.8706  -17.5578  -45.9551 C.3       7 UNK         0.1400 
     38 CB          3.2960  -17.4311  -47.3844 C.3       7 UNK        -0.1800 
     39 N           4.4482  -16.2889  -45.5164 N.am      7 UNK        -0.5000 
     40 C           5.5657  -15.7323  -46.0016 C.2       6 UNK         0.5000 
     41 O           6.2685  -16.2493  -46.8708 O.2       6 UNK        -0.5000 
     42 CA          5.9708  -14.3669  -45.4246 C.3       6 UNK         0.1400 
     43 CB          5.2631  -13.2342  -46.1857 C.3       6 UNK        -0.1800 
     44 N           5.6338  -14.2577  -44.0098 N.am      6 UNK        -0.5000 
     45 C           6.4550  -14.5368  -42.9915 C.2       5 UNK         0.5000 
     46 O           7.6105  -14.9404  -43.1359 O.2       5 UNK        -0.5000 
     47 CA          5.8750  -14.3138  -41.5777 C.3       5 UNK         0.1400 
     48 CB          6.9602  -14.1437  -40.4947 C.3       5 UNK        -0.1800 
     49 N           4.9067  -13.2116  -41.5293 N.am      5 UNK        -0.5000 
     50 C           5.1174  -11.9127  -41.7989 C.2       4 UNK         0.5000 
     51 O           6.2197  -11.4353  -42.0696 O.2       4 UNK        -0.5000 
     52 CA          3.8809  -10.9878  -41.7954 C.3       4 UNK         0.1400 
     53 CB          3.4894  -10.6266  -43.2369 C.3       4 UNK        -0.1800 
     54 N           2.7173  -11.5774  -41.1308 N.am      4 UNK        -0.5000 
     55 C           2.5965  -11.7577  -39.8084 C.2       3 UNK         0.5000 
     56 O           3.4122  -11.3489  -38.9816 O.2       3 UNK        -0.5000 
     57 CA          1.3852  -12.5848  -39.3431 C.3       3 UNK         0.1400 
     58 CB          0.1534  -11.6904  -39.1355 C.3       3 UNK        -0.1800 
     59 N           1.0614  -13.6580  -40.2874 N.am      3 UNK        -0.5000 
     60 C           1.7985  -14.7654  -40.4582 C.2       2 UNK         0.5000 
     61 O           2.8213  -15.0095  -39.8196 O.2       2 UNK        -0.5000 
     62 CA          1.3331  -15.7508  -41.5436 C.3       2 UNK         0.1400 
     63 CB          0.2347  -16.6689  -40.9871 C.3       2 UNK        -0.1800 
     64 N           0.8431  -15.0704  -42.7433 N.am      2 UNK        -0.5000 
     65 C           1.6181  -14.4316  -43.6328 C.2       1 UNK         0.5000 
     66 O           2.8483  -14.4352  -43.5937 O.2       1 UNK        -0.5000 
     67 C          -2.6753  -22.0436  -49.0544 C.2       11 UNK         0.5000 
     68 O          -2.3933  -23.2073  -48.7773 O.2       11 UNK        -0.5000 
     69 N          -3.8009  -21.6832  -49.6881 N.am      12 UNK        -0.5000 
     70 CA         -4.8338  -22.6208  -50.1415 C.3       12 UNK         0.1400 
     71 CB         -5.8401  -21.8719  -51.0243 C.3       12 UNK        -0.1800 
     72 C          -5.5652  -23.3557  -49.0001 C.2       12 UNK         0.5000 
     73 O          -6.0831  -24.4499  -49.2249 O.2       12 UNK        -0.5000 
     74 N          -5.5984  -22.7535  -47.8025 N.am      13 UNK        -0.5000 
     75 CA         -6.1306  -23.3794  -46.5926 C.3       13 UNK         0.1400 
     76 CB         -6.6218  -22.2917  -45.6242 C.3       13 UNK        -0.1800 
     77 C          -5.0788  -24.2779  -45.9179 C.2       13 UNK         0.5000 
     78 O          -5.4434  -25.2901  -45.3188 O.2       13 UNK        -0.5000 
     79 N          -3.7978  -23.8978  -46.0287 N.am      14 UNK        -0.5000 
     80 CA         -2.6600  -24.6431  -45.4924 C.3       14 UNK         0.1400 
     81 CB         -1.4295  -23.7257  -45.4328 C.3       14 UNK        -0.1800 
     82 C          -2.3564  -25.9237  -46.2921 C.2       14 UNK         0.5000 
     83 O          -2.0520  -26.9516  -45.6850 O.2       14 UNK        -0.5000 
     84 N          -2.4551  -25.8507  -47.6252 N.am      15 UNK        -0.5000 
     85 CA         -2.2465  -26.9686  -48.5381 C.3       15 UNK         0.1400 
     86 CB         -0.7788  -26.9972  -48.9971 C.3       15 UNK        -0.1800 
     87 C          -3.1898  -26.8267  -49.7374 C.2       15 UNK         0.5000 
     88 O          -3.2079  -25.7756  -50.3788 O.2       15 UNK        -0.5000 
     89 N          -3.9196  -27.9031  -50.0587 N.am      16 UNK        -0.5000 
     90 CA         -4.8846  -27.9607  -51.1631 C.3       16 UNK         0.1400 
     91 CB         -5.6458  -29.2930  -51.0965 C.3       16 UNK        -0.1800 
     92 C          -4.2576  -27.7677  -52.5585 C.2       16 UNK         0.5000 
     93 O          -4.9462  -27.3243  -53.4762 O.2       16 UNK        -0.5000 
     94 N          -2.9562  -28.0607  -52.6909 N.am      17 UNK        -0.5000 
     95 CA         -2.1619  -27.8303  -53.8999 C.3       17 UNK         0.1400 
     96 CB         -0.7719  -28.4555  -53.7082 C.3       17 UNK        -0.1800 
     97 C          -2.0334  -26.3399  -54.2787 C.2       17 UNK         0.5000 
     98 O          -1.8601  -26.0286  -55.4573 O.2       17 UNK        -0.5000 
     99 N          -2.1467  -25.4451  -53.2867 N.am      18 UNK        -0.5000 
    100 CA        -2.0950  -23.9945  -53.4623 C.3       18 UNK         0.1400 
    101 CB        -1.4493  -23.3615  -52.2235 C.3       18 UNK        -0.1800 
    102 C         -3.4698  -23.3711  -53.7757 C.2       18 UNK         0.5000 
    103 O         -3.5633  -22.1464  -53.8691 O.2       18 UNK        -0.5000 
    104 N         -4.5117  -24.1903  -53.9921 N.am      19 UNK        -0.5000 
    105 CA        -5.8310  -23.7423  -54.4568 C.3       19 UNK         0.1400 
    106 CB        -6.8107  -24.9228  -54.4607 C.3       19 UNK        -0.1800 
    107 C         -5.7942  -23.0607  -55.8409 C.2       19 UNK         0.5000 
    108 O         -6.6358  -22.2079  -56.1198 O.2       19 UNK        -0.5000 
    109 N         -4.7862  -23.3920  -56.6587 N.am      20 UNK        -0.5000 
    110 CA        -4.4816  -22.7074  -57.9153 C.3       20 UNK         0.1400 
    111 CB        -3.4654  -23.5503  -58.7011 C.3       20 UNK        -0.1800 
    112 C         -3.9505  -21.2701  -57.7190 C.2       20 UNK         0.5000 
    113 O         -4.0681  -20.4600  -58.6393 O.2       20 UNK        -0.5000 
    114 N         -3.3706  -20.9803  -56.5449 N.am      21 UNK        -0.5000 
    115 CA        -2.7861  -19.6852  -56.2009 C.3       21 UNK         0.1400 
    116 CB        -1.4813  -19.9109  -55.4186 C.3       21 UNK        -0.1800 
    117 C         -3.7467  -18.8032  -55.3854 C.2       21 UNK         0.5000 
    118 O         -3.7049  -17.5828  -55.5470 O.2       21 UNK        -0.5000 
    119 N         -4.5727  -19.4102  -54.5202 N.am      22 UNK        -0.5000 
    120 CA        -5.4337  -18.6844  -53.5682 C.3       22 UNK         0.1400 
    121 C         -6.8510  -19.2914  -53.3583 C.2       22 UNK         0.5000 
    122 N         -7.3020  -20.2484  -54.1558 N.am      22 UNK        -0.7600 
    123 O         -7.5773  -18.8776  -52.4596 O.2       22 UNK        -0.5000 
    124 C124       -4.6886  -18.3980  -52.2309 C.3       23 UNK        -0.0398 
    125 S125       -4.9947  -16.7059  -51.6239 S.3       23 UNK        -0.2404 
    126 C126       -3.4302  -15.8858  -52.0537 C.3       23 UNK        -0.0205 
    127 H127       -2.4630  -12.2078  -42.1178 H         1 UNK         0.0600 
    128 H128       -2.8305  -12.4626  -43.8265 H         1 UNK         0.0600 
    129 H129       -2.2993  -10.8740  -43.2648 H         1 UNK         0.0600 
    130 H130       -1.1980  -13.5124  -44.9379 H         1 UNK         0.3000 
    131 H131        1.4929  -12.7192  -44.8915 H         1 UNK         0.0600 
    132 H132        1.9539  -14.5657  -46.3998 H         1 UNK         0.0800 
    133 H133        0.4950  -15.3980  -45.9552 H         1 UNK         0.0800 
    134 H134       -1.6387  -15.1155  -46.7294 H         1 UNK         0.0800 
    135 H135       -2.2998  -13.8143  -47.6763 H         1 UNK         0.0800 
    136 H136       -3.1672  -14.5143  -49.7375 H         1 UNK         0.1150 
    137 H137       -1.3600  -17.6814  -51.9879 H         1 UNK         0.1150 
    138 H138        0.3143  -16.4983  -48.2253 H         1 UNK         0.1150 
    139 H139        0.7172  -18.6453  -51.2921 H         1 UNK         0.0800 
    140 H140        1.6707  -17.6949  -50.1846 H         1 UNK         0.0800 
    141 H141       -0.2240  -21.5250  -50.0615 H         1 UNK         0.0800 
    142 H142       -1.1616  -20.1344  -50.5543 H         1 UNK         0.0800 
    143 H143       -1.1870  -21.3176  -47.7363 H         1 UNK         0.0600 
    144 H144       -2.1058  -18.8395  -48.5178 H         1 UNK         0.3000 
    145 H145       -3.1175  -17.5791  -46.8362 H         1 UNK         0.0600 
    146 H146       -5.4472  -16.9668  -47.5003 H         1 UNK         0.0600 
    147 H147       -4.6133  -17.8451  -48.7690 H         1 UNK         0.0600 
    148 H148       -5.8160  -18.6678  -47.7814 H         1 UNK         0.0600 
    149 H149       -5.2711  -19.0440  -45.3688 H         1 UNK         0.3000 
    150 H150       -2.7102  -16.4446  -45.1139 H         1 UNK         0.0600 
    151 H151       -2.8679  -16.5211  -42.0742 H         1 UNK         0.0600 
    152 H152       -3.7628  -15.4279  -43.1229 H         1 UNK         0.0600 
    153 H153       -2.0128  -15.3423  -43.0628 H         1 UNK         0.0600 
    154 H154       -1.5096  -18.3350  -43.1232 H         1 UNK         0.3000 
    155 H155        0.7680  -18.7968  -43.4772 H         1 UNK         0.0600 
    156 H156        0.0074  -20.6312  -45.8216 H         1 UNK         0.0600 
    157 H157       -0.6220  -20.7453  -44.1815 H         1 UNK         0.0600 
    158 H158        1.0773  -21.0677  -44.4917 H         1 UNK         0.0600 
    159 H159        1.5446  -18.6070  -46.3542 H         1 UNK         0.3000 
    160 H160        4.6641  -18.3075  -45.9652 H         1 UNK         0.0600 
    161 H161        2.4480  -16.7488  -47.4204 H         1 UNK         0.0600 
    162 H162        2.9712  -18.4003  -47.7598 H         1 UNK         0.0600 
    163 H163        4.0400  -17.0657  -48.0914 H         1 UNK         0.0600 
    164 H164        3.9658  -15.8368  -44.7469 H         1 UNK         0.3000 
    165 H165        7.0479  -14.2468  -45.5597 H         1 UNK         0.0600 
    166 H166        5.4942  -13.2746  -47.2509 H         1 UNK         0.0600 
    167 H167        4.1790  -13.2919  -46.0811 H         1 UNK         0.0600 
    168 H168        5.5813  -12.2576  -45.8201 H         1 UNK         0.0600 
    169 H169        4.6721  -14.0144  -43.7902 H         1 UNK         0.3000 
    170 H170        5.3127  -15.2178  -41.3396 H         1 UNK         0.0600 
    171 H171        7.5901  -15.0316  -40.4299 H         1 UNK         0.0600 
    172 H172        7.6126  -13.2953  -40.7026 H         1 UNK         0.0600 
    173 H173        6.5137  -13.9917  -39.5120 H         1 UNK         0.0600 
    174 H174        3.9578  -13.4896  -41.3222 H         1 UNK         0.3000 
    175 H175        4.1519  -10.0701  -41.2695 H         1 UNK         0.0600 
    176 H176        2.6193   -9.9701  -43.2596 H         1 UNK         0.0600 
    177 H177        4.3032  -10.1070  -43.7444 H         1 UNK         0.0600 
    178 H178        3.2554  -11.5157  -43.8222 H         1 UNK         0.0600 
    179 H179        1.9501  -11.8737  -41.7265 H         1 UNK         0.3000 
    180 H180        1.6398  -13.0382  -38.3826 H         1 UNK         0.0600 
    181 H181       -0.1524  -11.1979  -40.0588 H         1 UNK         0.0600 
    182 H182        0.3597  -10.9099  -38.4021 H         1 UNK         0.0600 
    183 H183       -0.6947  -12.2669  -38.7658 H         1 UNK         0.0600 
    184 H184        0.2693  -13.4979  -40.8922 H         1 UNK         0.3000 
    185 H185        2.1905  -16.3679  -41.8153 H         1 UNK         0.0600 
    186 H186        0.5756  -17.1822  -40.0869 H         1 UNK         0.0600 
    187 H187       -0.6655  -16.1120  -40.7249 H         1 UNK         0.0600 
    188 H188       -0.0414  -17.4365  -41.7063 H         1 UNK         0.0600 
    189 H189       -0.1567  -15.0094  -42.8557 H         1 UNK         0.3000 
    190 H190       -3.9716  -20.7026  -49.8484 H         1 UNK         0.3000 
    191 H191       -4.3514  -23.3827  -50.7557 H         1 UNK         0.0600 
    192 H192       -5.3529  -21.4667  -51.9099 H         1 UNK         0.0600 
    193 H193       -6.6316  -22.5384  -51.3691 H         1 UNK         0.0600 
    194 H194       -6.3158  -21.0493  -50.4890 H         1 UNK         0.0600 
    195 H195       -5.1157  -21.8722  -47.6773 H         1 UNK         0.3000 
    196 H196       -6.9879  -24.0030  -46.8553 H         1 UNK         0.0600 
    197 H197       -7.0938  -22.7387  -44.7484 H         1 UNK         0.0600 
    198 H198       -7.3612  -21.6457  -46.0977 H         1 UNK         0.0600 
    199 H199       -5.8056  -21.6638  -45.2671 H         1 UNK         0.0600 
    200 H200       -3.5886  -23.0447  -46.5295 H         1 UNK         0.3000 
    201 H201       -2.9033  -24.9398  -44.4699 H         1 UNK         0.0600 
    202 H202       -0.5884  -24.2334  -44.9594 H         1 UNK         0.0600 
    203 H203       -1.1053  -23.4143  -46.4254 H         1 UNK         0.0600 
    204 H204       -1.6394  -22.8292  -44.8504 H         1 UNK         0.0600 
    205 H205       -2.6718  -24.9593  -48.0682 H         1 UNK         0.3000 
    206 H206       -2.4744  -27.9079  -48.0296 H         1 UNK         0.0600 
    207 H207       -0.1045  -27.1403  -48.1527 H         1 UNK         0.0600 
    208 H208       -0.6023  -27.8143  -49.6975 H         1 UNK         0.0600 
    209 H209       -0.4978  -26.0682  -49.4955 H         1 UNK         0.0600 
    210 H210       -3.8380  -28.7367  -49.4944 H         1 UNK         0.3000 
    211 H211       -5.6011  -27.1491  -51.0178 H         1 UNK         0.0600 
    212 H212       -4.9750  -30.1458  -51.2079 H         1 UNK         0.0600 
    213 H213       -6.3924  -29.3566  -51.8894 H         1 UNK         0.0600 
    214 H214       -6.1726  -29.3999  -50.1480 H         1 UNK         0.0600 
    215 H215       -2.4661  -28.4248  -51.8875 H         1 UNK         0.3000 
    216 H216       -2.6571  -28.3387  -54.7298 H         1 UNK         0.0600 
    217 H217       -0.1582  -28.3253  -54.6006 H         1 UNK         0.0600 
    218 H218       -0.8433  -29.5267  -53.5185 H         1 UNK         0.0600 
    219 H219       -0.2379  -28.0003  -52.8730 H         1 UNK         0.0600 
    220 H220       -2.3436  -25.7705  -52.3465 H         1 UNK         0.3000 
    221 H221       -1.4541  -23.7577  -54.3140 H         1 UNK         0.0600 
    222 H222       -1.9928  -23.6302  -51.3218 H         1 UNK         0.0600 
    223 H223       -0.4201  -23.6988  -52.1016 H         1 UNK         0.0600 
    224 H224       -1.4291  -22.2732  -52.2921 H         1 UNK         0.0600 
    225 H225       -4.3850  -25.1894  -53.8875 H         1 UNK         0.3000 
    226 H226       -6.1996  -23.0023  -53.7452 H         1 UNK         0.0600 
    227 H227       -7.8043  -24.6060  -54.7801 H         1 UNK         0.0600 
    228 H228       -6.4842  -25.7136  -55.1371 H         1 UNK         0.0600 
    229 H229       -6.9131  -25.3521  -53.4639 H         1 UNK         0.0600 
    230 H230       -4.1412  -24.1108  -56.3634 H         1 UNK         0.3000 
    231 H231       -5.4001  -22.6424  -58.5025 H         1 UNK         0.0600 
    232 H232       -2.5301  -23.6678  -58.1521 H         1 UNK         0.0600 
    233 H233       -3.2283  -23.0853  -59.6589 H         1 UNK         0.0600 
    234 H234       -3.8577  -24.5452  -58.9129 H         1 UNK         0.0600 
    235 H235       -3.3601  -21.6785  -55.8118 H         1 UNK         0.3000 
    236 H236       -2.5318  -19.1408  -57.1129 H         1 UNK         0.0600 
    237 H237       -0.7751  -20.5090  -55.9946 H         1 UNK         0.0600 
    238 H238       -0.9942  -18.9612  -55.1934 H         1 UNK         0.0600 
    239 H239       -1.6552  -20.4193  -54.4700 H         1 UNK         0.0600 
    240 H240       -4.5025  -20.4137  -54.3933 H         1 UNK         0.3000 
    241 H241       -5.6695  -17.7256  -54.0336 H         1 UNK         0.0600 
    242 H242       -6.7766  -20.6097  -54.9423 H         1 UNK         0.3800 
    243 H243       -8.2313  -20.6020  -53.9954 H         1 UNK         0.3800 
    244 H244       -3.6139  -18.5378  -52.3473 H         1 UNK         0.0800 
    245 H245       -4.9800  -19.1003  -51.4501 H         1 UNK         0.0800 
    246 H246       -3.6190  -14.8189  -52.1810 H         1 UNK         0.0800 
    247 H247       -3.0699  -16.2442  -53.0196 H         1 UNK         0.0800 
@<TRIPOS>BOND
     1    1    2 1    
     2    1  127 1    
     3    1  128 1    
     4    1  129 1    
     5    2    3 2    
     6    2    4 am   BACKBONE|DICT|INTERRES
     7    4    5 1    
     8    4  130 1    
     9    5    6 1    
    10    5   65 1    
    11    5  131 1    
    12    6    7 1    
    13    6  132 1    
    14    6  133 1    
    15    7    8 1    
    16    8    9 1    
    17    8  134 1    
    18    8  135 1    
    19    9   10 ar   
    20    9   14 ar   
    21   10   11 ar   
    22   10  136 1    
    23   11   12 ar   
    24   11  126 1    
    25   12   13 ar   
    26   12  137 1    
    27   13   14 ar   
    28   13   15 1    
    29   14  138 1    
    30   15   16 1    
    31   15  139 1    
    32   15  140 1    
    33   16   17 1    
    34   17   18 1    
    35   17  141 1    
    36   17  142 1    
    37   18   19 1    
    38   18   67 1    
    39   18  143 1    
    40   19   20 am   BACKBONE|DICT|INTERRES
    41   19  144 1    
    42   20   21 2    
    43   20   22 1    
    44   22   23 1    
    45   22   24 1    
    46   22  145 1    
    47   23  146 1    
    48   23  147 1    
    49   23  148 1    
    50   24   25 am   BACKBONE|DICT|INTERRES
    51   24  149 1    
    52   25   26 2    
    53   25   27 1    
    54   27   28 1    
    55   27   29 1    
    56   27  150 1    
    57   28  151 1    
    58   28  152 1    
    59   28  153 1    
    60   29   30 am   BACKBONE|DICT|INTERRES
    61   29  154 1    
    62   30   31 2    
    63   30   32 1    
    64   32   33 1    
    65   32   34 1    
    66   32  155 1    
    67   33  156 1    
    68   33  157 1    
    69   33  158 1    
    70   34   35 am   BACKBONE|DICT|INTERRES
    71   34  159 1    
    72   35   36 2    
    73   35   37 1    
    74   37   38 1    
    75   37   39 1    
    76   37  160 1    
    77   38  161 1    
    78   38  162 1    
    79   38  163 1    
    80   39   40 am   BACKBONE|DICT|INTERRES
    81   39  164 1    
    82   40   41 2    
    83   40   42 1    
    84   42   43 1    
    85   42   44 1    
    86   42  165 1    
    87   43  166 1    
    88   43  167 1    
    89   43  168 1    
    90   44   45 am   BACKBONE|DICT|INTERRES
    91   44  169 1    
    92   45   46 2    
    93   45   47 1    
    94   47   48 1    
    95   47   49 1    
    96   47  170 1    
    97   48  171 1    
    98   48  172 1    
    99   48  173 1    
   100   49   50 am   BACKBONE|DICT|INTERRES
   101   49  174 1    
   102   50   51 2    
   103   50   52 1    
   104   52   53 1    
   105   52   54 1    
   106   52  175 1    
   107   53  176 1    
   108   53  177 1    
   109   53  178 1    
   110   54   55 am   BACKBONE|DICT|INTERRES
   111   54  179 1    
   112   55   56 2    
   113   55   57 1    
   114   57   58 1    
   115   57   59 1    
   116   57  180 1    
   117   58  181 1    
   118   58  182 1    
   119   58  183 1    
   120   59   60 am   BACKBONE|DICT|INTERRES
   121   59  184 1    
   122   60   61 2    
   123   60   62 1    
   124   62   63 1    
   125   62   64 1    
   126   62  185 1    
   127   63  186 1    
   128   63  187 1    
   129   63  188 1    
   130   64   65 am   BACKBONE|DICT|INTERRES
   131   64  189 1    
   132   65   66 2    
   133   67   68 2    
   134   67   69 am   BACKBONE|DICT|INTERRES
   135   69   70 1    
   136   69  190 1    
   137   70   71 1    
   138   70   72 1    
   139   70  191 1    
   140   71  192 1    
   141   71  193 1    
   142   71  194 1    
   143   72   73 2    
   144   72   74 am   BACKBONE|DICT|INTERRES
   145   74   75 1    
   146   74  195 1    
   147   75   76 1    
   148   75   77 1    
   149   75  196 1    
   150   76  197 1    
   151   76  198 1    
   152   76  199 1    
   153   77   78 2    
   154   77   79 am   BACKBONE|DICT|INTERRES
   155   79   80 1    
   156   79  200 1    
   157   80   81 1    
   158   80   82 1    
   159   80  201 1    
   160   81  202 1    
   161   81  203 1    
   162   81  204 1    
   163   82   83 2    
   164   82   84 am   BACKBONE|DICT|INTERRES
   165   84   85 1    
   166   84  205 1    
   167   85   86 1    
   168   85   87 1    
   169   85  206 1    
   170   86  207 1    
   171   86  208 1    
   172   86  209 1    
   173   87   88 2    
   174   87   89 am   BACKBONE|DICT|INTERRES
   175   89   90 1    
   176   89  210 1    
   177   90   91 1    
   178   90   92 1    
   179   90  211 1    
   180   91  212 1    
   181   91  213 1    
   182   91  214 1    
   183   92   93 2    
   184   92   94 am   BACKBONE|DICT|INTERRES
   185   94   95 1    
   186   94  215 1    
   187   95   96 1    
   188   95   97 1    
   189   95  216 1    
   190   96  217 1    
   191   96  218 1    
   192   96  219 1    
   193   97   98 2    
   194   97   99 am   BACKBONE|DICT|INTERRES
   195   99  100 1    
   196   99  220 1    
   197  100  101 1    
   198  100  102 1    
   199  100  221 1    
   200  101  222 1    
   201  101  223 1    
   202  101  224 1    
   203  102  103 2    
   204  102  104 am   BACKBONE|DICT|INTERRES
   205  104  105 1    
   206  104  225 1    
   207  105  106 1    
   208  105  107 1    
   209  105  226 1    
   210  106  227 1    
   211  106  228 1    
   212  106  229 1    
   213  107  108 2    
   214  107  109 am   BACKBONE|DICT|INTERRES
   215  109  110 1    
   216  109  230 1    
   217  110  111 1    
   218  110  112 1    
   219  110  231 1    
   220  111  232 1    
   221  111  233 1    
   222  111  234 1    
   223  112  113 2    
   224  112  114 am   BACKBONE|DICT|INTERRES
   225  114  115 1    
   226  114  235 1    
   227  115  116 1    
   228  115  117 1    
   229  115  236 1    
   230  116  237 1    
   231  116  238 1    
   232  116  239 1    
   233  117  118 2    
   234  117  119 am   BACKBONE|DICT|INTERRES
   235  119  120 1    
   236  119  240 1    
   237  120  121 1    
   238  120  124 1    
   239  120  241 1    
   240  121  122 am   BACKBONE|DICT|INTERRES
   241  121  123 2    
   242  122  242 1    
   243  122  243 1    
   244  124  125 1    
   245  124  244 1    
   246  124  245 1    
   247  125  126 1    
   248  126  246 1    
   249  126  247 1    
@<TRIPOS>SUBSTRUCTURE
     1 UNK         1 GROUP             0       ****    0 ROOT    
