@<TRIPOS>MOLECULE
3R540
247   249    1
SMALL
USER_CHARGES


@<TRIPOS>ATOM
      1 CA          1.4153   -8.9558  -45.0741 C.3       0 UNK        -0.1800 
      2 C           1.4429  -10.4540  -45.3380 C.2       0 UNK         0.5000 
      3 O           0.8012  -11.2108  -44.6119 O.2       0 UNK        -0.5000 
      4 N           2.1926  -10.8806  -46.3617 N.am      1 UNK        -0.5000 
      5 CA          2.3756  -12.2732  -46.7892 C.3       1 UNK         0.1400 
      6 C6          1.0827  -12.9172  -47.3636 C.3       23 UNK        -0.0398 
      7 S7          1.4711  -14.0781  -48.7168 S.3       23 UNK        -0.2404 
      8 C8         -0.1126  -14.9458  -48.9049 C.3       23 UNK        -0.0205 
      9 C9         -0.0018  -16.0760  -49.9147 C.ar      23 UNK        -0.0193 
     10 C10        -0.4992  -15.9292  -51.2122 C.ar      23 UNK        -0.1150 
     11 C11        -0.3843  -16.9734  -52.1357 C.ar      23 UNK        -0.0193 
     12 C12         0.2330  -18.1686  -51.7531 C.ar      23 UNK        -0.1150 
     13 C13         0.7203  -18.3323  -50.4527 C.ar      23 UNK        -0.0193 
     14 C14         0.6030  -17.2788  -49.5446 C.ar      23 UNK        -0.1150 
     15 C15         1.4006  -19.6288  -50.0317 C.3       23 UNK        -0.0205 
     16 S16         0.3301  -21.0868  -50.2372 S.3       23 UNK        -0.2404 
     17 C17        -0.9570  -20.8402  -48.9661 C.3       23 UNK        -0.0398 
     18 CA         -0.9833  -22.0167  -47.9522 C.3       11 UNK         0.1400 
     19 N          -0.2353  -21.7284  -46.7225 N.am      11 UNK        -0.5000 
     20 C           0.1154  -22.6587  -45.8222 C.2       10 UNK         0.5000 
     21 O          -0.1336  -23.8568  -45.9514 O.2       10 UNK        -0.5000 
     22 CA          0.8106  -22.1714  -44.5380 C.3       10 UNK         0.1400 
     23 CB          2.2875  -21.8395  -44.7977 C.3       10 UNK        -0.1800 
     24 N           0.1322  -21.0236  -43.9342 N.am      10 UNK        -0.5000 
     25 C          -1.1101  -21.0655  -43.4300 C.2       9 UNK         0.5000 
     26 O          -1.7931  -22.0878  -43.3869 O.2       9 UNK        -0.5000 
     27 CA         -1.7142  -19.7397  -42.9334 C.3       9 UNK         0.1400 
     28 CB         -1.2334  -19.4178  -41.5109 C.3       9 UNK        -0.1800 
     29 N          -1.4113  -18.6154  -43.8159 N.am      9 UNK        -0.5000 
     30 C          -1.7855  -18.5184  -45.0993 C.2       8 UNK         0.5000 
     31 O          -2.4813  -19.3496  -45.6801 O.2       8 UNK        -0.5000 
     32 CA         -1.2193  -17.3224  -45.8823 C.3       8 UNK         0.1400 
     33 CB         -1.9985  -16.0362  -45.5547 C.3       8 UNK        -0.1800 
     34 N           0.2095  -17.1361  -45.6150 N.am      8 UNK        -0.5000 
     35 C           1.1569  -18.0379  -45.9172 C.2       7 UNK         0.5000 
     36 O           0.9286  -19.0914  -46.5104 O.2       7 UNK        -0.5000 
     37 CA          2.5901  -17.7319  -45.4542 C.3       7 UNK         0.1400 
     38 CB          3.3405  -16.9103  -46.5119 C.3       7 UNK        -0.1800 
     39 N           2.5959  -17.0428  -44.1618 N.am      7 UNK        -0.5000 
     40 C           2.3622  -17.6791  -43.0024 C.2       6 UNK         0.5000 
     41 O           2.1859  -18.8954  -42.9234 O.2       6 UNK        -0.5000 
     42 CA          2.2459  -16.8256  -41.7246 C.3       6 UNK         0.1400 
     43 CB          3.5980  -16.6958  -41.0078 C.3       6 UNK        -0.1800 
     44 N           1.6579  -15.5024  -41.9538 N.am      6 UNK        -0.5000 
     45 C           0.3854  -15.3194  -42.3292 C.2       5 UNK         0.5000 
     46 O          -0.3651  -16.2597  -42.5890 O.2       5 UNK        -0.5000 
     47 CA         -0.1703  -13.8865  -42.4614 C.3       5 UNK         0.1400 
     48 CB         -1.3826  -13.6812  -41.5322 C.3       5 UNK        -0.1800 
     49 N           0.7790  -12.7779  -42.3079 N.am      5 UNK        -0.5000 
     50 C           1.4860  -12.4133  -41.2321 C.2       4 UNK         0.5000 
     51 O           1.5715  -13.0758  -40.1968 O.2       4 UNK        -0.5000 
     52 CA          2.2100  -11.0623  -41.3275 C.3       4 UNK         0.1400 
     53 CB          1.4583   -9.9975  -40.5146 C.3       4 UNK        -0.1800 
     54 N           3.5618  -11.2024  -40.7863 N.am      4 UNK        -0.5000 
     55 C           4.7374  -11.0659  -41.4148 C.2       3 UNK         0.5000 
     56 O           5.7981  -11.2440  -40.8146 O.2       3 UNK        -0.5000 
     57 CA          4.7813  -10.6655  -42.9082 C.3       3 UNK         0.1400 
     58 CB          4.6468   -9.1416  -43.0589 C.3       3 UNK        -0.1800 
     59 N           6.0485  -11.0768  -43.5195 N.am      3 UNK        -0.5000 
     60 C           6.3705  -12.2458  -44.0990 C.2       2 UNK         0.5000 
     61 O           7.5354  -12.4930  -44.4054 O.2       2 UNK        -0.5000 
     62 CA          5.2891  -13.2816  -44.4695 C.3       2 UNK         0.1400 
     63 CB          4.6954  -13.9700  -43.2246 C.3       2 UNK        -0.1800 
     64 N           4.3005  -12.6758  -45.3648 N.am      2 UNK        -0.5000 
     65 C           3.0806  -13.1164  -45.7009 C.2       1 UNK         0.5000 
     66 O           2.5185  -14.0860  -45.1847 O.2       1 UNK        -0.5000 
     67 C          -2.4218  -22.5033  -47.6697 C.2       11 UNK         0.5000 
     68 O          -2.9290  -23.3327  -48.4261 O.2       11 UNK        -0.5000 
     69 N          -3.0501  -22.0195  -46.5898 N.am      12 UNK        -0.5000 
     70 CA         -4.3417  -22.5082  -46.1067 C.3       12 UNK         0.1400 
     71 CB         -4.9201  -21.5370  -45.0675 C.3       12 UNK        -0.1800 
     72 C          -4.2478  -23.9379  -45.5463 C.2       12 UNK         0.5000 
     73 O          -5.0653  -24.7814  -45.9136 O.2       12 UNK        -0.5000 
     74 N          -3.2333  -24.2006  -44.7096 N.am      13 UNK        -0.5000 
     75 CA         -2.9510  -25.5136  -44.1208 C.3       13 UNK         0.1400 
     76 CB         -1.8352  -25.3782  -43.0738 C.3       13 UNK        -0.1800 
     77 C          -2.5864  -26.5824  -45.1686 C.2       13 UNK         0.5000 
     78 O          -3.0103  -27.7313  -45.0404 O.2       13 UNK        -0.5000 
     79 N          -1.8414  -26.1754  -46.2048 N.am      14 UNK        -0.5000 
     80 CA         -1.4905  -26.9981  -47.3644 C.3       14 UNK         0.1400 
     81 CB         -0.3142  -26.3333  -48.0979 C.3       14 UNK        -0.1800 
     82 C          -2.6628  -27.2224  -48.3428 C.2       14 UNK         0.5000 
     83 O          -2.5369  -28.0536  -49.2422 O.2       14 UNK        -0.5000 
     84 N          -3.7546  -26.4587  -48.1778 N.am      15 UNK        -0.5000 
     85 CA         -4.9476  -26.3868  -49.0304 C.3       15 UNK         0.1400 
     86 CB         -5.6816  -27.7414  -49.0942 C.3       15 UNK        -0.1800 
     87 C          -4.6771  -25.7927  -50.4291 C.2       15 UNK         0.5000 
     88 O          -5.5319  -25.8873  -51.3092 O.2       15 UNK        -0.5000 
     89 N          -3.5228  -25.1377  -50.6021 N.am      16 UNK        -0.5000 
     90 CA         -3.1261  -24.4237  -51.8132 C.3       16 UNK         0.1400 
     91 CB         -1.6361  -24.0688  -51.7158 C.3       16 UNK        -0.1800 
     92 C          -3.9801  -23.1648  -52.0386 C.2       16 UNK         0.5000 
     93 O          -4.3301  -22.8618  -53.1794 O.2       16 UNK        -0.5000 
     94 N          -4.3486  -22.4859  -50.9422 N.am      17 UNK        -0.5000 
     95 CA         -5.2724  -21.3505  -50.9563 C.3       17 UNK         0.1400 
     96 CB         -5.2627  -20.6577  -49.5857 C.3       17 UNK        -0.1800 
     97 C          -6.7037  -21.7713  -51.3423 C.2       17 UNK         0.5000 
     98 O          -7.3674  -21.0516  -52.0877 O.2       17 UNK        -0.5000 
     99 N          -7.1350  -22.9471  -50.8612 N.am      18 UNK        -0.5000 
    100 CA        -8.4332  -23.5517  -51.1717 C.3       18 UNK         0.1400 
    101 CB        -8.7185  -24.6908  -50.1807 C.3       18 UNK        -0.1800 
    102 C         -8.5140  -24.0522  -52.6262 C.2       18 UNK         0.5000 
    103 O         -9.5540  -23.8988  -53.2670 O.2       18 UNK        -0.5000 
    104 N         -7.4009  -24.6013  -53.1319 N.am      19 UNK        -0.5000 
    105 CA        -7.2169  -25.0155  -54.5252 C.3       19 UNK         0.1400 
    106 CB        -5.9872  -25.9338  -54.6068 C.3       19 UNK        -0.1800 
    107 C         -7.0671  -23.8348  -55.5084 C.2       19 UNK         0.5000 
    108 O         -7.1243  -24.0555  -56.7188 O.2       19 UNK        -0.5000 
    109 N         -6.8697  -22.6190  -54.9766 N.am      20 UNK        -0.5000 
    110 CA        -6.6429  -21.3554  -55.6809 C.3       20 UNK         0.1400 
    111 CB        -7.8775  -20.9496  -56.5125 C.3       20 UNK        -0.1800 
    112 C         -5.3320  -21.3628  -56.4925 C.2       20 UNK         0.5000 
    113 O         -5.2940  -20.8718  -57.6235 O.2       20 UNK        -0.5000 
    114 N         -4.2627  -21.8953  -55.8806 N.am      21 UNK        -0.5000 
    115 CA        -2.9128  -21.9972  -56.4489 C.3       21 UNK         0.1400 
    116 CB        -2.0183  -22.7756  -55.4728 C.3       21 UNK        -0.1800 
    117 C         -2.2681  -20.6391  -56.7966 C.2       21 UNK         0.5000 
    118 O         -1.3480  -20.5965  -57.6145 O.2       21 UNK        -0.5000 
    119 N         -2.7763  -19.5591  -56.1902 N.am      22 UNK        -0.5000 
    120 CA        -2.4415  -18.1631  -56.5059 C.3       22 UNK         0.1400 
    121 C         -2.9002  -17.6944  -57.9204 C.2       22 UNK         0.5000 
    122 N         -3.8043  -18.3935  -58.5993 N.am      22 UNK        -0.7600 
    123 O         -2.4242  -16.6741  -58.4105 O.2       22 UNK        -0.5000 
    124 C124       -2.9755  -17.1825  -55.4286 C.3       23 UNK        -0.0398 
    125 S125       -2.5333  -17.6450  -53.7194 S.3       23 UNK        -0.2404 
    126 C126       -0.9268  -16.8135  -53.5458 C.3       23 UNK        -0.0205 
    127 H127        2.1604   -8.4256  -45.6676 H         1 UNK         0.0600 
    128 H128        1.6142   -8.7544  -44.0217 H         1 UNK         0.0600 
    129 H129        0.4325   -8.5524  -45.3176 H         1 UNK         0.0600 
    130 H130        2.6902  -10.1957  -46.9138 H         1 UNK         0.3000 
    131 H131        3.0927  -12.1985  -47.6088 H         1 UNK         0.0600 
    132 H132        0.4363  -12.1468  -47.7859 H         1 UNK         0.0800 
    133 H133        0.4907  -13.4089  -46.5897 H         1 UNK         0.0800 
    134 H134       -0.8878  -14.2364  -49.1987 H         1 UNK         0.0800 
    135 H135       -0.4104  -15.3575  -47.9432 H         1 UNK         0.0800 
    136 H136       -0.9730  -15.0023  -51.5040 H         1 UNK         0.1150 
    137 H137        0.3228  -18.9774  -52.4649 H         1 UNK         0.1150 
    138 H138        0.9982  -17.3842  -48.5483 H         1 UNK         0.1150 
    139 H139        1.7408  -19.5804  -48.9966 H         1 UNK         0.0800 
    140 H140        2.2951  -19.7645  -50.6406 H         1 UNK         0.0800 
    141 H141       -1.8978  -20.7506  -49.5118 H         1 UNK         0.0800 
    142 H142       -0.8226  -19.8831  -48.4601 H         1 UNK         0.0800 
    143 H143       -0.4923  -22.8761  -48.4139 H         1 UNK         0.0600 
    144 H144        0.0392  -20.7617  -46.5648 H         1 UNK         0.3000 
    145 H145        0.7770  -22.9893  -43.8151 H         1 UNK         0.0600 
    146 H146        2.8186  -22.7118  -45.1804 H         1 UNK         0.0600 
    147 H147        2.7896  -21.5293  -43.8811 H         1 UNK         0.0600 
    148 H148        2.4038  -21.0417  -45.5299 H         1 UNK         0.0600 
    149 H149        0.6465  -20.1521  -43.9011 H         1 UNK         0.3000 
    150 H150       -2.7993  -19.8565  -42.9078 H         1 UNK         0.0600 
    151 H151       -0.1538  -19.2711  -41.4739 H         1 UNK         0.0600 
    152 H152       -1.4794  -20.2277  -40.8230 H         1 UNK         0.0600 
    153 H153       -1.7060  -18.5118  -41.1309 H         1 UNK         0.0600 
    154 H154       -0.8799  -17.8485  -43.4100 H         1 UNK         0.3000 
    155 H155       -1.3326  -17.5306  -46.9484 H         1 UNK         0.0600 
    156 H156       -1.5439  -15.1545  -46.0035 H         1 UNK         0.0600 
    157 H157       -2.0666  -15.8579  -44.4822 H         1 UNK         0.0600 
    158 H158       -3.0196  -16.1031  -45.9318 H         1 UNK         0.0600 
    159 H159        0.4771  -16.3123  -45.0973 H         1 UNK         0.3000 
    160 H160        3.1194  -18.6803  -45.3421 H         1 UNK         0.0600 
    161 H161        2.7778  -16.0293  -46.8162 H         1 UNK         0.0600 
    162 H162        3.5093  -17.5050  -47.4104 H         1 UNK         0.0600 
    163 H163        4.3142  -16.5822  -46.1480 H         1 UNK         0.0600 
    164 H164        2.6821  -16.0328  -44.1797 H         1 UNK         0.3000 
    165 H165        1.5750  -17.3588  -41.0473 H         1 UNK         0.0600 
    166 H166        3.9652  -17.6766  -40.7033 H         1 UNK         0.0600 
    167 H167        4.3630  -16.2522  -41.6410 H         1 UNK         0.0600 
    168 H168        3.5119  -16.0889  -40.1062 H         1 UNK         0.0600 
    169 H169        2.2049  -14.6928  -41.7003 H         1 UNK         0.3000 
    170 H170       -0.5305  -13.8107  -43.4885 H         1 UNK         0.0600 
    171 H171       -1.8332  -12.7003  -41.6833 H         1 UNK         0.0600 
    172 H172       -1.1050  -13.7655  -40.4811 H         1 UNK         0.0600 
    173 H173       -2.1572  -14.4246  -41.7251 H         1 UNK         0.0600 
    174 H174        0.8185  -12.1728  -43.1290 H         1 UNK         0.3000 
    175 H175        2.2043  -10.7302  -42.3622 H         1 UNK         0.0600 
    176 H176        1.3922  -10.2650  -39.4591 H         1 UNK         0.0600 
    177 H177        0.4405   -9.8701  -40.8860 H         1 UNK         0.0600 
    178 H178        1.9525   -9.0283  -40.5832 H         1 UNK         0.0600 
    179 H179        3.5803  -11.5206  -39.8275 H         1 UNK         0.3000 
    180 H180        3.9575  -11.1313  -43.4372 H         1 UNK         0.0600 
    181 H181        5.4691   -8.6151  -42.5726 H         1 UNK         0.0600 
    182 H182        3.7207   -8.7772  -42.6138 H         1 UNK         0.0600 
    183 H183        4.6374   -8.8498  -44.1093 H         1 UNK         0.0600 
    184 H184        6.8158  -10.4554  -43.3113 H         1 UNK         0.3000 
    185 H185        5.7922  -14.0562  -45.0516 H         1 UNK         0.0600 
    186 H186        4.3353  -14.9610  -43.4912 H         1 UNK         0.0600 
    187 H187        5.4432  -14.1032  -42.4416 H         1 UNK         0.0600 
    188 H188        3.8572  -13.4221  -42.8007 H         1 UNK         0.0600 
    189 H189        4.6368  -11.8453  -45.8335 H         1 UNK         0.3000 
    190 H190       -2.6187  -21.2669  -46.0619 H         1 UNK         0.3000 
    191 H191       -5.0312  -22.5377  -46.9514 H         1 UNK         0.0600 
    192 H192       -5.0542  -20.5421  -45.4923 H         1 UNK         0.0600 
    193 H193       -5.8959  -21.8760  -44.7178 H         1 UNK         0.0600 
    194 H194       -4.2739  -21.4432  -44.1954 H         1 UNK         0.0600 
    195 H195       -2.6236  -23.4385  -44.4229 H         1 UNK         0.3000 
    196 H196       -3.8561  -25.8487  -43.6102 H         1 UNK         0.0600 
    197 H197       -2.1235  -24.6910  -42.2781 H         1 UNK         0.0600 
    198 H198       -0.9107  -25.0069  -43.5169 H         1 UNK         0.0600 
    199 H199       -1.6150  -26.3400  -42.6091 H         1 UNK         0.0600 
    200 H200       -1.4595  -25.2331  -46.1860 H         1 UNK         0.3000 
    201 H201       -1.1654  -27.9781  -47.0095 H         1 UNK         0.0600 
    202 H202        0.0131  -26.9361  -48.9459 H         1 UNK         0.0600 
    203 H203        0.5444  -26.2108  -47.4374 H         1 UNK         0.0600 
    204 H204       -0.5857  -25.3488  -48.4802 H         1 UNK         0.0600 
    205 H205       -3.7565  -25.8133  -47.3977 H         1 UNK         0.3000 
    206 H206       -5.6165  -25.6802  -48.5375 H         1 UNK         0.0600 
    207 H207       -5.8635  -28.1381  -48.0954 H         1 UNK         0.0600 
    208 H208       -6.6514  -27.6376  -49.5821 H         1 UNK         0.0600 
    209 H209       -5.1161  -28.4856  -49.6551 H         1 UNK         0.0600 
    210 H210       -2.9324  -25.0113  -49.7904 H         1 UNK         0.3000 
    211 H211       -3.2686  -25.0867  -52.6685 H         1 UNK         0.0600 
    212 H212       -1.0233  -24.9658  -51.6262 H         1 UNK         0.0600 
    213 H213       -1.2979  -23.5316  -52.6017 H         1 UNK         0.0600 
    214 H214       -1.4313  -23.4382  -50.8511 H         1 UNK         0.0600 
    215 H215       -4.0013  -22.7996  -50.0418 H         1 UNK         0.3000 
    216 H216       -4.9191  -20.6353  -51.7025 H         1 UNK         0.0600 
    217 H217       -5.6312  -21.3162  -48.8003 H         1 UNK         0.0600 
    218 H218       -5.9005  -19.7729  -49.5942 H         1 UNK         0.0600 
    219 H219       -4.2610  -20.3303  -49.3097 H         1 UNK         0.0600 
    220 H220       -6.5117  -23.4854  -50.2800 H         1 UNK         0.3000 
    221 H221       -9.2029  -22.7883  -51.0398 H         1 UNK         0.0600 
    222 H222       -7.9875  -25.4949  -50.2636 H         1 UNK         0.0600 
    223 H223       -8.7074  -24.3314  -49.1516 H         1 UNK         0.0600 
    224 H224       -9.7024  -25.1252  -50.3620 H         1 UNK         0.0600 
    225 H225       -6.6194  -24.7764  -52.5075 H         1 UNK         0.3000 
    226 H226       -8.0942  -25.5885  -54.8320 H         1 UNK         0.0600 
    227 H227       -6.0950  -26.7984  -53.9516 H         1 UNK         0.0600 
    228 H228       -5.8445  -26.3107  -55.6203 H         1 UNK         0.0600 
    229 H229       -5.0761  -25.4076  -54.3213 H         1 UNK         0.0600 
    230 H230       -6.8124  -22.5650  -53.9689 H         1 UNK         0.3000 
    231 H231       -6.5117  -20.5998  -54.9051 H         1 UNK         0.0600 
    232 H232       -8.0418  -21.6223  -57.3545 H         1 UNK         0.0600 
    233 H233       -7.7600  -19.9440  -56.9179 H         1 UNK         0.0600 
    234 H234       -8.7802  -20.9491  -55.9015 H         1 UNK         0.0600 
    235 H235       -4.3769  -22.2663  -54.9390 H         1 UNK         0.3000 
    236 H236       -2.9897  -22.5684  -57.3760 H         1 UNK         0.0600 
    237 H237       -1.8959  -22.2354  -54.5335 H         1 UNK         0.0600 
    238 H238       -2.4368  -23.7565  -55.2463 H         1 UNK         0.0600 
    239 H239       -1.0242  -22.9343  -55.8925 H         1 UNK         0.0600 
    240 H240       -3.5088  -19.6967  -55.5109 H         1 UNK         0.3000 
    241 H241       -1.3523  -18.0923  -56.5027 H         1 UNK         0.0600 
    242 H242       -4.2162  -19.2371  -58.2149 H         1 UNK         0.3800 
    243 H243       -4.0872  -18.0771  -59.5132 H         1 UNK         0.3800 
    244 H244       -2.6212  -16.1686  -55.6234 H         1 UNK         0.0800 
    245 H245       -4.0647  -17.1317  -55.4781 H         1 UNK         0.0800 
    246 H246       -0.2197  -17.2328  -54.2631 H         1 UNK         0.0800 
    247 H247       -1.0322  -15.7560  -53.7932 H         1 UNK         0.0800 
@<TRIPOS>BOND
     1    1    2 1    
     2    1  127 1    
     3    1  128 1    
     4    1  129 1    
     5    2    3 2    
     6    2    4 am   BACKBONE|DICT|INTERRES
     7    4    5 1    
     8    4  130 1    
     9    5    6 1    
    10    5   65 1    
    11    5  131 1    
    12    6    7 1    
    13    6  132 1    
    14    6  133 1    
    15    7    8 1    
    16    8    9 1    
    17    8  134 1    
    18    8  135 1    
    19    9   10 ar   
    20    9   14 ar   
    21   10   11 ar   
    22   10  136 1    
    23   11   12 ar   
    24   11  126 1    
    25   12   13 ar   
    26   12  137 1    
    27   13   14 ar   
    28   13   15 1    
    29   14  138 1    
    30   15   16 1    
    31   15  139 1    
    32   15  140 1    
    33   16   17 1    
    34   17   18 1    
    35   17  141 1    
    36   17  142 1    
    37   18   19 1    
    38   18   67 1    
    39   18  143 1    
    40   19   20 am   BACKBONE|DICT|INTERRES
    41   19  144 1    
    42   20   21 2    
    43   20   22 1    
    44   22   23 1    
    45   22   24 1    
    46   22  145 1    
    47   23  146 1    
    48   23  147 1    
    49   23  148 1    
    50   24   25 am   BACKBONE|DICT|INTERRES
    51   24  149 1    
    52   25   26 2    
    53   25   27 1    
    54   27   28 1    
    55   27   29 1    
    56   27  150 1    
    57   28  151 1    
    58   28  152 1    
    59   28  153 1    
    60   29   30 am   BACKBONE|DICT|INTERRES
    61   29  154 1    
    62   30   31 2    
    63   30   32 1    
    64   32   33 1    
    65   32   34 1    
    66   32  155 1    
    67   33  156 1    
    68   33  157 1    
    69   33  158 1    
    70   34   35 am   BACKBONE|DICT|INTERRES
    71   34  159 1    
    72   35   36 2    
    73   35   37 1    
    74   37   38 1    
    75   37   39 1    
    76   37  160 1    
    77   38  161 1    
    78   38  162 1    
    79   38  163 1    
    80   39   40 am   BACKBONE|DICT|INTERRES
    81   39  164 1    
    82   40   41 2    
    83   40   42 1    
    84   42   43 1    
    85   42   44 1    
    86   42  165 1    
    87   43  166 1    
    88   43  167 1    
    89   43  168 1    
    90   44   45 am   BACKBONE|DICT|INTERRES
    91   44  169 1    
    92   45   46 2    
    93   45   47 1    
    94   47   48 1    
    95   47   49 1    
    96   47  170 1    
    97   48  171 1    
    98   48  172 1    
    99   48  173 1    
   100   49   50 am   BACKBONE|DICT|INTERRES
   101   49  174 1    
   102   50   51 2    
   103   50   52 1    
   104   52   53 1    
   105   52   54 1    
   106   52  175 1    
   107   53  176 1    
   108   53  177 1    
   109   53  178 1    
   110   54   55 am   BACKBONE|DICT|INTERRES
   111   54  179 1    
   112   55   56 2    
   113   55   57 1    
   114   57   58 1    
   115   57   59 1    
   116   57  180 1    
   117   58  181 1    
   118   58  182 1    
   119   58  183 1    
   120   59   60 am   BACKBONE|DICT|INTERRES
   121   59  184 1    
   122   60   61 2    
   123   60   62 1    
   124   62   63 1    
   125   62   64 1    
   126   62  185 1    
   127   63  186 1    
   128   63  187 1    
   129   63  188 1    
   130   64   65 am   BACKBONE|DICT|INTERRES
   131   64  189 1    
   132   65   66 2    
   133   67   68 2    
   134   67   69 am   BACKBONE|DICT|INTERRES
   135   69   70 1    
   136   69  190 1    
   137   70   71 1    
   138   70   72 1    
   139   70  191 1    
   140   71  192 1    
   141   71  193 1    
   142   71  194 1    
   143   72   73 2    
   144   72   74 am   BACKBONE|DICT|INTERRES
   145   74   75 1    
   146   74  195 1    
   147   75   76 1    
   148   75   77 1    
   149   75  196 1    
   150   76  197 1    
   151   76  198 1    
   152   76  199 1    
   153   77   78 2    
   154   77   79 am   BACKBONE|DICT|INTERRES
   155   79   80 1    
   156   79  200 1    
   157   80   81 1    
   158   80   82 1    
   159   80  201 1    
   160   81  202 1    
   161   81  203 1    
   162   81  204 1    
   163   82   83 2    
   164   82   84 am   BACKBONE|DICT|INTERRES
   165   84   85 1    
   166   84  205 1    
   167   85   86 1    
   168   85   87 1    
   169   85  206 1    
   170   86  207 1    
   171   86  208 1    
   172   86  209 1    
   173   87   88 2    
   174   87   89 am   BACKBONE|DICT|INTERRES
   175   89   90 1    
   176   89  210 1    
   177   90   91 1    
   178   90   92 1    
   179   90  211 1    
   180   91  212 1    
   181   91  213 1    
   182   91  214 1    
   183   92   93 2    
   184   92   94 am   BACKBONE|DICT|INTERRES
   185   94   95 1    
   186   94  215 1    
   187   95   96 1    
   188   95   97 1    
   189   95  216 1    
   190   96  217 1    
   191   96  218 1    
   192   96  219 1    
   193   97   98 2    
   194   97   99 am   BACKBONE|DICT|INTERRES
   195   99  100 1    
   196   99  220 1    
   197  100  101 1    
   198  100  102 1    
   199  100  221 1    
   200  101  222 1    
   201  101  223 1    
   202  101  224 1    
   203  102  103 2    
   204  102  104 am   BACKBONE|DICT|INTERRES
   205  104  105 1    
   206  104  225 1    
   207  105  106 1    
   208  105  107 1    
   209  105  226 1    
   210  106  227 1    
   211  106  228 1    
   212  106  229 1    
   213  107  108 2    
   214  107  109 am   BACKBONE|DICT|INTERRES
   215  109  110 1    
   216  109  230 1    
   217  110  111 1    
   218  110  112 1    
   219  110  231 1    
   220  111  232 1    
   221  111  233 1    
   222  111  234 1    
   223  112  113 2    
   224  112  114 am   BACKBONE|DICT|INTERRES
   225  114  115 1    
   226  114  235 1    
   227  115  116 1    
   228  115  117 1    
   229  115  236 1    
   230  116  237 1    
   231  116  238 1    
   232  116  239 1    
   233  117  118 2    
   234  117  119 am   BACKBONE|DICT|INTERRES
   235  119  120 1    
   236  119  240 1    
   237  120  121 1    
   238  120  124 1    
   239  120  241 1    
   240  121  122 am   BACKBONE|DICT|INTERRES
   241  121  123 2    
   242  122  242 1    
   243  122  243 1    
   244  124  125 1    
   245  124  244 1    
   246  124  245 1    
   247  125  126 1    
   248  126  246 1    
   249  126  247 1    
@<TRIPOS>SUBSTRUCTURE
     1 UNK         1 GROUP             0       ****    0 ROOT    
