@<TRIPOS>MOLECULE
3R540
247   249    1
SMALL
USER_CHARGES


@<TRIPOS>ATOM
      1 CA          2.4928   -8.9211  -50.1416 C.3       0 UNK        -0.1800 
      2 C           2.8149  -10.2754  -49.5277 C.2       0 UNK         0.5000 
      3 O           2.9124  -10.3875  -48.3059 O.2       0 UNK        -0.5000 
      4 N           2.9634  -11.3093  -50.3669 N.am      1 UNK        -0.5000 
      5 CA          3.2826  -12.6910  -49.9767 C.3       1 UNK         0.1400 
      6 C6          3.6154  -13.5819  -51.1996 C.3       23 UNK        -0.0398 
      7 S7          2.3437  -13.5712  -52.5168 S.3       23 UNK        -0.2404 
      8 C8          1.9824  -15.3433  -52.7270 C.3       23 UNK        -0.0205 
      9 C9          0.9154  -15.8311  -51.7592 C.ar      23 UNK        -0.0193 
     10 C10        -0.4334  -15.7828  -52.1220 C.ar      23 UNK        -0.1150 
     11 C11        -1.4193  -16.2547  -51.2515 C.ar      23 UNK        -0.0193 
     12 C12        -1.0495  -16.7756  -50.0089 C.ar      23 UNK        -0.1150 
     13 C13         0.2949  -16.8312  -49.6336 C.ar      23 UNK        -0.0193 
     14 C14         1.2721  -16.3544  -50.5139 C.ar      23 UNK        -0.1150 
     15 C15         0.6714  -17.3708  -48.2604 C.3       23 UNK        -0.0205 
     16 S16         2.0762  -18.5321  -48.2865 S.3       23 UNK        -0.2404 
     17 C17         1.4483  -19.9358  -49.2839 C.3       23 UNK        -0.0398 
     18 CA          0.7456  -21.0627  -48.4738 C.3       11 UNK         0.1400 
     19 N           1.3368  -21.2338  -47.1437 N.am      11 UNK        -0.5000 
     20 C           1.0188  -22.1472  -46.2218 C.2       10 UNK         0.5000 
     21 O           0.1721  -23.0234  -46.3974 O.2       10 UNK        -0.5000 
     22 CA          1.7119  -22.0204  -44.8462 C.3       10 UNK         0.1400 
     23 CB          2.8795  -21.0063  -44.8234 C.3       10 UNK        -0.1800 
     24 N           0.7678  -21.6957  -43.7696 N.am      10 UNK        -0.5000 
     25 C          -0.1311  -20.6971  -43.7586 C.2       9 UNK         0.5000 
     26 O          -0.3274  -19.9476  -44.7148 O.2       9 UNK        -0.5000 
     27 CA         -0.9410  -20.4858  -42.4669 C.3       9 UNK         0.1400 
     28 CB         -2.4221  -20.1625  -42.7409 C.3       9 UNK        -0.1800 
     29 N          -0.8311  -21.6297  -41.5546 N.am      9 UNK        -0.5000 
     30 C          -0.8266  -21.6252  -40.2126 C.2       8 UNK         0.5000 
     31 O          -0.7380  -22.6801  -39.5848 O.2       8 UNK        -0.5000 
     32 CA         -0.9295  -20.2848  -39.4415 C.3       8 UNK         0.1400 
     33 CB         -1.1983  -20.4757  -37.9339 C.3       8 UNK        -0.1800 
     34 N           0.2347  -19.4184  -39.6447 N.am      8 UNK        -0.5000 
     35 C           1.5231  -19.6755  -39.3700 C.2       7 UNK         0.5000 
     36 O           1.9180  -20.7089  -38.8298 O.2       7 UNK        -0.5000 
     37 CA          2.5603  -18.6064  -39.7830 C.3       7 UNK         0.1400 
     38 CB          3.4479  -19.1423  -40.9183 C.3       7 UNK        -0.1800 
     39 N           1.9620  -17.3387  -40.2134 N.am      7 UNK        -0.5000 
     40 C           1.3732  -16.4492  -39.3977 C.2       6 UNK         0.5000 
     41 O           1.3633  -16.5616  -38.1717 O.2       6 UNK        -0.5000 
     42 CA          0.6415  -15.2527  -40.0470 C.3       6 UNK         0.1400 
     43 CB          1.4736  -13.9708  -39.8955 C.3       6 UNK        -0.1800 
     44 N           0.3162  -15.4420  -41.4638 N.am      6 UNK        -0.5000 
     45 C          -0.4823  -16.4009  -41.9598 C.2       5 UNK         0.5000 
     46 O          -1.1070  -17.1909  -41.2515 O.2       5 UNK        -0.5000 
     47 CA         -0.5403  -16.5568  -43.4954 C.3       5 UNK         0.1400 
     48 CB         -1.8475  -15.9761  -44.0501 C.3       5 UNK        -0.1800 
     49 N           0.6009  -15.9605  -44.1970 N.am      5 UNK        -0.5000 
     50 C           1.8840  -16.3177  -44.0167 C.2       4 UNK         0.5000 
     51 O           2.2212  -17.2689  -43.3116 O.2       4 UNK        -0.5000 
     52 CA          2.9802  -15.4308  -44.6466 C.3       4 UNK         0.1400 
     53 CB          3.7062  -16.1648  -45.7815 C.3       4 UNK        -0.1800 
     54 N           2.4976  -14.1348  -45.1326 N.am      4 UNK        -0.5000 
     55 C           2.0024  -13.1598  -44.3526 C.2       3 UNK         0.5000 
     56 O           1.9563  -13.2377  -43.1245 O.2       3 UNK        -0.5000 
     57 CA          1.4042  -11.9196  -45.0498 C.3       3 UNK         0.1400 
     58 CB          2.4085  -10.7588  -45.0276 C.3       3 UNK        -0.1800 
     59 N           0.9773  -12.1616  -46.4311 N.am      3 UNK        -0.5000 
     60 C           0.0413  -13.0484  -46.8067 C.2       2 UNK         0.5000 
     61 O          -0.6152  -13.7143  -46.0070 O.2       2 UNK        -0.5000 
     62 CA         -0.1618  -13.2811  -48.3183 C.3       2 UNK         0.1400 
     63 CB         -1.4295  -12.5715  -48.8144 C.3       2 UNK        -0.1800 
     64 N           0.9702  -12.8691  -49.1503 N.am      2 UNK        -0.5000 
     65 C           2.2226  -13.3413  -49.0617 C.2       1 UNK         0.5000 
     66 O           2.5682  -14.2086  -48.2588 O.2       1 UNK        -0.5000 
     67 C          -0.7876  -20.8771  -48.4694 C.2       11 UNK         0.5000 
     68 O          -1.4356  -21.2993  -49.4255 O.2       11 UNK        -0.5000 
     69 N          -1.3472  -20.2855  -47.4050 N.am      12 UNK        -0.5000 
     70 CA         -2.7895  -20.0999  -47.2459 C.3       12 UNK         0.1400 
     71 CB         -3.0516  -18.8102  -46.4536 C.3       12 UNK        -0.1800 
     72 C          -3.4755  -21.3163  -46.5915 C.2       12 UNK         0.5000 
     73 O          -4.6987  -21.4268  -46.6712 O.2       12 UNK        -0.5000 
     74 N          -2.6975  -22.2140  -45.9694 N.am      13 UNK        -0.5000 
     75 CA         -3.1849  -23.4882  -45.4380 C.3       13 UNK         0.1400 
     76 CB         -2.3630  -23.8952  -44.2047 C.3       13 UNK        -0.1800 
     77 C          -3.1357  -24.5937  -46.5051 C.2       13 UNK         0.5000 
     78 O          -4.0227  -25.4475  -46.5237 O.2       13 UNK        -0.5000 
     79 N          -2.1086  -24.5510  -47.3677 N.am      14 UNK        -0.5000 
     80 CA         -1.8136  -25.4940  -48.4483 C.3       14 UNK         0.1400 
     81 CB         -0.5589  -25.0093  -49.1922 C.3       14 UNK        -0.1800 
     82 C          -3.0026  -25.6929  -49.4086 C.2       14 UNK         0.5000 
     83 O          -3.2686  -24.8341  -50.2539 O.2       14 UNK        -0.5000 
     84 N          -3.7312  -26.8001  -49.2042 N.am      15 UNK        -0.5000 
     85 CA         -4.9864  -27.1737  -49.8666 C.3       15 UNK         0.1400 
     86 CB         -4.7249  -27.5632  -51.3355 C.3       15 UNK        -0.1800 
     87 C          -6.0889  -26.1017  -49.7149 C.2       15 UNK         0.5000 
     88 O          -6.8574  -25.8740  -50.6482 O.2       15 UNK        -0.5000 
     89 N          -6.1136  -25.4253  -48.5556 N.am      16 UNK        -0.5000 
     90 CA         -6.9611  -24.2712  -48.2315 C.3       16 UNK         0.1400 
     91 CB         -8.4417  -24.6899  -48.1164 C.3       16 UNK        -0.1800 
     92 C          -6.7346  -23.0837  -49.1942 C.2       16 UNK         0.5000 
     93 O          -7.6911  -22.4257  -49.6061 O.2       16 UNK        -0.5000 
     94 N          -5.4587  -22.8607  -49.5422 N.am      17 UNK        -0.5000 
     95 CA         -4.9168  -21.8315  -50.4348 C.3       17 UNK         0.1400 
     96 CB         -5.4407  -20.4259  -50.0785 C.3       17 UNK        -0.1800 
     97 C          -5.0768  -22.1510  -51.9342 C.2       17 UNK         0.5000 
     98 O          -4.6620  -21.3427  -52.7681 O.2       17 UNK        -0.5000 
     99 N          -5.6301  -23.3254  -52.2729 N.am      18 UNK        -0.5000 
    100 CA        -5.7870  -23.7847  -53.6537 C.3       18 UNK         0.1400 
    101 CB        -6.7923  -24.9426  -53.7128 C.3       18 UNK        -0.1800 
    102 C         -4.4535  -24.1959  -54.3023 C.2       18 UNK         0.5000 
    103 O         -4.3292  -24.0880  -55.5218 O.2       18 UNK        -0.5000 
    104 N         -3.4702  -24.6233  -53.4937 N.am      19 UNK        -0.5000 
    105 CA        -2.1268  -24.9767  -53.9639 C.3       19 UNK         0.1400 
    106 CB        -1.3924  -25.7727  -52.8774 C.3       19 UNK        -0.1800 
    107 C         -1.3096  -23.7352  -54.3668 C.2       19 UNK         0.5000 
    108 O         -0.5260  -23.7993  -55.3144 O.2       19 UNK        -0.5000 
    109 N         -1.5374  -22.6212  -53.6581 N.am      20 UNK        -0.5000 
    110 CA        -0.9946  -21.2995  -53.9759 C.3       20 UNK         0.1400 
    111 CB        -0.9378  -20.4734  -52.6825 C.3       20 UNK        -0.1800 
    112 C         -1.8029  -20.5736  -55.0738 C.2       20 UNK         0.5000 
    113 O         -1.3260  -19.5713  -55.6068 O.2       20 UNK        -0.5000 
    114 N         -2.9935  -21.1027  -55.3980 N.am      21 UNK        -0.5000 
    115 CA        -3.9580  -20.6309  -56.3961 C.3       21 UNK         0.1400 
    116 CB        -3.3809  -20.7651  -57.8206 C.3       21 UNK        -0.1800 
    117 C         -4.4992  -19.2209  -56.0849 C.2       21 UNK         0.5000 
    118 O         -4.6543  -18.3995  -56.9914 O.2       21 UNK        -0.5000 
    119 N         -4.7605  -18.9639  -54.7985 N.am      22 UNK        -0.5000 
    120 CA        -5.2610  -17.6814  -54.2832 C.3       22 UNK         0.1400 
    121 C         -6.7264  -17.3902  -54.7103 C.2       22 UNK         0.5000 
    122 N         -7.0724  -16.1307  -54.9397 N.am      22 UNK        -0.7600 
    123 O         -7.5631  -18.2867  -54.7952 O.2       22 UNK        -0.5000 
    124 C124       -5.1182  -17.5951  -52.7447 C.3       23 UNK        -0.0398 
    125 S125       -3.4016  -17.8806  -52.2000 S.3       23 UNK        -0.2404 
    126 C126       -2.8822  -16.2290  -51.6595 C.3       23 UNK        -0.0205 
    127 H127        2.4278   -8.9738  -51.2287 H         1 UNK         0.0600 
    128 H128        1.5398   -8.5544  -49.7608 H         1 UNK         0.0600 
    129 H129        3.2662   -8.1985  -49.8813 H         1 UNK         0.0600 
    130 H130        2.8515  -11.1607  -51.3603 H         1 UNK         0.3000 
    131 H131        4.1909  -12.6337  -49.3731 H         1 UNK         0.0600 
    132 H132        3.8251  -14.6040  -50.8811 H         1 UNK         0.0800 
    133 H133        4.5442  -13.2298  -51.6499 H         1 UNK         0.0800 
    134 H134        2.8951  -15.9315  -52.6209 H         1 UNK         0.0800 
    135 H135        1.6431  -15.5061  -53.7510 H         1 UNK         0.0800 
    136 H136       -0.7145  -15.3873  -53.0879 H         1 UNK         0.1150 
    137 H137       -1.8135  -17.1437  -49.3386 H         1 UNK         0.1150 
    138 H138        2.3125  -16.3879  -50.2244 H         1 UNK         0.1150 
    139 H139        0.9290  -16.5242  -47.6237 H         1 UNK         0.0800 
    140 H140       -0.1806  -17.8545  -47.7841 H         1 UNK         0.0800 
    141 H141        0.8245  -19.5627  -50.0987 H         1 UNK         0.0800 
    142 H142        2.3203  -20.3651  -49.7785 H         1 UNK         0.0800 
    143 H143        0.9206  -22.0010  -49.0044 H         1 UNK         0.0600 
    144 H144        2.0043  -20.5191  -46.8890 H         1 UNK         0.3000 
    145 H145        2.1213  -23.0062  -44.6217 H         1 UNK         0.0600 
    146 H146        3.3909  -21.0275  -43.8610 H         1 UNK         0.0600 
    147 H147        3.6256  -21.2406  -45.5839 H         1 UNK         0.0600 
    148 H148        2.5406  -19.9819  -44.9870 H         1 UNK         0.0600 
    149 H149        0.8676  -22.2506  -42.9325 H         1 UNK         0.3000 
    150 H150       -0.4854  -19.6067  -42.0227 H         1 UNK         0.0600 
    151 H151       -2.5213  -19.1880  -43.2174 H         1 UNK         0.0600 
    152 H152       -3.0071  -20.1218  -41.8230 H         1 UNK         0.0600 
    153 H153       -2.8868  -20.8976  -43.3965 H         1 UNK         0.0600 
    154 H154       -0.7937  -22.5292  -42.0099 H         1 UNK         0.3000 
    155 H155       -1.7872  -19.7478  -39.8465 H         1 UNK         0.0600 
    156 H156       -2.1127  -21.0473  -37.7712 H         1 UNK         0.0600 
    157 H157       -1.3227  -19.5157  -37.4329 H         1 UNK         0.0600 
    158 H158       -0.3874  -21.0088  -37.4367 H         1 UNK         0.0600 
    159 H159        0.0230  -18.5360  -40.0964 H         1 UNK         0.3000 
    160 H160        3.1939  -18.4106  -38.9158 H         1 UNK         0.0600 
    161 H161        2.8582  -19.4114  -41.7956 H         1 UNK         0.0600 
    162 H162        3.9902  -20.0348  -40.6038 H         1 UNK         0.0600 
    163 H163        4.1889  -18.4041  -41.2256 H         1 UNK         0.0600 
    164 H164        1.9454  -17.1732  -41.2139 H         1 UNK         0.3000 
    165 H165       -0.2983  -15.1174  -39.5082 H         1 UNK         0.0600 
    166 H166        1.6964  -13.7686  -38.8471 H         1 UNK         0.0600 
    167 H167        2.4241  -14.0455  -40.4255 H         1 UNK         0.0600 
    168 H168        0.9399  -13.1044  -40.2867 H         1 UNK         0.0600 
    169 H169        0.7958  -14.8298  -42.1135 H         1 UNK         0.3000 
    170 H170       -0.5296  -17.6237  -43.7095 H         1 UNK         0.0600 
    171 H171       -2.7137  -16.4516  -43.5884 H         1 UNK         0.0600 
    172 H172       -1.9211  -14.9040  -43.8636 H         1 UNK         0.0600 
    173 H173       -1.9248  -16.1362  -45.1256 H         1 UNK         0.0600 
    174 H174        0.3927  -15.1642  -44.7888 H         1 UNK         0.3000 
    175 H175        3.7103  -15.2351  -43.8588 H         1 UNK         0.0600 
    176 H176        3.0521  -16.3231  -46.6361 H         1 UNK         0.0600 
    177 H177        4.5706  -15.5978  -46.1271 H         1 UNK         0.0600 
    178 H178        4.0656  -17.1420  -45.4561 H         1 UNK         0.0600 
    179 H179        2.4874  -14.0097  -46.1393 H         1 UNK         0.3000 
    180 H180        0.5222  -11.6207  -44.4800 H         1 UNK         0.0600 
    181 H181        3.3127  -11.0007  -45.5876 H         1 UNK         0.0600 
    182 H182        1.9785   -9.8552  -45.4602 H         1 UNK         0.0600 
    183 H183        2.7084  -10.5197  -44.0065 H         1 UNK         0.0600 
    184 H184        1.4893  -11.6643  -47.1502 H         1 UNK         0.3000 
    185 H185       -0.2984  -14.3535  -48.4578 H         1 UNK         0.0600 
    186 H186       -1.6362  -12.8192  -49.8560 H         1 UNK         0.0600 
    187 H187       -2.3004  -12.8744  -48.2318 H         1 UNK         0.0600 
    188 H188       -1.3405  -11.4874  -48.7351 H         1 UNK         0.0600 
    189 H189        0.7878  -12.1516  -49.8361 H         1 UNK         0.3000 
    190 H190       -0.7676  -20.0153  -46.6144 H         1 UNK         0.3000 
    191 H191       -3.2420  -19.9686  -48.2301 H         1 UNK         0.0600 
    192 H192       -4.1205  -18.6480  -46.3098 H         1 UNK         0.0600 
    193 H193       -2.6604  -17.9400  -46.9804 H         1 UNK         0.0600 
    194 H194       -2.5885  -18.8374  -45.4698 H         1 UNK         0.0600 
    195 H195       -1.6941  -22.0818  -45.9846 H         1 UNK         0.3000 
    196 H196       -4.2244  -23.3823  -45.1199 H         1 UNK         0.0600 
    197 H197       -2.6813  -24.8691  -43.8305 H         1 UNK         0.0600 
    198 H198       -2.4957  -23.1852  -43.3909 H         1 UNK         0.0600 
    199 H199       -1.2980  -23.9645  -44.4252 H         1 UNK         0.0600 
    200 H200       -1.4023  -23.8394  -47.2125 H         1 UNK         0.3000 
    201 H201       -1.5747  -26.4532  -47.9853 H         1 UNK         0.0600 
    202 H202        0.2819  -24.8848  -48.5097 H         1 UNK         0.0600 
    203 H203       -0.7277  -24.0538  -49.6908 H         1 UNK         0.0600 
    204 H204       -0.2520  -25.7324  -49.9480 H         1 UNK         0.0600 
    205 H205       -3.4530  -27.4089  -48.4470 H         1 UNK         0.3000 
    206 H206       -5.3557  -28.0608  -49.3505 H         1 UNK         0.0600 
    207 H207       -3.9495  -28.3255  -51.4098 H         1 UNK         0.0600 
    208 H208       -5.6241  -27.9699  -51.7995 H         1 UNK         0.0600 
    209 H209       -4.4100  -26.7071  -51.9294 H         1 UNK         0.0600 
    210 H210       -5.4143  -25.6571  -47.8542 H         1 UNK         0.3000 
    211 H211       -6.6399  -23.9252  -47.2477 H         1 UNK         0.0600 
    212 H212       -8.8543  -24.9954  -49.0782 H         1 UNK         0.0600 
    213 H213       -9.0523  -23.8652  -47.7472 H         1 UNK         0.0600 
    214 H214       -8.5633  -25.5194  -47.4201 H         1 UNK         0.0600 
    215 H215       -4.7662  -23.5204  -49.2120 H         1 UNK         0.3000 
    216 H216       -3.8439  -21.8358  -50.2459 H         1 UNK         0.0600 
    217 H217       -6.4276  -20.2404  -50.5037 H         1 UNK         0.0600 
    218 H218       -4.7688  -19.6619  -50.4619 H         1 UNK         0.0600 
    219 H219       -5.5100  -20.2788  -49.0016 H         1 UNK         0.0600 
    220 H220       -5.9522  -23.9481  -51.5430 H         1 UNK         0.3000 
    221 H221       -6.1975  -22.9580  -54.2377 H         1 UNK         0.0600 
    222 H222       -6.4023  -25.8409  -53.2349 H         1 UNK         0.0600 
    223 H223       -7.7307  -24.6803  -53.2241 H         1 UNK         0.0600 
    224 H224       -7.0242  -25.2014  -54.7465 H         1 UNK         0.0600 
    225 H225       -3.6334  -24.6709  -52.4947 H         1 UNK         0.3000 
    226 H226       -2.2262  -25.6160  -54.8439 H         1 UNK         0.0600 
    227 H227       -1.9595  -26.6520  -52.5718 H         1 UNK         0.0600 
    228 H228       -0.4218  -26.1177  -53.2354 H         1 UNK         0.0600 
    229 H229       -1.2158  -25.1590  -51.9956 H         1 UNK         0.0600 
    230 H230       -2.1952  -22.6628  -52.8932 H         1 UNK         0.3000 
    231 H231        0.0259  -21.4114  -54.3482 H         1 UNK         0.0600 
    232 H232       -1.9153  -20.4123  -52.2041 H         1 UNK         0.0600 
    233 H233       -0.2474  -20.9179  -51.9664 H         1 UNK         0.0600 
    234 H234       -0.5980  -19.4545  -52.8727 H         1 UNK         0.0600 
    235 H235       -3.2867  -21.9141  -54.8739 H         1 UNK         0.3000 
    236 H236       -4.8152  -21.3022  -56.3273 H         1 UNK         0.0600 
    237 H237       -3.0284  -21.7795  -58.0073 H         1 UNK         0.0600 
    238 H238       -4.1394  -20.5429  -58.5721 H         1 UNK         0.0600 
    239 H239       -2.5463  -20.0833  -57.9867 H         1 UNK         0.0600 
    240 H240       -4.6146  -19.6955  -54.1111 H         1 UNK         0.3000 
    241 H241       -4.6319  -16.9006  -54.7156 H         1 UNK         0.0600 
    242 H242       -6.4066  -15.3762  -54.8732 H         1 UNK         0.3800 
    243 H243       -8.0239  -15.9259  -55.2037 H         1 UNK         0.3800 
    244 H244       -5.7551  -18.3401  -52.2655 H         1 UNK         0.0800 
    245 H245       -5.4563  -16.6244  -52.3783 H         1 UNK         0.0800 
    246 H246       -3.0444  -15.5116  -52.4654 H         1 UNK         0.0800 
    247 H247       -3.4975  -15.9057  -50.8187 H         1 UNK         0.0800 
@<TRIPOS>BOND
     1    1    2 1    
     2    1  127 1    
     3    1  128 1    
     4    1  129 1    
     5    2    3 2    
     6    2    4 am   BACKBONE|DICT|INTERRES
     7    4    5 1    
     8    4  130 1    
     9    5    6 1    
    10    5   65 1    
    11    5  131 1    
    12    6    7 1    
    13    6  132 1    
    14    6  133 1    
    15    7    8 1    
    16    8    9 1    
    17    8  134 1    
    18    8  135 1    
    19    9   10 ar   
    20    9   14 ar   
    21   10   11 ar   
    22   10  136 1    
    23   11   12 ar   
    24   11  126 1    
    25   12   13 ar   
    26   12  137 1    
    27   13   14 ar   
    28   13   15 1    
    29   14  138 1    
    30   15   16 1    
    31   15  139 1    
    32   15  140 1    
    33   16   17 1    
    34   17   18 1    
    35   17  141 1    
    36   17  142 1    
    37   18   19 1    
    38   18   67 1    
    39   18  143 1    
    40   19   20 am   BACKBONE|DICT|INTERRES
    41   19  144 1    
    42   20   21 2    
    43   20   22 1    
    44   22   23 1    
    45   22   24 1    
    46   22  145 1    
    47   23  146 1    
    48   23  147 1    
    49   23  148 1    
    50   24   25 am   BACKBONE|DICT|INTERRES
    51   24  149 1    
    52   25   26 2    
    53   25   27 1    
    54   27   28 1    
    55   27   29 1    
    56   27  150 1    
    57   28  151 1    
    58   28  152 1    
    59   28  153 1    
    60   29   30 am   BACKBONE|DICT|INTERRES
    61   29  154 1    
    62   30   31 2    
    63   30   32 1    
    64   32   33 1    
    65   32   34 1    
    66   32  155 1    
    67   33  156 1    
    68   33  157 1    
    69   33  158 1    
    70   34   35 am   BACKBONE|DICT|INTERRES
    71   34  159 1    
    72   35   36 2    
    73   35   37 1    
    74   37   38 1    
    75   37   39 1    
    76   37  160 1    
    77   38  161 1    
    78   38  162 1    
    79   38  163 1    
    80   39   40 am   BACKBONE|DICT|INTERRES
    81   39  164 1    
    82   40   41 2    
    83   40   42 1    
    84   42   43 1    
    85   42   44 1    
    86   42  165 1    
    87   43  166 1    
    88   43  167 1    
    89   43  168 1    
    90   44   45 am   BACKBONE|DICT|INTERRES
    91   44  169 1    
    92   45   46 2    
    93   45   47 1    
    94   47   48 1    
    95   47   49 1    
    96   47  170 1    
    97   48  171 1    
    98   48  172 1    
    99   48  173 1    
   100   49   50 am   BACKBONE|DICT|INTERRES
   101   49  174 1    
   102   50   51 2    
   103   50   52 1    
   104   52   53 1    
   105   52   54 1    
   106   52  175 1    
   107   53  176 1    
   108   53  177 1    
   109   53  178 1    
   110   54   55 am   BACKBONE|DICT|INTERRES
   111   54  179 1    
   112   55   56 2    
   113   55   57 1    
   114   57   58 1    
   115   57   59 1    
   116   57  180 1    
   117   58  181 1    
   118   58  182 1    
   119   58  183 1    
   120   59   60 am   BACKBONE|DICT|INTERRES
   121   59  184 1    
   122   60   61 2    
   123   60   62 1    
   124   62   63 1    
   125   62   64 1    
   126   62  185 1    
   127   63  186 1    
   128   63  187 1    
   129   63  188 1    
   130   64   65 am   BACKBONE|DICT|INTERRES
   131   64  189 1    
   132   65   66 2    
   133   67   68 2    
   134   67   69 am   BACKBONE|DICT|INTERRES
   135   69   70 1    
   136   69  190 1    
   137   70   71 1    
   138   70   72 1    
   139   70  191 1    
   140   71  192 1    
   141   71  193 1    
   142   71  194 1    
   143   72   73 2    
   144   72   74 am   BACKBONE|DICT|INTERRES
   145   74   75 1    
   146   74  195 1    
   147   75   76 1    
   148   75   77 1    
   149   75  196 1    
   150   76  197 1    
   151   76  198 1    
   152   76  199 1    
   153   77   78 2    
   154   77   79 am   BACKBONE|DICT|INTERRES
   155   79   80 1    
   156   79  200 1    
   157   80   81 1    
   158   80   82 1    
   159   80  201 1    
   160   81  202 1    
   161   81  203 1    
   162   81  204 1    
   163   82   83 2    
   164   82   84 am   BACKBONE|DICT|INTERRES
   165   84   85 1    
   166   84  205 1    
   167   85   86 1    
   168   85   87 1    
   169   85  206 1    
   170   86  207 1    
   171   86  208 1    
   172   86  209 1    
   173   87   88 2    
   174   87   89 am   BACKBONE|DICT|INTERRES
   175   89   90 1    
   176   89  210 1    
   177   90   91 1    
   178   90   92 1    
   179   90  211 1    
   180   91  212 1    
   181   91  213 1    
   182   91  214 1    
   183   92   93 2    
   184   92   94 am   BACKBONE|DICT|INTERRES
   185   94   95 1    
   186   94  215 1    
   187   95   96 1    
   188   95   97 1    
   189   95  216 1    
   190   96  217 1    
   191   96  218 1    
   192   96  219 1    
   193   97   98 2    
   194   97   99 am   BACKBONE|DICT|INTERRES
   195   99  100 1    
   196   99  220 1    
   197  100  101 1    
   198  100  102 1    
   199  100  221 1    
   200  101  222 1    
   201  101  223 1    
   202  101  224 1    
   203  102  103 2    
   204  102  104 am   BACKBONE|DICT|INTERRES
   205  104  105 1    
   206  104  225 1    
   207  105  106 1    
   208  105  107 1    
   209  105  226 1    
   210  106  227 1    
   211  106  228 1    
   212  106  229 1    
   213  107  108 2    
   214  107  109 am   BACKBONE|DICT|INTERRES
   215  109  110 1    
   216  109  230 1    
   217  110  111 1    
   218  110  112 1    
   219  110  231 1    
   220  111  232 1    
   221  111  233 1    
   222  111  234 1    
   223  112  113 2    
   224  112  114 am   BACKBONE|DICT|INTERRES
   225  114  115 1    
   226  114  235 1    
   227  115  116 1    
   228  115  117 1    
   229  115  236 1    
   230  116  237 1    
   231  116  238 1    
   232  116  239 1    
   233  117  118 2    
   234  117  119 am   BACKBONE|DICT|INTERRES
   235  119  120 1    
   236  119  240 1    
   237  120  121 1    
   238  120  124 1    
   239  120  241 1    
   240  121  122 am   BACKBONE|DICT|INTERRES
   241  121  123 2    
   242  122  242 1    
   243  122  243 1    
   244  124  125 1    
   245  124  244 1    
   246  124  245 1    
   247  125  126 1    
   248  126  246 1    
   249  126  247 1    
@<TRIPOS>SUBSTRUCTURE
     1 UNK         1 GROUP             0       ****    0 ROOT    
