@<TRIPOS>MOLECULE
3R540
247   249    1
SMALL
USER_CHARGES


@<TRIPOS>ATOM
      1 CA         -0.4520  -14.0328  -48.1271 C.3       0 UNK        -0.1800 
      2 C           0.9407  -13.4481  -48.2902 C.2       0 UNK         0.5000 
      3 O           1.3636  -12.6105  -47.4922 O.2       0 UNK        -0.5000 
      4 N           1.6650  -13.9069  -49.3187 N.am      1 UNK        -0.5000 
      5 CA          2.9831  -13.3989  -49.7335 C.3       1 UNK         0.1400 
      6 C6          3.4009  -13.8919  -51.1432 C.3       23 UNK        -0.0398 
      7 S7          2.0667  -13.7456  -52.3865 S.3       23 UNK        -0.2404 
      8 C8          1.7458  -15.4877  -52.8197 C.3       23 UNK        -0.0205 
      9 C9          1.2801  -16.3176  -51.6304 C.ar      23 UNK        -0.0193 
     10 C10        -0.0529  -16.2739  -51.2135 C.ar      23 UNK        -0.1150 
     11 C11        -0.4891  -17.0704  -50.1503 C.ar      23 UNK        -0.0193 
     12 C12         0.4302  -17.8742  -49.4704 C.ar      23 UNK        -0.1150 
     13 C13         1.7713  -17.9174  -49.8663 C.ar      23 UNK        -0.0193 
     14 C14         2.1818  -17.1472  -50.9576 C.ar      23 UNK        -0.1150 
     15 C15         2.7960  -18.7615  -49.1152 C.3       23 UNK        -0.0205 
     16 S16         2.3292  -20.5182  -48.9771 S.3       23 UNK        -0.2404 
     17 C17         1.7164  -20.5474  -47.2599 C.3       23 UNK        -0.0398 
     18 CA          1.0183  -21.8578  -46.8299 C.3       11 UNK         0.1400 
     19 N           0.6967  -21.8178  -45.4031 N.am      11 UNK        -0.5000 
     20 C           0.2113  -22.8337  -44.6786 C.2       10 UNK         0.5000 
     21 O           0.0204  -23.9654  -45.1220 O.2       10 UNK        -0.5000 
     22 CA         -0.1704  -22.5115  -43.2225 C.3       10 UNK         0.1400 
     23 CB          1.0745  -22.4864  -42.3233 C.3       10 UNK        -0.1800 
     24 N          -0.8937  -21.2435  -43.1003 N.am      10 UNK        -0.5000 
     25 C          -2.0938  -21.0050  -43.6496 C.2       9 UNK         0.5000 
     26 O          -2.7335  -21.8435  -44.2830 O.2       9 UNK        -0.5000 
     27 CA         -2.6606  -19.5827  -43.5064 C.3       9 UNK         0.1400 
     28 CB         -3.2619  -19.3739  -42.1087 C.3       9 UNK        -0.1800 
     29 N          -1.6656  -18.5465  -43.7819 N.am      9 UNK        -0.5000 
     30 C          -1.0653  -18.3638  -44.9672 C.2       8 UNK         0.5000 
     31 O          -1.3067  -19.0326  -45.9709 O.2       8 UNK        -0.5000 
     32 CA          0.0266  -17.2832  -45.0333 C.3       8 UNK         0.1400 
     33 CB         -0.5979  -15.8837  -45.1158 C.3       8 UNK        -0.1800 
     34 N           0.9444  -17.3437  -43.8976 N.am      8 UNK        -0.5000 
     35 C           1.7188  -18.3934  -43.5893 C.2       7 UNK         0.5000 
     36 O           1.7867  -19.4184  -44.2656 O.2       7 UNK        -0.5000 
     37 CA          2.5074  -18.3042  -42.2735 C.3       7 UNK         0.1400 
     38 CB          3.7726  -17.4525  -42.4435 C.3       7 UNK        -0.1800 
     39 N           1.6915  -17.7626  -41.1886 N.am      7 UNK        -0.5000 
     40 C           0.6573  -18.4058  -40.6292 C.2       6 UNK         0.5000 
     41 O           0.2914  -19.5346  -40.9575 O.2       6 UNK        -0.5000 
     42 CA         -0.1197  -17.6376  -39.5460 C.3       6 UNK         0.1400 
     43 CB          0.5932  -17.7395  -38.1893 C.3       6 UNK        -0.1800 
     44 N          -0.3137  -16.2281  -39.8905 N.am      6 UNK        -0.5000 
     45 C          -1.0811  -15.8029  -40.9033 C.2       5 UNK         0.5000 
     46 O          -1.7061  -16.5534  -41.6513 O.2       5 UNK        -0.5000 
     47 CA         -1.1264  -14.2848  -41.1452 C.3       5 UNK         0.1400 
     48 CB         -2.1200  -13.6127  -40.1857 C.3       5 UNK        -0.1800 
     49 N           0.1791  -13.6269  -41.0368 N.am      5 UNK        -0.5000 
     50 C           1.2343  -13.8983  -41.8148 C.2       4 UNK         0.5000 
     51 O           1.2698  -14.8188  -42.6347 O.2       4 UNK        -0.5000 
     52 CA          2.4548  -12.9858  -41.6726 C.3       4 UNK         0.1400 
     53 CB          3.5714  -13.6593  -40.8587 C.3       4 UNK        -0.1800 
     54 N           2.9183  -12.6923  -43.0219 N.am      4 UNK        -0.5000 
     55 C           3.5051  -11.5606  -43.4218 C.2       3 UNK         0.5000 
     56 O           3.8207  -10.6524  -42.6505 O.2       3 UNK        -0.5000 
     57 CA          3.7375  -11.3990  -44.9402 C.3       3 UNK         0.1400 
     58 CB          4.9423  -10.4926  -45.2706 C.3       3 UNK        -0.1800 
     59 N           3.8130  -12.6651  -45.6804 N.am      3 UNK        -0.5000 
     60 C           4.7624  -13.6116  -45.5852 C.2       2 UNK         0.5000 
     61 O           5.6953  -13.5701  -44.7828 O.2       2 UNK        -0.5000 
     62 CA          4.6628  -14.8124  -46.5524 C.3       2 UNK         0.1400 
     63 CB          4.1075  -16.0432  -45.8199 C.3       2 UNK        -0.1800 
     64 N           3.8286  -14.5517  -47.7261 N.am      2 UNK        -0.5000 
     65 C           4.1037  -13.6761  -48.7044 C.2       1 UNK         0.5000 
     66 O           5.1755  -13.0772  -48.7993 O.2       1 UNK        -0.5000 
     67 C          -0.2276  -22.1845  -47.6807 C.2       11 UNK         0.5000 
     68 O          -0.1728  -23.0986  -48.5034 O.2       11 UNK        -0.5000 
     69 N          -1.3415  -21.4821  -47.4270 N.am      12 UNK        -0.5000 
     70 CA         -2.6334  -21.7171  -48.0708 C.3       12 UNK         0.1400 
     71 CB         -3.6385  -20.6443  -47.6301 C.3       12 UNK        -0.1800 
     72 C          -3.1902  -23.1253  -47.7998 C.2       12 UNK         0.5000 
     73 O          -3.6412  -23.7821  -48.7365 O.2       12 UNK        -0.5000 
     74 N          -3.1199  -23.5802  -46.5412 N.am      13 UNK        -0.5000 
     75 CA         -3.5423  -24.9172  -46.1197 C.3       13 UNK         0.1400 
     76 CB         -3.4916  -25.0174  -44.5878 C.3       13 UNK        -0.1800 
     77 C          -2.7157  -26.0434  -46.7670 C.2       13 UNK         0.5000 
     78 O          -3.2865  -27.0625  -47.1566 O.2       13 UNK        -0.5000 
     79 N          -1.3980  -25.8319  -46.8911 N.am      14 UNK        -0.5000 
     80 CA         -0.4754  -26.7408  -47.5702 C.3       14 UNK         0.1400 
     81 CB          0.9725  -26.3404  -47.2479 C.3       14 UNK        -0.1800 
     82 C          -0.7043  -26.7873  -49.0921 C.2       14 UNK         0.5000 
     83 O          -0.6526  -27.8700  -49.6774 O.2       14 UNK        -0.5000 
     84 N          -0.9558  -25.6204  -49.7022 N.am      15 UNK        -0.5000 
     85 CA         -1.2359  -25.4757  -51.1309 C.3       15 UNK         0.1400 
     86 CB         -1.1247  -23.9974  -51.5255 C.3       15 UNK        -0.1800 
     87 C          -2.6036  -26.0575  -51.5376 C.2       15 UNK         0.5000 
     88 O          -2.6922  -26.6813  -52.5951 O.2       15 UNK        -0.5000 
     89 N          -3.6149  -25.8697  -50.6747 N.am      16 UNK        -0.5000 
     90 CA         -4.9833  -26.3919  -50.7478 C.3       16 UNK         0.1400 
     91 CB         -4.9761  -27.9276  -50.5999 C.3       16 UNK        -0.1800 
     92 C          -5.7365  -25.9256  -52.0181 C.2       16 UNK         0.5000 
     93 O          -5.7799  -26.6626  -53.0033 O.2       16 UNK        -0.5000 
     94 N          -6.3249  -24.7232  -52.0406 N.am      17 UNK        -0.5000 
     95 CA         -6.4243  -23.7250  -50.9785 C.3       17 UNK         0.1400 
     96 CB         -7.6359  -24.0406  -50.0810 C.3       17 UNK        -0.1800 
     97 C          -6.5575  -22.3347  -51.6187 C.2       17 UNK         0.5000 
     98 O          -6.6950  -22.2405  -52.8432 O.2       17 UNK        -0.5000 
     99 N          -6.4985  -21.2877  -50.7826 N.am      18 UNK        -0.5000 
    100 CA        -6.5935  -19.8710  -51.1508 C.3       18 UNK         0.1400 
    101 CB        -6.4907  -19.0091  -49.8814 C.3       18 UNK        -0.1800 
    102 C         -7.8790  -19.5503  -51.9396 C.2       18 UNK         0.5000 
    103 O         -8.9487  -19.4446  -51.3375 O.2       18 UNK        -0.5000 
    104 N         -7.7255  -19.4487  -53.2643 N.am      19 UNK        -0.5000 
    105 CA        -8.7205  -19.2902  -54.3304 C.3       19 UNK         0.1400 
    106 CB       -10.0884  -19.9414  -54.0256 C.3       19 UNK        -0.1800 
    107 C         -8.1326  -19.9326  -55.5945 C.2       19 UNK         0.5000 
    108 O         -8.0907  -19.2932  -56.6459 O.2       19 UNK        -0.5000 
    109 N         -7.6559  -21.1770  -55.4483 N.am      20 UNK        -0.5000 
    110 CA        -6.8574  -21.8873  -56.4458 C.3       20 UNK         0.1400 
    111 CB        -7.1094  -23.3986  -56.3223 C.3       20 UNK        -0.1800 
    112 C         -5.3706  -21.5565  -56.2413 C.2       20 UNK         0.5000 
    113 O         -4.6721  -21.2308  -57.2021 O.2       20 UNK        -0.5000 
    114 N         -4.9368  -21.5994  -54.9757 N.am      21 UNK        -0.5000 
    115 CA        -3.6698  -21.0571  -54.5010 C.3       21 UNK         0.1400 
    116 CB        -3.2458  -21.8349  -53.2450 C.3       21 UNK        -0.1800 
    117 C         -3.8268  -19.5605  -54.1774 C.2       21 UNK         0.5000 
    118 O         -4.9481  -19.0431  -54.1575 O.2       21 UNK        -0.5000 
    119 N         -2.6943  -18.9079  -53.8949 N.am      22 UNK        -0.5000 
    120 CA        -2.5801  -17.4921  -53.4967 C.3       22 UNK         0.1400 
    121 C         -2.8512  -16.4646  -54.6390 C.2       22 UNK         0.5000 
    122 N         -2.9318  -16.8751  -55.8987 N.am      22 UNK        -0.7600 
    123 O         -2.9547  -15.2670  -54.3880 O.2       22 UNK        -0.5000 
    124 C124       -3.3618  -17.1409  -52.1950 C.3       23 UNK        -0.0398 
    125 S125       -2.9403  -18.2007  -50.7654 S.3       23 UNK        -0.2404 
    126 C126       -1.9510  -17.0729  -49.7307 C.3       23 UNK        -0.0205 
    127 H127       -0.9511  -13.6093  -47.2554 H         1 UNK         0.0600 
    128 H128       -0.3942  -15.1128  -47.9997 H         1 UNK         0.0600 
    129 H129       -1.0602  -13.8191  -49.0061 H         1 UNK         0.0600 
    130 H130        1.2633  -14.6005  -49.9358 H         1 UNK         0.3000 
    131 H131        2.8881  -12.3123  -49.7900 H         1 UNK         0.0600 
    132 H132        4.2470  -13.3031  -51.5017 H         1 UNK         0.0800 
    133 H133        3.7611  -14.9192  -51.1063 H         1 UNK         0.0800 
    134 H134        0.9856  -15.5197  -53.6017 H         1 UNK         0.0800 
    135 H135        2.6467  -15.9197  -53.2585 H         1 UNK         0.0800 
    136 H136       -0.7541  -15.6354  -51.7322 H         1 UNK         0.1150 
    137 H137        0.0891  -18.4756  -48.6417 H         1 UNK         0.1150 
    138 H138        3.2125  -17.1873  -51.2807 H         1 UNK         0.1150 
    139 H139        3.7641  -18.7158  -49.6163 H         1 UNK         0.0800 
    140 H140        2.9526  -18.3319  -48.1255 H         1 UNK         0.0800 
    141 H141        1.0563  -19.6979  -47.0924 H         1 UNK         0.0800 
    142 H142        2.5814  -20.3785  -46.6170 H         1 UNK         0.0800 
    143 H143        1.7285  -22.6752  -46.9716 H         1 UNK         0.0600 
    144 H144        0.8626  -20.9297  -44.9364 H         1 UNK         0.3000 
    145 H145       -0.8289  -23.3072  -42.8684 H         1 UNK         0.0600 
    146 H146        0.8011  -22.3449  -41.2776 H         1 UNK         0.0600 
    147 H147        1.6253  -23.4253  -42.3918 H         1 UNK         0.0600 
    148 H148        1.7569  -21.6826  -42.6011 H         1 UNK         0.0600 
    149 H149       -0.4446  -20.5125  -42.5574 H         1 UNK         0.3000 
    150 H150       -3.4634  -19.4725  -44.2382 H         1 UNK         0.0600 
    151 H151       -4.0051  -20.1398  -41.8839 H         1 UNK         0.0600 
    152 H152       -3.7601  -18.4071  -42.0358 H         1 UNK         0.0600 
    153 H153       -2.4991  -19.4163  -41.3308 H         1 UNK         0.0600 
    154 H154       -1.4433  -17.9182  -43.0150 H         1 UNK         0.3000 
    155 H155        0.6074  -17.4514  -45.9425 H         1 UNK         0.0600 
    156 H156       -1.1119  -15.6173  -44.1925 H         1 UNK         0.0600 
    157 H157       -1.3307  -15.8293  -45.9212 H         1 UNK         0.0600 
    158 H158        0.1613  -15.1245  -45.3048 H         1 UNK         0.0600 
    159 H159        0.9789  -16.5188  -43.3029 H         1 UNK         0.3000 
    160 H160        2.8139  -19.3150  -41.9957 H         1 UNK         0.0600 
    161 H161        3.5369  -16.4402  -42.7723 H         1 UNK         0.0600 
    162 H162        4.4369  -17.8952  -43.1862 H         1 UNK         0.0600 
    163 H163        4.3317  -17.3821  -41.5105 H         1 UNK         0.0600 
    164 H164        1.8901  -16.8180  -40.8955 H         1 UNK         0.3000 
    165 H165       -1.1031  -18.1028  -39.4498 H         1 UNK         0.0600 
    166 H166        0.0089  -17.2649  -37.4008 H         1 UNK         0.0600 
    167 H167        0.7377  -18.7820  -37.9025 H         1 UNK         0.0600 
    168 H168        1.5754  -17.2658  -38.2113 H         1 UNK         0.0600 
    169 H169        0.1721  -15.5438  -39.3298 H         1 UNK         0.3000 
    170 H170       -1.4865  -14.1297  -42.1644 H         1 UNK         0.0600 
    171 H171       -3.1056  -14.0748  -40.2574 H         1 UNK         0.0600 
    172 H172       -1.7954  -13.6911  -39.1474 H         1 UNK         0.0600 
    173 H173       -2.2416  -12.5552  -40.4207 H         1 UNK         0.0600 
    174 H174        0.2392  -12.8603  -40.3821 H         1 UNK         0.3000 
    175 H175        2.1502  -12.0614  -41.1770 H         1 UNK         0.0600 
    176 H176        3.9253  -14.5724  -41.3368 H         1 UNK         0.0600 
    177 H177        4.4267  -12.9938  -40.7418 H         1 UNK         0.0600 
    178 H178        3.2238  -13.9219  -39.8589 H         1 UNK         0.0600 
    179 H179        2.6576  -13.3840  -43.7127 H         1 UNK         0.3000 
    180 H180        2.8459  -10.8966  -45.3181 H         1 UNK         0.0600 
    181 H181        5.8709  -10.8837  -44.8541 H         1 UNK         0.0600 
    182 H182        4.8012   -9.4898  -44.8658 H         1 UNK         0.0600 
    183 H183        5.0742  -10.3899  -46.3478 H         1 UNK         0.0600 
    184 H184        3.0715  -12.8009  -46.3605 H         1 UNK         0.3000 
    185 H185        5.6725  -15.0418  -46.8987 H         1 UNK         0.0600 
    186 H186        4.7434  -16.3015  -44.9734 H         1 UNK         0.0600 
    187 H187        3.1010  -15.8680  -45.4374 H         1 UNK         0.0600 
    188 H188        4.0742  -16.9144  -46.4734 H         1 UNK         0.0600 
    189 H189        2.9208  -14.9921  -47.7411 H         1 UNK         0.3000 
    190 H190       -1.3072  -20.7210  -46.7526 H         1 UNK         0.3000 
    191 H191       -2.4883  -21.6211  -49.1490 H         1 UNK         0.0600 
    192 H192       -3.3191  -19.6518  -47.9480 H         1 UNK         0.0600 
    193 H193       -4.6207  -20.8295  -48.0646 H         1 UNK         0.0600 
    194 H194       -3.7590  -20.6248  -46.5469 H         1 UNK         0.0600 
    195 H195       -2.7777  -22.9605  -45.8107 H         1 UNK         0.3000 
    196 H196       -4.5799  -25.0494  -46.4329 H         1 UNK         0.0600 
    197 H197       -3.8129  -26.0030  -44.2488 H         1 UNK         0.0600 
    198 H198       -4.1501  -24.2832  -44.1234 H         1 UNK         0.0600 
    199 H199       -2.4836  -24.8503  -44.2070 H         1 UNK         0.0600 
    200 H200       -0.9955  -24.9903  -46.4894 H         1 UNK         0.3000 
    201 H201       -0.6420  -27.7463  -47.1780 H         1 UNK         0.0600 
    202 H202        1.1637  -26.3863  -46.1757 H         1 UNK         0.0600 
    203 H203        1.1949  -25.3268  -47.5829 H         1 UNK         0.0600 
    204 H204        1.6815  -27.0113  -47.7344 H         1 UNK         0.0600 
    205 H205       -0.9122  -24.7630  -49.1579 H         1 UNK         0.3000 
    206 H206       -0.4662  -26.0246  -51.6776 H         1 UNK         0.0600 
    207 H207       -0.1474  -23.5907  -51.2647 H         1 UNK         0.0600 
    208 H208       -1.2455  -23.8783  -52.6021 H         1 UNK         0.0600 
    209 H209       -1.8828  -23.3895  -51.0302 H         1 UNK         0.0600 
    210 H210       -3.4358  -25.2690  -49.8734 H         1 UNK         0.3000 
    211 H211       -5.5035  -26.0065  -49.8723 H         1 UNK         0.0600 
    212 H212       -4.4470  -28.4179  -51.4176 H         1 UNK         0.0600 
    213 H213       -5.9931  -28.3209  -50.5862 H         1 UNK         0.0600 
    214 H214       -4.4980  -28.2280  -49.6671 H         1 UNK         0.0600 
    215 H215       -6.7341  -24.4030  -52.9080 H         1 UNK         0.3000 
    216 H216       -5.5095  -23.7198  -50.3904 H         1 UNK         0.0600 
    217 H217       -7.7026  -23.3416  -49.2466 H         1 UNK         0.0600 
    218 H218       -7.5795  -25.0409  -49.6537 H         1 UNK         0.0600 
    219 H219       -8.5711  -23.9746  -50.6386 H         1 UNK         0.0600 
    220 H220       -6.4131  -21.4720  -49.7946 H         1 UNK         0.3000 
    221 H221       -5.7295  -19.6363  -51.7721 H         1 UNK         0.0600 
    222 H222       -7.2632  -19.2622  -49.1544 H         1 UNK         0.0600 
    223 H223       -5.5218  -19.1287  -49.3997 H         1 UNK         0.0600 
    224 H224       -6.5974  -17.9503  -50.1207 H         1 UNK         0.0600 
    225 H225       -6.7720  -19.5008  -53.6178 H         1 UNK         0.3000 
    226 H226       -8.8596  -18.2237  -54.5142 H         1 UNK         0.0600 
    227 H227      -10.6393  -19.3792  -53.2722 H         1 UNK         0.0600 
    228 H228      -10.7184  -19.9651  -54.9159 H         1 UNK         0.0600 
    229 H229       -9.9814  -20.9678  -53.6726 H         1 UNK         0.0600 
    230 H230       -7.6913  -21.5926  -54.5237 H         1 UNK         0.3000 
    231 H231       -7.1479  -21.5717  -57.4501 H         1 UNK         0.0600 
    232 H232       -6.8407  -23.7773  -55.3354 H         1 UNK         0.0600 
    233 H233       -6.5236  -23.9519  -57.0573 H         1 UNK         0.0600 
    234 H234       -8.1588  -23.6364  -56.4965 H         1 UNK         0.0600 
    235 H235       -5.6016  -21.8511  -54.2492 H         1 UNK         0.3000 
    236 H236       -2.9062  -21.1791  -55.2719 H         1 UNK         0.0600 
    237 H237       -3.2994  -22.9113  -53.4091 H         1 UNK         0.0600 
    238 H238       -2.2191  -21.5945  -52.9680 H         1 UNK         0.0600 
    239 H239       -3.8729  -21.5959  -52.3864 H         1 UNK         0.0600 
    240 H240       -1.8213  -19.4138  -53.9302 H         1 UNK         0.3000 
    241 H241       -1.5216  -17.3618  -53.2771 H         1 UNK         0.0600 
    242 H242       -3.0953  -16.2011  -56.6301 H         1 UNK         0.3800 
    243 H243       -2.8446  -17.8520  -56.1275 H         1 UNK         0.3800 
    244 H244       -3.1914  -16.0998  -51.9192 H         1 UNK         0.0800 
    245 H245       -4.4361  -17.2192  -52.3643 H         1 UNK         0.0800 
    246 H246       -2.0367  -17.3969  -48.6919 H         1 UNK         0.0800 
    247 H247       -2.3605  -16.0626  -49.7619 H         1 UNK         0.0800 
@<TRIPOS>BOND
     1    1    2 1    
     2    1  127 1    
     3    1  128 1    
     4    1  129 1    
     5    2    3 2    
     6    2    4 am   BACKBONE|DICT|INTERRES
     7    4    5 1    
     8    4  130 1    
     9    5    6 1    
    10    5   65 1    
    11    5  131 1    
    12    6    7 1    
    13    6  132 1    
    14    6  133 1    
    15    7    8 1    
    16    8    9 1    
    17    8  134 1    
    18    8  135 1    
    19    9   10 ar   
    20    9   14 ar   
    21   10   11 ar   
    22   10  136 1    
    23   11   12 ar   
    24   11  126 1    
    25   12   13 ar   
    26   12  137 1    
    27   13   14 ar   
    28   13   15 1    
    29   14  138 1    
    30   15   16 1    
    31   15  139 1    
    32   15  140 1    
    33   16   17 1    
    34   17   18 1    
    35   17  141 1    
    36   17  142 1    
    37   18   19 1    
    38   18   67 1    
    39   18  143 1    
    40   19   20 am   BACKBONE|DICT|INTERRES
    41   19  144 1    
    42   20   21 2    
    43   20   22 1    
    44   22   23 1    
    45   22   24 1    
    46   22  145 1    
    47   23  146 1    
    48   23  147 1    
    49   23  148 1    
    50   24   25 am   BACKBONE|DICT|INTERRES
    51   24  149 1    
    52   25   26 2    
    53   25   27 1    
    54   27   28 1    
    55   27   29 1    
    56   27  150 1    
    57   28  151 1    
    58   28  152 1    
    59   28  153 1    
    60   29   30 am   BACKBONE|DICT|INTERRES
    61   29  154 1    
    62   30   31 2    
    63   30   32 1    
    64   32   33 1    
    65   32   34 1    
    66   32  155 1    
    67   33  156 1    
    68   33  157 1    
    69   33  158 1    
    70   34   35 am   BACKBONE|DICT|INTERRES
    71   34  159 1    
    72   35   36 2    
    73   35   37 1    
    74   37   38 1    
    75   37   39 1    
    76   37  160 1    
    77   38  161 1    
    78   38  162 1    
    79   38  163 1    
    80   39   40 am   BACKBONE|DICT|INTERRES
    81   39  164 1    
    82   40   41 2    
    83   40   42 1    
    84   42   43 1    
    85   42   44 1    
    86   42  165 1    
    87   43  166 1    
    88   43  167 1    
    89   43  168 1    
    90   44   45 am   BACKBONE|DICT|INTERRES
    91   44  169 1    
    92   45   46 2    
    93   45   47 1    
    94   47   48 1    
    95   47   49 1    
    96   47  170 1    
    97   48  171 1    
    98   48  172 1    
    99   48  173 1    
   100   49   50 am   BACKBONE|DICT|INTERRES
   101   49  174 1    
   102   50   51 2    
   103   50   52 1    
   104   52   53 1    
   105   52   54 1    
   106   52  175 1    
   107   53  176 1    
   108   53  177 1    
   109   53  178 1    
   110   54   55 am   BACKBONE|DICT|INTERRES
   111   54  179 1    
   112   55   56 2    
   113   55   57 1    
   114   57   58 1    
   115   57   59 1    
   116   57  180 1    
   117   58  181 1    
   118   58  182 1    
   119   58  183 1    
   120   59   60 am   BACKBONE|DICT|INTERRES
   121   59  184 1    
   122   60   61 2    
   123   60   62 1    
   124   62   63 1    
   125   62   64 1    
   126   62  185 1    
   127   63  186 1    
   128   63  187 1    
   129   63  188 1    
   130   64   65 am   BACKBONE|DICT|INTERRES
   131   64  189 1    
   132   65   66 2    
   133   67   68 2    
   134   67   69 am   BACKBONE|DICT|INTERRES
   135   69   70 1    
   136   69  190 1    
   137   70   71 1    
   138   70   72 1    
   139   70  191 1    
   140   71  192 1    
   141   71  193 1    
   142   71  194 1    
   143   72   73 2    
   144   72   74 am   BACKBONE|DICT|INTERRES
   145   74   75 1    
   146   74  195 1    
   147   75   76 1    
   148   75   77 1    
   149   75  196 1    
   150   76  197 1    
   151   76  198 1    
   152   76  199 1    
   153   77   78 2    
   154   77   79 am   BACKBONE|DICT|INTERRES
   155   79   80 1    
   156   79  200 1    
   157   80   81 1    
   158   80   82 1    
   159   80  201 1    
   160   81  202 1    
   161   81  203 1    
   162   81  204 1    
   163   82   83 2    
   164   82   84 am   BACKBONE|DICT|INTERRES
   165   84   85 1    
   166   84  205 1    
   167   85   86 1    
   168   85   87 1    
   169   85  206 1    
   170   86  207 1    
   171   86  208 1    
   172   86  209 1    
   173   87   88 2    
   174   87   89 am   BACKBONE|DICT|INTERRES
   175   89   90 1    
   176   89  210 1    
   177   90   91 1    
   178   90   92 1    
   179   90  211 1    
   180   91  212 1    
   181   91  213 1    
   182   91  214 1    
   183   92   93 2    
   184   92   94 am   BACKBONE|DICT|INTERRES
   185   94   95 1    
   186   94  215 1    
   187   95   96 1    
   188   95   97 1    
   189   95  216 1    
   190   96  217 1    
   191   96  218 1    
   192   96  219 1    
   193   97   98 2    
   194   97   99 am   BACKBONE|DICT|INTERRES
   195   99  100 1    
   196   99  220 1    
   197  100  101 1    
   198  100  102 1    
   199  100  221 1    
   200  101  222 1    
   201  101  223 1    
   202  101  224 1    
   203  102  103 2    
   204  102  104 am   BACKBONE|DICT|INTERRES
   205  104  105 1    
   206  104  225 1    
   207  105  106 1    
   208  105  107 1    
   209  105  226 1    
   210  106  227 1    
   211  106  228 1    
   212  106  229 1    
   213  107  108 2    
   214  107  109 am   BACKBONE|DICT|INTERRES
   215  109  110 1    
   216  109  230 1    
   217  110  111 1    
   218  110  112 1    
   219  110  231 1    
   220  111  232 1    
   221  111  233 1    
   222  111  234 1    
   223  112  113 2    
   224  112  114 am   BACKBONE|DICT|INTERRES
   225  114  115 1    
   226  114  235 1    
   227  115  116 1    
   228  115  117 1    
   229  115  236 1    
   230  116  237 1    
   231  116  238 1    
   232  116  239 1    
   233  117  118 2    
   234  117  119 am   BACKBONE|DICT|INTERRES
   235  119  120 1    
   236  119  240 1    
   237  120  121 1    
   238  120  124 1    
   239  120  241 1    
   240  121  122 am   BACKBONE|DICT|INTERRES
   241  121  123 2    
   242  122  242 1    
   243  122  243 1    
   244  124  125 1    
   245  124  244 1    
   246  124  245 1    
   247  125  126 1    
   248  126  246 1    
   249  126  247 1    
@<TRIPOS>SUBSTRUCTURE
     1 UNK         1 GROUP             0       ****    0 ROOT    
