@<TRIPOS>MOLECULE
3R540
247   249    1
SMALL
USER_CHARGES


@<TRIPOS>ATOM
      1 CA         -0.9485  -10.8124  -45.7300 C.3       0 UNK        -0.1800 
      2 C           0.0811  -10.8129  -46.8500 C.2       0 UNK         0.5000 
      3 O           0.7323   -9.7942  -47.0807 O.2       0 UNK        -0.5000 
      4 N           0.2353  -11.9492  -47.5428 N.am      1 UNK        -0.5000 
      5 CA          1.0978  -12.1190  -48.7212 C.3       1 UNK         0.1400 
      6 C6          0.8495  -13.4777  -49.4231 C.3       23 UNK        -0.0398 
      7 S7          1.2382  -14.9319  -48.3809 S.3       23 UNK        -0.2404 
      8 C8          2.7480  -15.5614  -49.1814 C.3       23 UNK        -0.0205 
      9 C9          2.4467  -16.7190  -50.1216 C.ar      23 UNK        -0.0193 
     10 C10         1.7158  -16.5118  -51.2946 C.ar      23 UNK        -0.1150 
     11 C11         1.4301  -17.5766  -52.1536 C.ar      23 UNK        -0.0193 
     12 C12         1.8975  -18.8568  -51.8409 C.ar      23 UNK        -0.1150 
     13 C13         2.6378  -19.0777  -50.6752 C.ar      23 UNK        -0.0193 
     14 C14         2.9089  -18.0030  -49.8219 C.ar      23 UNK        -0.1150 
     15 C15         3.1750  -20.4679  -50.3581 C.3       23 UNK        -0.0205 
     16 S16         2.7190  -21.0405  -48.6899 S.3       23 UNK        -0.2404 
     17 C17         0.9242  -21.3154  -48.8671 C.3       23 UNK        -0.0398 
     18 CA          0.4499  -22.4503  -47.9318 C.3       11 UNK         0.1400 
     19 N           0.4605  -22.0542  -46.5206 N.am      11 UNK        -0.5000 
     20 C           0.3644  -22.9155  -45.4996 C.2       10 UNK         0.5000 
     21 O           0.2547  -24.1329  -45.6440 O.2       10 UNK        -0.5000 
     22 CA          0.3594  -22.3227  -44.0800 C.3       10 UNK         0.1400 
     23 CB          1.7778  -21.9177  -43.6514 C.3       10 UNK        -0.1800 
     24 N          -0.5442  -21.1808  -43.9453 N.am      10 UNK        -0.5000 
     25 C          -1.8756  -21.2449  -44.0916 C.2       9 UNK         0.5000 
     26 O          -2.4894  -22.2846  -44.3299 O.2       9 UNK        -0.5000 
     27 CA         -2.6492  -19.9161  -44.0060 C.3       9 UNK         0.1400 
     28 CB         -2.8212  -19.4688  -42.5470 C.3       9 UNK        -0.1800 
     29 N          -2.0172  -18.8479  -44.7800 N.am      9 UNK        -0.5000 
     30 C          -1.8209  -18.8919  -46.1054 C.2       8 UNK         0.5000 
     31 O          -2.1909  -19.8236  -46.8140 O.2       8 UNK        -0.5000 
     32 CA         -1.0400  -17.7267  -46.7342 C.3       8 UNK         0.1400 
     33 CB         -1.9616  -16.5192  -46.9699 C.3       8 UNK        -0.1800 
     34 N           0.1047  -17.3329  -45.9122 N.am      8 UNK        -0.5000 
     35 C           1.1696  -18.1147  -45.6825 C.2       7 UNK         0.5000 
     36 O           1.3089  -19.2412  -46.1568 O.2       7 UNK        -0.5000 
     37 CA          2.2248  -17.5701  -44.7041 C.3       7 UNK         0.1400 
     38 CB          3.1209  -16.5228  -45.3792 C.3       7 UNK        -0.1800 
     39 N           1.6184  -16.9938  -43.5045 N.am      7 UNK        -0.5000 
     40 C           0.9549  -17.7051  -42.5815 C.2       6 UNK         0.5000 
     41 O           0.8174  -18.9269  -42.6273 O.2       6 UNK        -0.5000 
     42 CA          0.2985  -16.9150  -41.4344 C.3       6 UNK         0.1400 
     43 CB          1.2909  -16.7202  -40.2785 C.3       6 UNK        -0.1800 
     44 N          -0.2236  -15.6099  -41.8444 N.am      6 UNK        -0.5000 
     45 C          -1.1560  -15.4068  -42.7867 C.2       5 UNK         0.5000 
     46 O          -1.6810  -16.3145  -43.4305 O.2       5 UNK        -0.5000 
     47 CA         -1.5649  -13.9498  -43.0711 C.3       5 UNK         0.1400 
     48 CB         -2.9559  -13.6594  -42.4883 C.3       5 UNK        -0.1800 
     49 N          -0.6137  -12.9647  -42.5477 N.am      5 UNK        -0.5000 
     50 C           0.5680  -12.6815  -43.1069 C.2       4 UNK         0.5000 
     51 O           0.9977  -13.2264  -44.1289 O.2       4 UNK        -0.5000 
     52 CA          1.4128  -11.6110  -42.4071 C.3       4 UNK         0.1400 
     53 CB          2.4263  -12.2512  -41.4439 C.3       4 UNK        -0.1800 
     54 N           2.1084  -10.8668  -43.4439 N.am      4 UNK        -0.5000 
     55 C           2.5457   -9.6050  -43.3771 C.2       3 UNK         0.5000 
     56 O           2.4507   -8.9061  -42.3670 O.2       3 UNK        -0.5000 
     57 CA          3.1582   -9.0167  -44.6688 C.3       3 UNK         0.1400 
     58 CB          4.3568   -8.0846  -44.3937 C.3       3 UNK        -0.1800 
     59 N           3.4780  -10.0388  -45.6763 N.am      3 UNK        -0.5000 
     60 C           4.4304  -10.9846  -45.6160 C.2       2 UNK         0.5000 
     61 O           5.2751  -11.0478  -44.7223 O.2       2 UNK        -0.5000 
     62 CA          4.3913  -12.0750  -46.7063 C.3       2 UNK         0.1400 
     63 CB          4.8863  -13.4326  -46.1766 C.3       2 UNK        -0.1800 
     64 N           3.0309  -12.2501  -47.2171 N.am      2 UNK        -0.5000 
     65 C           2.5990  -11.8898  -48.4318 C.2       1 UNK         0.5000 
     66 O           3.3151  -11.3797  -49.2941 O.2       1 UNK        -0.5000 
     67 C          -0.9095  -23.0373  -48.3632 C.2       11 UNK         0.5000 
     68 O          -0.9217  -24.0517  -49.0617 O.2       11 UNK        -0.5000 
     69 N          -2.0240  -22.4525  -47.9009 N.am      12 UNK        -0.5000 
     70 CA         -3.3718  -22.9764  -48.1260 C.3       12 UNK         0.1400 
     71 CB         -4.4225  -21.9474  -47.6859 C.3       12 UNK        -0.1800 
     72 C          -3.6037  -24.3292  -47.4300 C.2       12 UNK         0.5000 
     73 O          -4.2278  -25.2091  -48.0200 O.2       12 UNK        -0.5000 
     74 N          -3.0716  -24.4960  -46.2101 N.am      13 UNK        -0.5000 
     75 CA         -3.1011  -25.7594  -45.4712 C.3       13 UNK         0.1400 
     76 CB         -2.6349  -25.5365  -44.0249 C.3       13 UNK        -0.1800 
     77 C          -2.2707  -26.8613  -46.1544 C.2       13 UNK         0.5000 
     78 O          -2.7378  -27.9965  -46.2460 O.2       13 UNK        -0.5000 
     79 N          -1.0791  -26.5032  -46.6544 N.am      14 UNK        -0.5000 
     80 CA         -0.1857  -27.3910  -47.4024 C.3       14 UNK         0.1400 
     81 CB          1.1720  -26.7020  -47.6065 C.3       14 UNK        -0.1800 
     82 C          -0.7785  -27.8411  -48.7511 C.2       14 UNK         0.5000 
     83 O          -0.6597  -29.0144  -49.1060 O.2       14 UNK        -0.5000 
     84 N          -1.4307  -26.9113  -49.4622 N.am      15 UNK        -0.5000 
     85 CA         -2.1522  -27.1689  -50.7113 C.3       15 UNK         0.1400 
     86 CB         -2.3543  -25.8345  -51.4454 C.3       15 UNK        -0.1800 
     87 C          -3.5029  -27.8883  -50.5065 C.2       15 UNK         0.5000 
     88 O          -4.0586  -28.4069  -51.4753 O.2       15 UNK        -0.5000 
     89 N          -4.0042  -27.8958  -49.2622 N.am      16 UNK        -0.5000 
     90 CA         -5.2906  -28.4301  -48.7996 C.3       16 UNK         0.1400 
     91 CB         -5.3679  -29.9562  -49.0121 C.3       16 UNK        -0.1800 
     92 C          -6.5140  -27.6776  -49.3698 C.2       16 UNK         0.5000 
     93 O          -7.6141  -28.2318  -49.4068 O.2       16 UNK        -0.5000 
     94 N          -6.3027  -26.4230  -49.7794 N.am      17 UNK        -0.5000 
     95 CA         -7.2587  -25.4911  -50.3656 C.3       17 UNK         0.1400 
     96 CB         -7.8099  -26.0264  -51.7029 C.3       17 UNK        -0.1800 
     97 C          -6.5220  -24.1680  -50.6077 C.2       17 UNK         0.5000 
     98 O          -5.3095  -24.1764  -50.8329 O.2       17 UNK        -0.5000 
     99 N          -7.2602  -23.0525  -50.6244 N.am      18 UNK        -0.5000 
    100 CA        -6.7459  -21.7193  -50.9533 C.3       18 UNK         0.1400 
    101 CB        -7.6718  -20.6561  -50.3369 C.3       18 UNK        -0.1800 
    102 C         -6.5594  -21.5398  -52.4762 C.2       18 UNK         0.5000 
    103 O         -7.1525  -20.6418  -53.0779 O.2       18 UNK        -0.5000 
    104 N         -5.7445  -22.4165  -53.0776 N.am      19 UNK        -0.5000 
    105 CA        -5.3642  -22.4135  -54.4899 C.3       19 UNK         0.1400 
    106 CB        -4.4507  -23.6178  -54.7612 C.3       19 UNK        -0.1800 
    107 C         -4.6604  -21.0991  -54.8644 C.2       19 UNK         0.5000 
    108 O         -3.8036  -20.6421  -54.1053 O.2       19 UNK        -0.5000 
    109 N         -5.0802  -20.4803  -55.9765 N.am      20 UNK        -0.5000 
    110 CA        -4.6433  -19.1579  -56.4543 C.3       20 UNK         0.1400 
    111 CB        -3.1756  -19.2156  -56.9279 C.3       20 UNK        -0.1800 
    112 C         -4.8884  -18.0118  -55.4409 C.2       20 UNK         0.5000 
    113 O         -4.2253  -16.9766  -55.5168 O.2       20 UNK        -0.5000 
    114 N         -5.8289  -18.2284  -54.5068 N.am      21 UNK        -0.5000 
    115 CA        -6.1605  -17.3907  -53.3516 C.3       21 UNK         0.1400 
    116 CB        -6.7030  -16.0154  -53.7958 C.3       21 UNK        -0.1800 
    117 C         -5.0214  -17.2846  -52.3121 C.2       21 UNK         0.5000 
    118 O         -4.9973  -16.3198  -51.5453 O.2       21 UNK        -0.5000 
    119 N         -4.1108  -18.2680  -52.2777 N.am      22 UNK        -0.5000 
    120 CA        -2.9700  -18.2999  -51.3480 C.3       22 UNK         0.1400 
    121 C         -2.5536  -19.7157  -50.8593 C.2       22 UNK         0.5000 
    122 N         -2.9870  -20.8075  -51.4754 N.am      22 UNK        -0.7600 
    123 O         -1.8267  -19.8253  -49.8807 O.2       22 UNK        -0.5000 
    124 C124       -1.7649  -17.4737  -51.8676 C.3       23 UNK        -0.0398 
    125 S125       -1.0071  -18.1654  -53.3835 S.3       23 UNK        -0.2404 
    126 C126        0.6150  -17.3360  -53.4176 C.3       23 UNK        -0.0205 
    127 H127       -0.5133  -10.4102  -44.8158 H         1 UNK         0.0600 
    128 H128       -1.3189  -11.8158  -45.5216 H         1 UNK         0.0600 
    129 H129       -1.7971  -10.1863  -46.0048 H         1 UNK         0.0600 
    130 H130       -0.3013  -12.7643  -47.2822 H         1 UNK         0.3000 
    131 H131        0.8044  -11.3392  -49.4274 H         1 UNK         0.0600 
    132 H132       -0.1995  -13.5502  -49.7129 H         1 UNK         0.0800 
    133 H133        1.4076  -13.5204  -50.3590 H         1 UNK         0.0800 
    134 H134        3.2617  -14.7671  -49.7241 H         1 UNK         0.0800 
    135 H135        3.4397  -15.8788  -48.4011 H         1 UNK         0.0800 
    136 H136        1.3568  -15.5219  -51.5339 H         1 UNK         0.1150 
    137 H137        1.6800  -19.6793  -52.5078 H         1 UNK         0.1150 
    138 H138        3.4807  -18.1715  -48.9200 H         1 UNK         0.1150 
    139 H139        2.8361  -21.1986  -51.0941 H         1 UNK         0.0800 
    140 H140        4.2628  -20.4420  -50.4313 H         1 UNK         0.0800 
    141 H141        0.7073  -21.5531  -49.9102 H         1 UNK         0.0800 
    142 H142        0.4012  -20.3838  -48.6457 H         1 UNK         0.0800 
    143 H143        1.1647  -23.2702  -48.0329 H         1 UNK         0.0600 
    144 H144        0.5889  -21.0641  -46.3299 H         1 UNK         0.3000 
    145 H145        0.0117  -23.1019  -43.3987 H         1 UNK         0.0600 
    146 H146        1.7964  -21.5928  -42.6111 H         1 UNK         0.0600 
    147 H147        2.4687  -22.7567  -43.7429 H         1 UNK         0.0600 
    148 H148        2.1667  -21.1025  -44.2625 H         1 UNK         0.0600 
    149 H149       -0.1158  -20.2888  -43.7171 H         1 UNK         0.3000 
    150 H150       -3.6423  -20.0832  -44.4280 H         1 UNK         0.0600 
    151 H151       -3.3451  -20.2291  -41.9666 H         1 UNK         0.0600 
    152 H152       -3.4030  -18.5492  -42.4816 H         1 UNK         0.0600 
    153 H153       -1.8608  -19.2923  -42.0637 H         1 UNK         0.0600 
    154 H154       -1.7253  -18.0180  -44.2706 H         1 UNK         0.3000 
    155 H155       -0.6609  -18.0603  -47.7032 H         1 UNK         0.0600 
    156 H156       -2.3652  -16.1270  -46.0363 H         1 UNK         0.0600 
    157 H157       -1.4372  -15.7090  -47.4740 H         1 UNK         0.0600 
    158 H158       -2.8068  -16.7969  -47.6011 H         1 UNK         0.0600 
    159 H159        0.0465  -16.4396  -45.4475 H         1 UNK         0.3000 
    160 H160        2.8558  -18.4069  -44.3966 H         1 UNK         0.0600 
    161 H161        2.5557  -15.6405  -45.6818 H         1 UNK         0.0600 
    162 H162        3.5949  -16.9361  -46.2697 H         1 UNK         0.0600 
    163 H163        3.9176  -16.1979  -44.7101 H         1 UNK         0.0600 
    164 H164        1.6649  -15.9903  -43.4027 H         1 UNK         0.3000 
    165 H165       -0.5426  -17.5052  -41.0662 H         1 UNK         0.0600 
    166 H166        0.8117  -16.2452  -39.4223 H         1 UNK         0.0600 
    167 H167        1.6859  -17.6783  -39.9376 H         1 UNK         0.0600 
    168 H168        2.1392  -16.1019  -40.5752 H         1 UNK         0.0600 
    169 H169        0.1447  -14.8042  -41.3622 H         1 UNK         0.3000 
    170 H170       -1.6220  -13.8394  -44.1559 H         1 UNK         0.0600 
    171 H171       -3.6977  -14.3568  -42.8801 H         1 UNK         0.0600 
    172 H172       -2.9642  -13.7479  -41.4013 H         1 UNK         0.0600 
    173 H173       -3.2896  -12.6543  -42.7473 H         1 UNK         0.0600 
    174 H174       -0.8954  -12.4711  -41.7123 H         1 UNK         0.3000 
    175 H175        0.7531  -10.9368  -41.8567 H         1 UNK         0.0600 
    176 H176        3.1035  -12.9285  -41.9662 H         1 UNK         0.0600 
    177 H177        3.0316  -11.4929  -40.9470 H         1 UNK         0.0600 
    178 H178        1.9208  -12.8241  -40.6657 H         1 UNK         0.0600 
    179 H179        2.2019  -11.3706  -44.3149 H         1 UNK         0.3000 
    180 H180        2.3714   -8.4061  -45.1139 H         1 UNK         0.0600 
    181 H181        5.1498   -8.5895  -43.8421 H         1 UNK         0.0600 
    182 H182        4.0502   -7.2228  -43.8000 H         1 UNK         0.0600 
    183 H183        4.7815   -7.7025  -45.3220 H         1 UNK         0.0600 
    184 H184        2.8232  -10.0819  -46.4489 H         1 UNK         0.3000 
    185 H185        5.0642  -11.7551  -47.5040 H         1 UNK         0.0600 
    186 H186        5.9320  -13.3794  -45.8717 H         1 UNK         0.0600 
    187 H187        4.3071  -13.7576  -45.3116 H         1 UNK         0.0600 
    188 H188        4.8122  -14.2062  -46.9409 H         1 UNK         0.0600 
    189 H189        2.3622  -12.6685  -46.5844 H         1 UNK         0.3000 
    190 H190       -1.9572  -21.5749  -47.3885 H         1 UNK         0.3000 
    191 H191       -3.4879  -23.1332  -49.1996 H         1 UNK         0.0600 
    192 H192       -4.3377  -21.7161  -46.6234 H         1 UNK         0.0600 
    193 H193       -5.4322  -22.3186  -47.8661 H         1 UNK         0.0600 
    194 H194       -4.3142  -21.0160  -48.2422 H         1 UNK         0.0600 
    195 H195       -2.6158  -23.7110  -45.7556 H         1 UNK         0.3000 
    196 H196       -4.1378  -26.1012  -45.4386 H         1 UNK         0.0600 
    197 H197       -2.6555  -26.4690  -43.4596 H         1 UNK         0.0600 
    198 H198       -3.2836  -24.8295  -43.5077 H         1 UNK         0.0600 
    199 H199       -1.6172  -25.1489  -43.9821 H         1 UNK         0.0600 
    200 H200       -0.7424  -25.5596  -46.4823 H         1 UNK         0.3000 
    201 H201       -0.0232  -28.2852  -46.7972 H         1 UNK         0.0600 
    202 H202        1.6317  -26.4463  -46.6517 H         1 UNK         0.0600 
    203 H203        1.0749  -25.7843  -48.1868 H         1 UNK         0.0600 
    204 H204        1.8657  -27.3549  -48.1375 H         1 UNK         0.0600 
    205 H205       -1.4231  -25.9488  -49.1351 H         1 UNK         0.3000 
    206 H206       -1.5362  -27.8123  -51.3428 H         1 UNK         0.0600 
    207 H207       -1.3985  -25.3880  -51.7198 H         1 UNK         0.0600 
    208 H208       -2.9293  -25.9659  -52.3630 H         1 UNK         0.0600 
    209 H209       -2.8870  -25.1166  -50.8223 H         1 UNK         0.0600 
    210 H210       -3.4775  -27.3977  -48.5566 H         1 UNK         0.3000 
    211 H211       -5.3101  -28.2504  -47.7238 H         1 UNK         0.0600 
    212 H212       -5.4365  -30.2165  -50.0685 H         1 UNK         0.0600 
    213 H213       -6.2436  -30.3761  -48.5161 H         1 UNK         0.0600 
    214 H214       -4.4919  -30.4558  -48.5981 H         1 UNK         0.0600 
    215 H215       -5.3770  -26.0245  -49.6460 H         1 UNK         0.3000 
    216 H216       -8.0736  -25.3276  -49.6583 H         1 UNK         0.0600 
    217 H217       -7.0045  -26.2643  -52.3992 H         1 UNK         0.0600 
    218 H218       -8.4536  -25.2900  -52.1857 H         1 UNK         0.0600 
    219 H219       -8.4081  -26.9263  -51.5635 H         1 UNK         0.0600 
    220 H220       -8.2568  -23.1215  -50.4761 H         1 UNK         0.3000 
    221 H221       -5.7612  -21.5969  -50.4966 H         1 UNK         0.0600 
    222 H222       -7.7378  -20.7720  -49.2550 H         1 UNK         0.0600 
    223 H223       -8.6818  -20.7150  -50.7442 H         1 UNK         0.0600 
    224 H224       -7.2954  -19.6508  -50.5312 H         1 UNK         0.0600 
    225 H225       -5.3104  -23.1206  -52.4888 H         1 UNK         0.3000 
    226 H226       -6.2739  -22.5191  -55.0842 H         1 UNK         0.0600 
    227 H227       -4.9531  -24.5557  -54.5232 H         1 UNK         0.0600 
    228 H228       -4.1609  -23.6601  -55.8119 H         1 UNK         0.0600 
    229 H229       -3.5358  -23.5693  -54.1687 H         1 UNK         0.0600 
    230 H230       -5.8064  -20.9190  -56.5260 H         1 UNK         0.3000 
    231 H231       -5.2617  -18.9274  -57.3228 H         1 UNK         0.0600 
    232 H232       -2.4875  -19.3660  -56.0953 H         1 UNK         0.0600 
    233 H233       -2.8865  -18.2892  -57.4252 H         1 UNK         0.0600 
    234 H234       -3.0220  -20.0257  -57.6407 H         1 UNK         0.0600 
    235 H235       -6.3020  -19.1239  -54.5178 H         1 UNK         0.3000 
    236 H236       -6.9745  -17.9050  -52.8394 H         1 UNK         0.0600 
    237 H237       -7.1184  -15.4675  -52.9493 H         1 UNK         0.0600 
    238 H238       -5.9231  -15.3923  -54.2339 H         1 UNK         0.0600 
    239 H239       -7.5001  -16.1241  -54.5312 H         1 UNK         0.0600 
    240 H240       -4.1515  -19.0175  -52.9588 H         1 UNK         0.3000 
    241 H241       -3.2998  -17.8151  -50.4268 H         1 UNK         0.0600 
    242 H242       -2.6877  -21.6998  -51.1216 H         1 UNK         0.3800 
    243 H243       -3.4078  -20.7520  -52.4002 H         1 UNK         0.3800 
    244 H244       -1.0149  -17.4014  -51.0793 H         1 UNK         0.0800 
    245 H245       -2.0747  -16.4490  -52.0754 H         1 UNK         0.0800 
    246 H246        1.1779  -17.6991  -54.2784 H         1 UNK         0.0800 
    247 H247        0.4597  -16.2687  -53.5825 H         1 UNK         0.0800 
@<TRIPOS>BOND
     1    1    2 1    
     2    1  127 1    
     3    1  128 1    
     4    1  129 1    
     5    2    3 2    
     6    2    4 am   BACKBONE|DICT|INTERRES
     7    4    5 1    
     8    4  130 1    
     9    5    6 1    
    10    5   65 1    
    11    5  131 1    
    12    6    7 1    
    13    6  132 1    
    14    6  133 1    
    15    7    8 1    
    16    8    9 1    
    17    8  134 1    
    18    8  135 1    
    19    9   10 ar   
    20    9   14 ar   
    21   10   11 ar   
    22   10  136 1    
    23   11   12 ar   
    24   11  126 1    
    25   12   13 ar   
    26   12  137 1    
    27   13   14 ar   
    28   13   15 1    
    29   14  138 1    
    30   15   16 1    
    31   15  139 1    
    32   15  140 1    
    33   16   17 1    
    34   17   18 1    
    35   17  141 1    
    36   17  142 1    
    37   18   19 1    
    38   18   67 1    
    39   18  143 1    
    40   19   20 am   BACKBONE|DICT|INTERRES
    41   19  144 1    
    42   20   21 2    
    43   20   22 1    
    44   22   23 1    
    45   22   24 1    
    46   22  145 1    
    47   23  146 1    
    48   23  147 1    
    49   23  148 1    
    50   24   25 am   BACKBONE|DICT|INTERRES
    51   24  149 1    
    52   25   26 2    
    53   25   27 1    
    54   27   28 1    
    55   27   29 1    
    56   27  150 1    
    57   28  151 1    
    58   28  152 1    
    59   28  153 1    
    60   29   30 am   BACKBONE|DICT|INTERRES
    61   29  154 1    
    62   30   31 2    
    63   30   32 1    
    64   32   33 1    
    65   32   34 1    
    66   32  155 1    
    67   33  156 1    
    68   33  157 1    
    69   33  158 1    
    70   34   35 am   BACKBONE|DICT|INTERRES
    71   34  159 1    
    72   35   36 2    
    73   35   37 1    
    74   37   38 1    
    75   37   39 1    
    76   37  160 1    
    77   38  161 1    
    78   38  162 1    
    79   38  163 1    
    80   39   40 am   BACKBONE|DICT|INTERRES
    81   39  164 1    
    82   40   41 2    
    83   40   42 1    
    84   42   43 1    
    85   42   44 1    
    86   42  165 1    
    87   43  166 1    
    88   43  167 1    
    89   43  168 1    
    90   44   45 am   BACKBONE|DICT|INTERRES
    91   44  169 1    
    92   45   46 2    
    93   45   47 1    
    94   47   48 1    
    95   47   49 1    
    96   47  170 1    
    97   48  171 1    
    98   48  172 1    
    99   48  173 1    
   100   49   50 am   BACKBONE|DICT|INTERRES
   101   49  174 1    
   102   50   51 2    
   103   50   52 1    
   104   52   53 1    
   105   52   54 1    
   106   52  175 1    
   107   53  176 1    
   108   53  177 1    
   109   53  178 1    
   110   54   55 am   BACKBONE|DICT|INTERRES
   111   54  179 1    
   112   55   56 2    
   113   55   57 1    
   114   57   58 1    
   115   57   59 1    
   116   57  180 1    
   117   58  181 1    
   118   58  182 1    
   119   58  183 1    
   120   59   60 am   BACKBONE|DICT|INTERRES
   121   59  184 1    
   122   60   61 2    
   123   60   62 1    
   124   62   63 1    
   125   62   64 1    
   126   62  185 1    
   127   63  186 1    
   128   63  187 1    
   129   63  188 1    
   130   64   65 am   BACKBONE|DICT|INTERRES
   131   64  189 1    
   132   65   66 2    
   133   67   68 2    
   134   67   69 am   BACKBONE|DICT|INTERRES
   135   69   70 1    
   136   69  190 1    
   137   70   71 1    
   138   70   72 1    
   139   70  191 1    
   140   71  192 1    
   141   71  193 1    
   142   71  194 1    
   143   72   73 2    
   144   72   74 am   BACKBONE|DICT|INTERRES
   145   74   75 1    
   146   74  195 1    
   147   75   76 1    
   148   75   77 1    
   149   75  196 1    
   150   76  197 1    
   151   76  198 1    
   152   76  199 1    
   153   77   78 2    
   154   77   79 am   BACKBONE|DICT|INTERRES
   155   79   80 1    
   156   79  200 1    
   157   80   81 1    
   158   80   82 1    
   159   80  201 1    
   160   81  202 1    
   161   81  203 1    
   162   81  204 1    
   163   82   83 2    
   164   82   84 am   BACKBONE|DICT|INTERRES
   165   84   85 1    
   166   84  205 1    
   167   85   86 1    
   168   85   87 1    
   169   85  206 1    
   170   86  207 1    
   171   86  208 1    
   172   86  209 1    
   173   87   88 2    
   174   87   89 am   BACKBONE|DICT|INTERRES
   175   89   90 1    
   176   89  210 1    
   177   90   91 1    
   178   90   92 1    
   179   90  211 1    
   180   91  212 1    
   181   91  213 1    
   182   91  214 1    
   183   92   93 2    
   184   92   94 am   BACKBONE|DICT|INTERRES
   185   94   95 1    
   186   94  215 1    
   187   95   96 1    
   188   95   97 1    
   189   95  216 1    
   190   96  217 1    
   191   96  218 1    
   192   96  219 1    
   193   97   98 2    
   194   97   99 am   BACKBONE|DICT|INTERRES
   195   99  100 1    
   196   99  220 1    
   197  100  101 1    
   198  100  102 1    
   199  100  221 1    
   200  101  222 1    
   201  101  223 1    
   202  101  224 1    
   203  102  103 2    
   204  102  104 am   BACKBONE|DICT|INTERRES
   205  104  105 1    
   206  104  225 1    
   207  105  106 1    
   208  105  107 1    
   209  105  226 1    
   210  106  227 1    
   211  106  228 1    
   212  106  229 1    
   213  107  108 2    
   214  107  109 am   BACKBONE|DICT|INTERRES
   215  109  110 1    
   216  109  230 1    
   217  110  111 1    
   218  110  112 1    
   219  110  231 1    
   220  111  232 1    
   221  111  233 1    
   222  111  234 1    
   223  112  113 2    
   224  112  114 am   BACKBONE|DICT|INTERRES
   225  114  115 1    
   226  114  235 1    
   227  115  116 1    
   228  115  117 1    
   229  115  236 1    
   230  116  237 1    
   231  116  238 1    
   232  116  239 1    
   233  117  118 2    
   234  117  119 am   BACKBONE|DICT|INTERRES
   235  119  120 1    
   236  119  240 1    
   237  120  121 1    
   238  120  124 1    
   239  120  241 1    
   240  121  122 am   BACKBONE|DICT|INTERRES
   241  121  123 2    
   242  122  242 1    
   243  122  243 1    
   244  124  125 1    
   245  124  244 1    
   246  124  245 1    
   247  125  126 1    
   248  126  246 1    
   249  126  247 1    
@<TRIPOS>SUBSTRUCTURE
     1 UNK         1 GROUP             0       ****    0 ROOT    
