@<TRIPOS>MOLECULE
3R540
247   249    1
SMALL
USER_CHARGES


@<TRIPOS>ATOM
      1 CA          0.4950  -14.6032  -51.6772 C.3       0 UNK        -0.1800 
      2 C           0.8110  -13.4400  -50.7479 C.2       0 UNK         0.5000 
      3 O           0.3861  -12.3118  -50.9998 O.2       0 UNK        -0.5000 
      4 N           1.5531  -13.7108  -49.6688 N.am      1 UNK        -0.5000 
      5 CA          1.9299  -12.7683  -48.6108 C.3       1 UNK         0.1400 
      6 C6          3.2182  -13.2092  -47.8547 C.3       23 UNK        -0.0398 
      7 S7          3.3385  -15.0089  -47.5320 S.3       23 UNK        -0.2404 
      8 C8          4.5842  -15.4750  -48.7728 C.3       23 UNK        -0.0205 
      9 C9          4.3579  -16.8764  -49.3119 C.ar      23 UNK        -0.0193 
     10 C10         3.5814  -17.0667  -50.4604 C.ar      23 UNK        -0.1150 
     11 C11         3.4369  -18.3410  -51.0152 C.ar      23 UNK        -0.0193 
     12 C12         4.0878  -19.4220  -50.4174 C.ar      23 UNK        -0.1150 
     13 C13         4.8287  -19.2536  -49.2465 C.ar      23 UNK        -0.0193 
     14 C14         4.9632  -17.9761  -48.6963 C.ar      23 UNK        -0.1150 
     15 C15         5.4821  -20.4584  -48.5884 C.3       23 UNK        -0.0205 
     16 S16         4.3993  -21.2113  -47.3342 S.3       23 UNK        -0.2404 
     17 C17         2.9295  -21.6576  -48.3247 C.3       23 UNK        -0.0398 
     18 CA          2.0979  -22.7778  -47.6665 C.3       11 UNK         0.1400 
     19 N           1.5312  -22.3707  -46.3794 N.am      11 UNK        -0.5000 
     20 C           1.1382  -23.2260  -45.4273 C.2       10 UNK         0.5000 
     21 O           1.2668  -24.4468  -45.5089 O.2       10 UNK        -0.5000 
     22 CA          0.4673  -22.6250  -44.1796 C.3       10 UNK         0.1400 
     23 CB          1.5182  -22.2447  -43.1261 C.3       10 UNK        -0.1800 
     24 N          -0.3720  -21.4657  -44.4838 N.am      10 UNK        -0.5000 
     25 C          -1.4795  -21.5116  -45.2383 C.2       9 UNK         0.5000 
     26 O          -1.9257  -22.5455  -45.7388 O.2       9 UNK        -0.5000 
     27 CA         -2.1883  -20.1731  -45.5037 C.3       9 UNK         0.1400 
     28 CB         -2.9970  -19.7435  -44.2701 C.3       9 UNK        -0.1800 
     29 N          -1.2668  -19.1010  -45.8743 N.am      9 UNK        -0.5000 
     30 C          -0.4787  -19.0905  -46.9586 C.2       8 UNK         0.5000 
     31 O          -0.4645  -19.9813  -47.8068 O.2       8 UNK        -0.5000 
     32 CA          0.5067  -17.9124  -47.0786 C.3       8 UNK         0.1400 
     33 CB         -0.1965  -16.6588  -47.6203 C.3       8 UNK        -0.1800 
     34 N           1.1546  -17.5984  -45.8044 N.am      8 UNK        -0.5000 
     35 C           1.9280  -18.4514  -45.1175 C.2       7 UNK         0.5000 
     36 O           2.1825  -19.5961  -45.4867 O.2       7 UNK        -0.5000 
     37 CA          2.4469  -17.9626  -43.7570 C.3       7 UNK         0.1400 
     38 CB          3.6090  -16.9729  -43.9345 C.3       7 UNK        -0.1800 
     39 N           1.3777  -17.3471  -42.9710 N.am      7 UNK        -0.5000 
     40 C           0.3654  -18.0321  -42.4169 C.2       6 UNK         0.5000 
     41 O           0.2617  -19.2572  -42.4734 O.2       6 UNK        -0.5000 
     42 CA         -0.7406  -17.2174  -41.7152 C.3       6 UNK         0.1400 
     43 CB         -0.3772  -16.9720  -40.2434 C.3       6 UNK        -0.1800 
     44 N          -1.0176  -15.9349  -42.3630 N.am      6 UNK        -0.5000 
     45 C          -1.4366  -15.7936  -43.6276 C.2       5 UNK         0.5000 
     46 O          -1.7185  -16.7408  -44.3591 O.2       5 UNK        -0.5000 
     47 CA         -1.5222  -14.3653  -44.1949 C.3       5 UNK         0.1400 
     48 CB         -2.9688  -13.8552  -44.1172 C.3       5 UNK        -0.1800 
     49 N          -0.6282  -13.3704  -43.5895 N.am      5 UNK        -0.5000 
     50 C           0.7006  -13.4772  -43.4270 C.2       4 UNK         0.5000 
     51 O           1.3351  -14.5205  -43.5895 O.2       4 UNK        -0.5000 
     52 CA          1.4321  -12.1718  -43.0793 C.3       4 UNK         0.1400 
     53 CB          2.9643  -12.3245  -43.0488 C.3       4 UNK        -0.1800 
     54 N           1.0630  -11.1752  -44.0793 N.am      4 UNK        -0.5000 
     55 C           0.7844   -9.8875  -43.8438 C.2       3 UNK         0.5000 
     56 O           0.8564   -9.3688  -42.7291 O.2       3 UNK        -0.5000 
     57 CA          0.3466   -9.0260  -45.0493 C.3       3 UNK         0.1400 
     58 CB          1.5056   -8.1314  -45.5159 C.3       3 UNK        -0.1800 
     59 N          -0.1293   -9.8102  -46.1921 N.am      3 UNK        -0.5000 
     60 C          -1.2669  -10.5189  -46.2231 C.2       2 UNK         0.5000 
     61 O          -2.0936  -10.5132  -45.3113 O.2       2 UNK        -0.5000 
     62 CA         -1.5052  -11.4129  -47.4598 C.3       2 UNK         0.1400 
     63 CB         -2.4707  -10.7305  -48.4398 C.3       2 UNK        -0.1800 
     64 N          -0.2840  -11.7919  -48.1818 N.am      2 UNK        -0.5000 
     65 C           0.7386  -12.4897  -47.6698 C.2       1 UNK         0.5000 
     66 O           0.7609  -12.8855  -46.5068 O.2       1 UNK        -0.5000 
     67 C           1.0167  -23.3120  -48.6315 C.2       11 UNK         0.5000 
     68 O           1.2998  -24.2550  -49.3717 O.2       11 UNK        -0.5000 
     69 N          -0.1958  -22.7327  -48.6046 N.am      12 UNK        -0.5000 
     70 CA         -1.3595  -23.2071  -49.3633 C.3       12 UNK         0.1400 
     71 CB         -2.5117  -22.1935  -49.2627 C.3       12 UNK        -0.1800 
     72 C          -1.8182  -24.6069  -48.9127 C.2       12 UNK         0.5000 
     73 O          -2.1075  -25.4503  -49.7627 O.2       12 UNK        -0.5000 
     74 N          -1.8244  -24.8333  -47.5891 N.am      13 UNK        -0.5000 
     75 CA         -2.0227  -26.1138  -46.9040 C.3       13 UNK         0.1400 
     76 CB         -0.7565  -26.9873  -47.0531 C.3       13 UNK        -0.1800 
     77 C          -3.3138  -26.8332  -47.3451 C.2       13 UNK         0.5000 
     78 O          -4.4038  -26.4054  -46.9658 O.2       13 UNK        -0.5000 
     79 N          -3.1706  -27.8922  -48.1545 N.am      14 UNK        -0.5000 
     80 CA         -4.2538  -28.7004  -48.7159 C.3       14 UNK         0.1400 
     81 CB         -3.6456  -29.8923  -49.4701 C.3       14 UNK        -0.1800 
     82 C          -5.2172  -27.9194  -49.6307 C.2       14 UNK         0.5000 
     83 O          -6.3733  -28.3238  -49.7654 O.2       14 UNK        -0.5000 
     84 N          -4.7603  -26.7993  -50.2104 N.am      15 UNK        -0.5000 
     85 CA         -5.5735  -25.8668  -50.9923 C.3       15 UNK         0.1400 
     86 CB         -4.6566  -25.0711  -51.9374 C.3       15 UNK        -0.1800 
     87 C          -6.4118  -24.9575  -50.0693 C.2       15 UNK         0.5000 
     88 O          -6.2386  -23.7372  -50.0713 O.2       15 UNK        -0.5000 
     89 N          -7.2714  -25.5782  -49.2476 N.am      16 UNK        -0.5000 
     90 CA         -8.2177  -24.9763  -48.2947 C.3       16 UNK         0.1400 
     91 CB         -9.3462  -24.2670  -49.0719 C.3       16 UNK        -0.1800 
     92 C          -7.5829  -24.0381  -47.2406 C.2       16 UNK         0.5000 
     93 O          -8.3039  -23.2704  -46.6014 O.2       16 UNK        -0.5000 
     94 N          -6.2492  -24.0895  -47.1067 N.am      17 UNK        -0.5000 
     95 CA         -5.3772  -23.1560  -46.3923 C.3       17 UNK         0.1400 
     96 CB         -5.4910  -23.3743  -44.8706 C.3       17 UNK        -0.1800 
     97 C          -5.5855  -21.6823  -46.8134 C.2       17 UNK         0.5000 
     98 O          -5.4826  -20.7923  -45.9691 O.2       17 UNK        -0.5000 
     99 N          -5.8985  -21.4399  -48.0966 N.am      18 UNK        -0.5000 
    100 CA        -6.2385  -20.1060  -48.6048 C.3       18 UNK         0.1400 
    101 CB        -7.6283  -19.6804  -48.0856 C.3       18 UNK        -0.1800 
    102 C         -6.2094  -19.9803  -50.1374 C.2       18 UNK         0.5000 
    103 O         -6.0689  -18.8588  -50.6289 O.2       18 UNK        -0.5000 
    104 N         -6.3821  -21.0884  -50.8688 N.am      19 UNK        -0.5000 
    105 CA        -6.4982  -21.1181  -52.3255 C.3       19 UNK         0.1400 
    106 CB        -7.5781  -22.1506  -52.7093 C.3       19 UNK        -0.1800 
    107 C         -5.1364  -21.3818  -53.0015 C.2       19 UNK         0.5000 
    108 O         -4.0850  -21.1123  -52.4141 O.2       19 UNK        -0.5000 
    109 N         -5.1826  -21.8684  -54.2500 N.am      20 UNK        -0.5000 
    110 CA        -4.0545  -22.0290  -55.1723 C.3       20 UNK         0.1400 
    111 CB        -3.0602  -23.0992  -54.6644 C.3       20 UNK        -0.1800 
    112 C         -3.4124  -20.6644  -55.5048 C.2       20 UNK         0.5000 
    113 O         -4.1386  -19.6795  -55.6608 O.2       20 UNK        -0.5000 
    114 N         -2.0809  -20.6210  -55.6285 N.am      21 UNK        -0.5000 
    115 CA        -1.3258  -19.4007  -55.9135 C.3       21 UNK         0.1400 
    116 CB         0.0706  -19.7874  -56.4258 C.3       21 UNK        -0.1800 
    117 C         -1.2048  -18.4654  -54.6954 C.2       21 UNK         0.5000 
    118 O         -1.0962  -17.2521  -54.8798 O.2       21 UNK        -0.5000 
    119 N         -1.1875  -19.0426  -53.4873 N.am      22 UNK        -0.5000 
    120 CA        -0.8909  -18.3251  -52.2356 C.3       22 UNK         0.1400 
    121 C         -2.1575  -17.8286  -51.4884 C.2       22 UNK         0.5000 
    122 N         -3.3059  -18.4731  -51.6404 N.am      22 UNK        -0.7600 
    123 O         -2.1006  -16.8320  -50.7759 O.2       22 UNK        -0.5000 
    124 C124        0.0292  -19.1421  -51.2878 C.3       23 UNK        -0.0398 
    125 S125        1.4367  -19.9252  -52.1511 S.3       23 UNK        -0.2404 
    126 C126        2.6249  -18.5477  -52.2863 C.3       23 UNK        -0.0205 
    127 H127        1.0608  -14.5113  -52.6041 H         1 UNK         0.0600 
    128 H128        0.7382  -15.5614  -51.2177 H         1 UNK         0.0600 
    129 H129       -0.5670  -14.6108  -51.9231 H         1 UNK         0.0600 
    130 H130        1.8505  -14.6604  -49.4956 H         1 UNK         0.3000 
    131 H131        2.1637  -11.8119  -49.0836 H         1 UNK         0.0600 
    132 H132        4.0885  -12.8942  -48.4311 H         1 UNK         0.0800 
    133 H133        3.3222  -12.6819  -46.9045 H         1 UNK         0.0800 
    134 H134        4.5701  -14.7735  -49.6083 H         1 UNK         0.0800 
    135 H135        5.5774  -15.3955  -48.3283 H         1 UNK         0.0800 
    136 H136        3.1155  -16.2173  -50.9386 H         1 UNK         0.1150 
    137 H137        4.0012  -20.4039  -50.8598 H         1 UNK         0.1150 
    138 H138        5.5499  -17.8359  -47.7993 H         1 UNK         0.1150 
    139 H139        5.7452  -21.2065  -49.3379 H         1 UNK         0.0800 
    140 H140        6.4183  -20.1597  -48.1146 H         1 UNK         0.0800 
    141 H141        3.2696  -21.9822  -49.3092 H         1 UNK         0.0800 
    142 H142        2.3206  -20.7643  -48.4787 H         1 UNK         0.0800 
    143 H143        2.7788  -23.6112  -47.4782 H         1 UNK         0.0600 
    144 H144        1.4760  -21.3732  -46.1982 H         1 UNK         0.3000 
    145 H145       -0.1766  -23.3957  -43.7509 H         1 UNK         0.0600 
    146 H146        1.0463  -21.9128  -42.2013 H         1 UNK         0.0600 
    147 H147        2.1513  -23.0978  -42.8794 H         1 UNK         0.0600 
    148 H148        2.1688  -21.4432  -43.4767 H         1 UNK         0.0600 
    149 H149       -0.0818  -20.5804  -44.0836 H         1 UNK         0.3000 
    150 H150       -2.8743  -20.3182  -46.3392 H         1 UNK         0.0600 
    151 H151       -3.6748  -20.5346  -43.9486 H         1 UNK         0.0600 
    152 H152       -3.6047  -18.8647  -44.4863 H         1 UNK         0.0600 
    153 H153       -2.3506  -19.5054  -43.4258 H         1 UNK         0.0600 
    154 H154       -1.2497  -18.2926  -45.2565 H         1 UNK         0.3000 
    155 H155        1.2897  -18.1982  -47.7848 H         1 UNK         0.0600 
    156 H156        0.4925  -15.8204  -47.7109 H         1 UNK         0.0600 
    157 H157       -1.0193  -16.3444  -46.9782 H         1 UNK         0.0600 
    158 H158       -0.6086  -16.8473  -48.6107 H         1 UNK         0.0600 
    159 H159        0.9845  -16.6821  -45.4155 H         1 UNK         0.3000 
    160 H160        2.8224  -18.8287  -43.2078 H         1 UNK         0.0600 
    161 H161        3.3069  -16.0865  -44.4932 H         1 UNK         0.0600 
    162 H162        4.4322  -17.4357  -44.4804 H         1 UNK         0.0600 
    163 H163        3.9986  -16.6443  -42.9710 H         1 UNK         0.0600 
    164 H164        1.3566  -16.3306  -42.9558 H         1 UNK         0.3000 
    165 H165       -1.6574  -17.8092  -41.7461 H         1 UNK         0.0600 
    166 H166        0.5180  -16.3562  -40.1474 H         1 UNK         0.0600 
    167 H167       -1.1885  -16.4717  -39.7143 H         1 UNK         0.0600 
    168 H168       -0.1854  -17.9135  -39.7268 H         1 UNK         0.0600 
    169 H169       -0.7944  -15.1012  -41.8404 H         1 UNK         0.3000 
    170 H170       -1.2445  -14.4315  -45.2487 H         1 UNK         0.0600 
    171 H171       -3.6612  -14.5670  -44.5693 H         1 UNK         0.0600 
    172 H172       -3.2841  -13.7004  -43.0847 H         1 UNK         0.0600 
    173 H173       -3.0872  -12.9125  -44.6499 H         1 UNK         0.0600 
    174 H174       -1.0383  -12.4601  -43.4366 H         1 UNK         0.3000 
    175 H175        1.0888  -11.8658  -42.0891 H         1 UNK         0.0600 
    176 H176        3.2694  -13.0618  -42.3053 H         1 UNK         0.0600 
    177 H177        3.4490  -11.3826  -42.7919 H         1 UNK         0.0600 
    178 H178        3.3529  -12.6494  -44.0150 H         1 UNK         0.0600 
    179 H179        0.9368  -11.5473  -45.0163 H         1 UNK         0.3000 
    180 H180       -0.4696   -8.3833  -44.7132 H         1 UNK         0.0600 
    181 H181        2.3494   -8.7215  -45.8758 H         1 UNK         0.0600 
    182 H182        1.8682   -7.5039  -44.7006 H         1 UNK         0.0600 
    183 H183        1.1920   -7.4660  -46.3205 H         1 UNK         0.0600 
    184 H184        0.4841   -9.8625  -46.9915 H         1 UNK         0.3000 
    185 H185       -1.9729  -12.3332  -47.1040 H         1 UNK         0.0600 
    186 H186       -2.7205  -11.3902  -49.2711 H         1 UNK         0.0600 
    187 H187       -3.4060  -10.4629  -47.9463 H         1 UNK         0.0600 
    188 H188       -2.0431   -9.8161  -48.8531 H         1 UNK         0.0600 
    189 H189       -0.2432  -11.5573  -49.1681 H         1 UNK         0.3000 
    190 H190       -0.3336  -21.9043  -48.0329 H         1 UNK         0.3000 
    191 H191       -1.0672  -23.2777  -50.4131 H         1 UNK         0.0600 
    192 H192       -2.2310  -21.2300  -49.6868 H         1 UNK         0.0600 
    193 H193       -3.3898  -22.5398  -49.8098 H         1 UNK         0.0600 
    194 H194       -2.8133  -22.0251  -48.2300 H         1 UNK         0.0600 
    195 H195       -1.6444  -24.0415  -46.9776 H         1 UNK         0.3000 
    196 H196       -2.1448  -25.8828  -45.8448 H         1 UNK         0.0600 
    197 H197       -0.8731  -27.9444  -46.5429 H         1 UNK         0.0600 
    198 H198        0.1088  -26.4970  -46.6104 H         1 UNK         0.0600 
    199 H199       -0.5124  -27.1891  -48.0967 H         1 UNK         0.0600 
    200 H200       -2.2350  -28.1405  -48.4412 H         1 UNK         0.3000 
    201 H201       -4.8423  -29.0865  -47.8813 H         1 UNK         0.0600 
    202 H202       -3.0327  -30.5067  -48.8102 H         1 UNK         0.0600 
    203 H203       -3.0209  -29.5645  -50.3020 H         1 UNK         0.0600 
    204 H204       -4.4256  -30.5362  -49.8788 H         1 UNK         0.0600 
    205 H205       -3.8053  -26.5080  -50.0222 H         1 UNK         0.3000 
    206 H206       -6.2697  -26.4357  -51.6119 H         1 UNK         0.0600 
    207 H207       -4.0476  -25.7361  -52.5496 H         1 UNK         0.0600 
    208 H208       -5.2431  -24.4540  -52.6170 H         1 UNK         0.0600 
    209 H209       -3.9833  -24.4080  -51.3940 H         1 UNK         0.0600 
    210 H210       -7.2825  -26.5927  -49.2915 H         1 UNK         0.3000 
    211 H211       -8.6601  -25.8035  -47.7381 H         1 UNK         0.0600 
    212 H212       -8.9779  -23.3898  -49.6054 H         1 UNK         0.0600 
    213 H213      -10.1391  -23.9332  -48.4017 H         1 UNK         0.0600 
    214 H214       -9.8033  -24.9352  -49.8018 H         1 UNK         0.0600 
    215 H215       -5.7615  -24.8177  -47.6137 H         1 UNK         0.3000 
    216 H216       -4.3589  -23.4129  -46.6856 H         1 UNK         0.0600 
    217 H217       -5.3229  -24.4197  -44.6115 H         1 UNK         0.0600 
    218 H218       -6.4730  -23.0866  -44.4942 H         1 UNK         0.0600 
    219 H219       -4.7453  -22.7862  -44.3347 H         1 UNK         0.0600 
    220 H220       -5.9642  -22.2195  -48.7417 H         1 UNK         0.3000 
    221 H221       -5.4948  -19.4004  -48.2280 H         1 UNK         0.0600 
    222 H222       -8.3949  -20.4036  -48.3669 H         1 UNK         0.0600 
    223 H223       -7.6436  -19.5847  -47.0003 H         1 UNK         0.0600 
    224 H224       -7.9236  -18.7123  -48.4927 H         1 UNK         0.0600 
    225 H225       -6.4168  -22.0029  -50.4271 H         1 UNK         0.3000 
    226 H226       -6.8396  -20.1440  -52.6814 H         1 UNK         0.0600 
    227 H227       -8.4955  -21.9849  -52.1440 H         1 UNK         0.0600 
    228 H228       -7.8432  -22.0806  -53.7645 H         1 UNK         0.0600 
    229 H229       -7.2535  -23.1723  -52.5159 H         1 UNK         0.0600 
    230 H230       -6.0927  -22.0292  -54.6568 H         1 UNK         0.3000 
    231 H231       -4.4776  -22.3953  -56.1086 H         1 UNK         0.0600 
    232 H232       -2.3007  -23.3242  -55.4137 H         1 UNK         0.0600 
    233 H233       -3.5751  -24.0357  -54.4537 H         1 UNK         0.0600 
    234 H234       -2.5480  -22.7905  -53.7526 H         1 UNK         0.0600 
    235 H235       -1.5485  -21.4685  -55.4963 H         1 UNK         0.3000 
    236 H236       -1.8365  -18.8498  -56.7065 H         1 UNK         0.0600 
    237 H237        0.6534  -18.9002  -56.6770 H         1 UNK         0.0600 
    238 H238        0.6335  -20.3473  -55.6775 H         1 UNK         0.0600 
    239 H239        0.0063  -20.3984  -57.3263 H         1 UNK         0.0600 
    240 H240       -1.3029  -20.0422  -53.4189 H         1 UNK         0.3000 
    241 H241       -0.3318  -17.4233  -52.4905 H         1 UNK         0.0600 
    242 H242       -3.3634  -19.3442  -52.1573 H         1 UNK         0.3800 
    243 H243       -4.1368  -18.1522  -51.1625 H         1 UNK         0.3800 
    244 H244        0.4095  -18.5129  -50.4810 H         1 UNK         0.0800 
    245 H245       -0.5361  -19.9406  -50.8049 H         1 UNK         0.0800 
    246 H246        2.0980  -17.6363  -52.5716 H         1 UNK         0.0800 
    247 H247        3.3164  -18.7680  -53.1003 H         1 UNK         0.0800 
@<TRIPOS>BOND
     1    1    2 1    
     2    1  127 1    
     3    1  128 1    
     4    1  129 1    
     5    2    3 2    
     6    2    4 am   BACKBONE|DICT|INTERRES
     7    4    5 1    
     8    4  130 1    
     9    5    6 1    
    10    5   65 1    
    11    5  131 1    
    12    6    7 1    
    13    6  132 1    
    14    6  133 1    
    15    7    8 1    
    16    8    9 1    
    17    8  134 1    
    18    8  135 1    
    19    9   10 ar   
    20    9   14 ar   
    21   10   11 ar   
    22   10  136 1    
    23   11   12 ar   
    24   11  126 1    
    25   12   13 ar   
    26   12  137 1    
    27   13   14 ar   
    28   13   15 1    
    29   14  138 1    
    30   15   16 1    
    31   15  139 1    
    32   15  140 1    
    33   16   17 1    
    34   17   18 1    
    35   17  141 1    
    36   17  142 1    
    37   18   19 1    
    38   18   67 1    
    39   18  143 1    
    40   19   20 am   BACKBONE|DICT|INTERRES
    41   19  144 1    
    42   20   21 2    
    43   20   22 1    
    44   22   23 1    
    45   22   24 1    
    46   22  145 1    
    47   23  146 1    
    48   23  147 1    
    49   23  148 1    
    50   24   25 am   BACKBONE|DICT|INTERRES
    51   24  149 1    
    52   25   26 2    
    53   25   27 1    
    54   27   28 1    
    55   27   29 1    
    56   27  150 1    
    57   28  151 1    
    58   28  152 1    
    59   28  153 1    
    60   29   30 am   BACKBONE|DICT|INTERRES
    61   29  154 1    
    62   30   31 2    
    63   30   32 1    
    64   32   33 1    
    65   32   34 1    
    66   32  155 1    
    67   33  156 1    
    68   33  157 1    
    69   33  158 1    
    70   34   35 am   BACKBONE|DICT|INTERRES
    71   34  159 1    
    72   35   36 2    
    73   35   37 1    
    74   37   38 1    
    75   37   39 1    
    76   37  160 1    
    77   38  161 1    
    78   38  162 1    
    79   38  163 1    
    80   39   40 am   BACKBONE|DICT|INTERRES
    81   39  164 1    
    82   40   41 2    
    83   40   42 1    
    84   42   43 1    
    85   42   44 1    
    86   42  165 1    
    87   43  166 1    
    88   43  167 1    
    89   43  168 1    
    90   44   45 am   BACKBONE|DICT|INTERRES
    91   44  169 1    
    92   45   46 2    
    93   45   47 1    
    94   47   48 1    
    95   47   49 1    
    96   47  170 1    
    97   48  171 1    
    98   48  172 1    
    99   48  173 1    
   100   49   50 am   BACKBONE|DICT|INTERRES
   101   49  174 1    
   102   50   51 2    
   103   50   52 1    
   104   52   53 1    
   105   52   54 1    
   106   52  175 1    
   107   53  176 1    
   108   53  177 1    
   109   53  178 1    
   110   54   55 am   BACKBONE|DICT|INTERRES
   111   54  179 1    
   112   55   56 2    
   113   55   57 1    
   114   57   58 1    
   115   57   59 1    
   116   57  180 1    
   117   58  181 1    
   118   58  182 1    
   119   58  183 1    
   120   59   60 am   BACKBONE|DICT|INTERRES
   121   59  184 1    
   122   60   61 2    
   123   60   62 1    
   124   62   63 1    
   125   62   64 1    
   126   62  185 1    
   127   63  186 1    
   128   63  187 1    
   129   63  188 1    
   130   64   65 am   BACKBONE|DICT|INTERRES
   131   64  189 1    
   132   65   66 2    
   133   67   68 2    
   134   67   69 am   BACKBONE|DICT|INTERRES
   135   69   70 1    
   136   69  190 1    
   137   70   71 1    
   138   70   72 1    
   139   70  191 1    
   140   71  192 1    
   141   71  193 1    
   142   71  194 1    
   143   72   73 2    
   144   72   74 am   BACKBONE|DICT|INTERRES
   145   74   75 1    
   146   74  195 1    
   147   75   76 1    
   148   75   77 1    
   149   75  196 1    
   150   76  197 1    
   151   76  198 1    
   152   76  199 1    
   153   77   78 2    
   154   77   79 am   BACKBONE|DICT|INTERRES
   155   79   80 1    
   156   79  200 1    
   157   80   81 1    
   158   80   82 1    
   159   80  201 1    
   160   81  202 1    
   161   81  203 1    
   162   81  204 1    
   163   82   83 2    
   164   82   84 am   BACKBONE|DICT|INTERRES
   165   84   85 1    
   166   84  205 1    
   167   85   86 1    
   168   85   87 1    
   169   85  206 1    
   170   86  207 1    
   171   86  208 1    
   172   86  209 1    
   173   87   88 2    
   174   87   89 am   BACKBONE|DICT|INTERRES
   175   89   90 1    
   176   89  210 1    
   177   90   91 1    
   178   90   92 1    
   179   90  211 1    
   180   91  212 1    
   181   91  213 1    
   182   91  214 1    
   183   92   93 2    
   184   92   94 am   BACKBONE|DICT|INTERRES
   185   94   95 1    
   186   94  215 1    
   187   95   96 1    
   188   95   97 1    
   189   95  216 1    
   190   96  217 1    
   191   96  218 1    
   192   96  219 1    
   193   97   98 2    
   194   97   99 am   BACKBONE|DICT|INTERRES
   195   99  100 1    
   196   99  220 1    
   197  100  101 1    
   198  100  102 1    
   199  100  221 1    
   200  101  222 1    
   201  101  223 1    
   202  101  224 1    
   203  102  103 2    
   204  102  104 am   BACKBONE|DICT|INTERRES
   205  104  105 1    
   206  104  225 1    
   207  105  106 1    
   208  105  107 1    
   209  105  226 1    
   210  106  227 1    
   211  106  228 1    
   212  106  229 1    
   213  107  108 2    
   214  107  109 am   BACKBONE|DICT|INTERRES
   215  109  110 1    
   216  109  230 1    
   217  110  111 1    
   218  110  112 1    
   219  110  231 1    
   220  111  232 1    
   221  111  233 1    
   222  111  234 1    
   223  112  113 2    
   224  112  114 am   BACKBONE|DICT|INTERRES
   225  114  115 1    
   226  114  235 1    
   227  115  116 1    
   228  115  117 1    
   229  115  236 1    
   230  116  237 1    
   231  116  238 1    
   232  116  239 1    
   233  117  118 2    
   234  117  119 am   BACKBONE|DICT|INTERRES
   235  119  120 1    
   236  119  240 1    
   237  120  121 1    
   238  120  124 1    
   239  120  241 1    
   240  121  122 am   BACKBONE|DICT|INTERRES
   241  121  123 2    
   242  122  242 1    
   243  122  243 1    
   244  124  125 1    
   245  124  244 1    
   246  124  245 1    
   247  125  126 1    
   248  126  246 1    
   249  126  247 1    
@<TRIPOS>SUBSTRUCTURE
     1 UNK         1 GROUP             0       ****    0 ROOT    
