@<TRIPOS>MOLECULE
3R540
247   249    1
SMALL
USER_CHARGES


@<TRIPOS>ATOM
      1 CA          0.2652  -10.0977  -51.4067 C.3       0 UNK        -0.1800 
      2 C           1.3717  -10.8723  -50.7046 C.2       0 UNK         0.5000 
      3 O           2.5316  -10.7839  -51.1068 O.2       0 UNK        -0.5000 
      4 N           1.0156  -11.6344  -49.6620 N.am      1 UNK        -0.5000 
      5 CA          1.9378  -12.4567  -48.8698 C.3       1 UNK         0.1400 
      6 C6          1.1514  -13.5137  -48.0489 C.3       23 UNK        -0.0398 
      7 S7          2.1387  -14.7234  -47.0902 S.3       23 UNK        -0.2404 
      8 C8          3.2276  -15.4954  -48.3383 C.3       23 UNK        -0.0205 
      9 C9          2.4893  -16.4610  -49.2554 C.ar      23 UNK        -0.0193 
     10 C10         1.7635  -15.9792  -50.3458 C.ar      23 UNK        -0.1150 
     11 C11         1.0793  -16.8533  -51.1922 C.ar      23 UNK        -0.0193 
     12 C12         1.1606  -18.2322  -50.9699 C.ar      23 UNK        -0.1150 
     13 C13         1.9008  -18.7331  -49.8933 C.ar      23 UNK        -0.0193 
     14 C14         2.5546  -17.8403  -49.0363 C.ar      23 UNK        -0.1150 
     15 C15         2.0253  -20.2351  -49.6675 C.3       23 UNK        -0.0205 
     16 S16         0.4551  -21.0027  -49.1526 S.3       23 UNK        -0.2404 
     17 C17         1.0485  -22.6186  -48.5465 C.3       23 UNK        -0.0398 
     18 CA          0.1889  -23.2956  -47.4486 C.3       11 UNK         0.1400 
     19 N           0.1522  -22.5888  -46.1627 N.am      11 UNK        -0.5000 
     20 C          -0.2227  -23.1891  -45.0197 C.2       10 UNK         0.5000 
     21 O          -0.5542  -24.3741  -44.9525 O.2       10 UNK        -0.5000 
     22 CA         -0.2738  -22.3356  -43.7407 C.3       10 UNK         0.1400 
     23 CB          1.1377  -22.0507  -43.2071 C.3       10 UNK        -0.1800 
     24 N          -1.0108  -21.0862  -43.9167 N.am      10 UNK        -0.5000 
     25 C          -2.3147  -21.0111  -44.2216 C.2       9 UNK         0.5000 
     26 O          -3.0428  -21.9926  -44.3686 O.2       9 UNK        -0.5000 
     27 CA         -2.8960  -19.6027  -44.4422 C.3       9 UNK         0.1400 
     28 CB         -3.2404  -18.9338  -43.1033 C.3       9 UNK        -0.1800 
     29 N          -1.9961  -18.7409  -45.2074 N.am      9 UNK        -0.5000 
     30 C          -1.6019  -18.9940  -46.4632 C.2       8 UNK         0.5000 
     31 O          -2.0115  -19.9465  -47.1235 O.2       8 UNK        -0.5000 
     32 CA         -0.5292  -18.0648  -47.0526 C.3       8 UNK         0.1400 
     33 CB         -1.1353  -16.7372  -47.5284 C.3       8 UNK        -0.1800 
     34 N           0.5648  -17.8231  -46.1102 N.am      8 UNK        -0.5000 
     35 C           1.4158  -18.7670  -45.6779 C.2       7 UNK         0.5000 
     36 O           1.4079  -19.9332  -46.0699 O.2       7 UNK        -0.5000 
     37 CA          2.4144  -18.3547  -44.5805 C.3       7 UNK         0.1400 
     38 CB          3.7157  -17.8035  -45.1778 C.3       7 UNK        -0.1800 
     39 N           1.8478  -17.3775  -43.6522 N.am      7 UNK        -0.5000 
     40 C           0.8777  -17.6611  -42.7726 C.2       6 UNK         0.5000 
     41 O           0.3911  -18.7822  -42.6259 O.2       6 UNK        -0.5000 
     42 CA          0.3254  -16.4769  -41.9656 C.3       6 UNK         0.1400 
     43 CB          1.2639  -16.1137  -40.8053 C.3       6 UNK        -0.1800 
     44 N           0.1065  -15.2992  -42.8053 N.am      6 UNK        -0.5000 
     45 C          -0.8534  -15.2040  -43.7382 C.2       5 UNK         0.5000 
     46 O          -1.6058  -16.1366  -44.0192 O.2       5 UNK        -0.5000 
     47 CA         -0.9822  -13.8696  -44.5078 C.3       5 UNK         0.1400 
     48 CB         -2.4437  -13.5244  -44.8580 C.3       5 UNK        -0.1800 
     49 N          -0.3125  -12.7416  -43.8512 N.am      5 UNK        -0.5000 
     50 C          -0.5734  -12.2198  -42.6421 C.2       4 UNK         0.5000 
     51 O          -1.5572  -12.5211  -41.9651 O.2       4 UNK        -0.5000 
     52 CA          0.4647  -11.2211  -42.0779 C.3       4 UNK         0.1400 
     53 CB          0.6874  -11.4238  -40.5650 C.3       4 UNK        -0.1800 
     54 N           1.7597  -11.2178  -42.7778 N.am      4 UNK        -0.5000 
     55 C           2.6153  -12.2360  -42.9550 C.2       3 UNK         0.5000 
     56 O           2.3871  -13.3854  -42.5718 O.2       3 UNK        -0.5000 
     57 CA          3.9055  -11.9194  -43.7450 C.3       3 UNK         0.1400 
     58 CB          4.7338  -13.1828  -44.0430 C.3       3 UNK        -0.1800 
     59 N           3.6386  -11.2348  -45.0136 N.am      3 UNK        -0.5000 
     60 C           3.2944   -9.9523  -45.1841 C.2       2 UNK         0.5000 
     61 O           3.1501   -9.1668  -44.2464 O.2       2 UNK        -0.5000 
     62 CA          3.0127   -9.4645  -46.6217 C.3       2 UNK         0.1400 
     63 CB          4.2819   -8.8751  -47.2657 C.3       2 UNK        -0.1800 
     64 N           2.3716  -10.4558  -47.5014 N.am      2 UNK        -0.5000 
     65 C           2.8722  -11.6047  -47.9822 C.2       1 UNK         0.5000 
     66 O           4.0101  -12.0078  -47.7397 O.2       1 UNK        -0.5000 
     67 C          -1.2177  -23.6936  -47.9347 C.2       11 UNK         0.5000 
     68 O          -1.3787  -24.8143  -48.4162 O.2       11 UNK        -0.5000 
     69 N          -2.2189  -22.8195  -47.7447 N.am      12 UNK        -0.5000 
     70 CA         -3.6226  -23.1049  -48.0470 C.3       12 UNK         0.1400 
     71 CB         -4.4840  -21.8568  -47.8146 C.3       12 UNK        -0.1800 
     72 C          -4.1742  -24.2908  -47.2387 C.2       12 UNK         0.5000 
     73 O          -4.8362  -25.1520  -47.8160 O.2       12 UNK        -0.5000 
     74 N          -3.8663  -24.3390  -45.9353 N.am      13 UNK        -0.5000 
     75 CA         -4.2338  -25.4404  -45.0460 C.3       13 UNK         0.1400 
     76 CB         -3.9167  -25.0624  -43.5912 C.3       13 UNK        -0.1800 
     77 C          -3.5494  -26.7645  -45.4298 C.2       13 UNK         0.5000 
     78 O          -4.2160  -27.7990  -45.4698 O.2       13 UNK        -0.5000 
     79 N          -2.2440  -26.7051  -45.7292 N.am      14 UNK        -0.5000 
     80 CA         -1.4321  -27.8555  -46.1295 C.3       14 UNK         0.1400 
     81 CB          0.0503  -27.4529  -46.1459 C.3       14 UNK        -0.1800 
     82 C          -1.8466  -28.4489  -47.4889 C.2       14 UNK         0.5000 
     83 O          -1.9098  -29.6714  -47.6250 O.2       14 UNK        -0.5000 
     84 N          -2.1270  -27.5762  -48.4646 N.am      15 UNK        -0.5000 
     85 CA         -2.5028  -27.9460  -49.8300 C.3       15 UNK         0.1400 
     86 CB         -2.0828  -26.8094  -50.7722 C.3       15 UNK        -0.1800 
     87 C          -4.0042  -28.2481  -49.9991 C.2       15 UNK         0.5000 
     88 O          -4.4037  -28.6624  -51.0867 O.2       15 UNK        -0.5000 
     89 N          -4.8108  -28.0086  -48.9545 N.am      16 UNK        -0.5000 
     90 CA         -6.2732  -28.1284  -48.9199 C.3       16 UNK         0.1400 
     91 CB         -6.7135  -29.5993  -49.0738 C.3       16 UNK        -0.1800 
     92 C          -6.9529  -27.1749  -49.9264 C.2       16 UNK         0.5000 
     93 O          -7.7631  -27.6004  -50.7511 O.2       16 UNK        -0.5000 
     94 N          -6.5703  -25.8938  -49.8375 N.am      17 UNK        -0.5000 
     95 CA         -7.0261  -24.7409  -50.6229 C.3       17 UNK         0.1400 
     96 CB         -8.5481  -24.5329  -50.4807 C.3       17 UNK        -0.1800 
     97 C          -6.5649  -24.7324  -52.0963 C.2       17 UNK         0.5000 
     98 O          -7.0088  -23.8723  -52.8581 O.2       17 UNK        -0.5000 
     99 N          -5.6618  -25.6477  -52.4773 N.am      18 UNK        -0.5000 
    100 CA        -5.0428  -25.6890  -53.8068 C.3       18 UNK         0.1400 
    101 CB        -4.5969  -27.1267  -54.1131 C.3       18 UNK        -0.1800 
    102 C         -3.8642  -24.7022  -53.9547 C.2       18 UNK         0.5000 
    103 O         -3.4224  -24.4590  -55.0785 O.2       18 UNK        -0.5000 
    104 N         -3.3823  -24.1543  -52.8325 N.am      19 UNK        -0.5000 
    105 CA        -2.3653  -23.1070  -52.7560 C.3       19 UNK         0.1400 
    106 CB        -1.2070  -23.5981  -51.8727 C.3       19 UNK        -0.1800 
    107 C         -2.9855  -21.8209  -52.1825 C.2       19 UNK         0.5000 
    108 O         -4.1372  -21.8327  -51.7393 O.2       19 UNK        -0.5000 
    109 N         -2.1949  -20.7404  -52.2080 N.am      20 UNK        -0.5000 
    110 CA        -2.5734  -19.3604  -51.8936 C.3       20 UNK         0.1400 
    111 CB        -3.0586  -19.2046  -50.4368 C.3       20 UNK        -0.1800 
    112 C         -3.5295  -18.7945  -52.9627 C.2       20 UNK         0.5000 
    113 O         -3.2755  -19.0133  -54.1495 O.2       20 UNK        -0.5000 
    114 N         -4.5648  -18.0473  -52.5432 N.am      21 UNK        -0.5000 
    115 CA        -5.4685  -17.2479  -53.3865 C.3       21 UNK         0.1400 
    116 CB        -6.3546  -18.1519  -54.2691 C.3       21 UNK        -0.1800 
    117 C         -4.6766  -16.1905  -54.1863 C.2       21 UNK         0.5000 
    118 O         -4.7847  -16.1058  -55.4108 O.2       21 UNK        -0.5000 
    119 N         -3.8304  -15.4596  -53.4514 N.am      22 UNK        -0.5000 
    120 CA        -2.7203  -14.6375  -53.9575 C.3       22 UNK         0.1400 
    121 C         -3.1201  -13.3633  -54.7593 C.2       22 UNK         0.5000 
    122 N         -4.3794  -12.9451  -54.7643 N.am      22 UNK        -0.7600 
    123 O         -2.2680  -12.7423  -55.3886 O.2       22 UNK        -0.5000 
    124 C124       -1.7241  -14.2738  -52.8217 C.3       23 UNK        -0.0398 
    125 S125       -1.3350  -15.6547  -51.6831 S.3       23 UNK        -0.2404 
    126 C126        0.2467  -16.2815  -52.3279 C.3       23 UNK        -0.0205 
    127 H127       -0.7071  -10.2687  -50.9440 H         1 UNK         0.0600 
    128 H128        0.4751   -9.0287  -51.3719 H         1 UNK         0.0600 
    129 H129        0.2012  -10.4001  -52.4520 H         1 UNK         0.0600 
    130 H130        0.0433  -11.6681  -49.3897 H         1 UNK         0.3000 
    131 H131        2.5756  -12.9777  -49.5836 H         1 UNK         0.0600 
    132 H132        0.4891  -13.0061  -47.3470 H         1 UNK         0.0800 
    133 H133        0.4895  -14.0721  -48.7105 H         1 UNK         0.0800 
    134 H134        3.7418  -14.7357  -48.9256 H         1 UNK         0.0800 
    135 H135        4.0219  -16.0279  -47.8148 H         1 UNK         0.0800 
    136 H136        1.7117  -14.9176  -50.5343 H         1 UNK         0.1150 
    137 H137        0.6500  -18.9189  -51.6289 H         1 UNK         0.1150 
    138 H138        3.1252  -18.2211  -48.2019 H         1 UNK         0.1150 
    139 H139        2.3739  -20.7124  -50.5842 H         1 UNK         0.0800 
    140 H140        2.7849  -20.4306  -48.9092 H         1 UNK         0.0800 
    141 H141        2.0619  -22.4993  -48.1619 H         1 UNK         0.0800 
    142 H142        1.1397  -23.2834  -49.4073 H         1 UNK         0.0800 
    143 H143        0.6974  -24.2410  -47.2461 H         1 UNK         0.0600 
    144 H144        0.4255  -21.6090  -46.1628 H         1 UNK         0.3000 
    145 H145       -0.8021  -22.9166  -42.9817 H         1 UNK         0.0600 
    146 H146        1.1015  -21.4934  -42.2709 H         1 UNK         0.0600 
    147 H147        1.6733  -22.9804  -43.0115 H         1 UNK         0.0600 
    148 H148        1.7313  -21.4767  -43.9170 H         1 UNK         0.0600 
    149 H149       -0.4942  -20.2260  -43.7678 H         1 UNK         0.3000 
    150 H150       -3.8191  -19.7108  -45.0151 H         1 UNK         0.0600 
    151 H151       -3.9242  -19.5532  -42.5217 H         1 UNK         0.0600 
    152 H152       -3.7253  -17.9699  -43.2587 H         1 UNK         0.0600 
    153 H153       -2.3510  -18.7649  -42.4957 H         1 UNK         0.0600 
    154 H154       -1.6590  -17.9037  -44.7400 H         1 UNK         0.3000 
    155 H155       -0.1125  -18.5567  -47.9290 H         1 UNK         0.0600 
    156 H156       -0.3988  -16.1511  -48.0748 H         1 UNK         0.0600 
    157 H157       -1.5076  -16.1345  -46.7015 H         1 UNK         0.0600 
    158 H158       -1.9690  -16.9130  -48.2089 H         1 UNK         0.0600 
    159 H159        0.6459  -16.8919  -45.7338 H         1 UNK         0.3000 
    160 H160        2.6664  -19.2536  -44.0144 H         1 UNK         0.0600 
    161 H161        3.5579  -16.8449  -45.6673 H         1 UNK         0.0600 
    162 H162        4.1328  -18.4906  -45.9151 H         1 UNK         0.0600 
    163 H163        4.4706  -17.6597  -44.4048 H         1 UNK         0.0600 
    164 H164        2.1887  -16.4289  -43.7115 H         1 UNK         0.3000 
    165 H165       -0.6359  -16.7783  -41.5436 H         1 UNK         0.0600 
    166 H166        2.2443  -15.7953  -41.1616 H         1 UNK         0.0600 
    167 H167        0.8496  -15.3048  -40.2031 H         1 UNK         0.0600 
    168 H168        1.4154  -16.9680  -40.1443 H         1 UNK         0.0600 
    169 H169        0.7352  -14.5151  -42.6595 H         1 UNK         0.3000 
    170 H170       -0.4530  -14.0277  -45.4466 H         1 UNK         0.0600 
    171 H171       -3.0644  -13.4333  -43.9664 H         1 UNK         0.0600 
    172 H172       -2.8896  -14.2970  -45.4854 H         1 UNK         0.0600 
    173 H173       -2.5061  -12.5860  -45.4089 H         1 UNK         0.0600 
    174 H174        0.5316  -12.4196  -44.3018 H         1 UNK         0.3000 
    175 H175        0.0376  -10.2279  -42.2225 H         1 UNK         0.0600 
    176 H176        1.4083  -10.7063  -40.1730 H         1 UNK         0.0600 
    177 H177       -0.2395  -11.2851  -40.0073 H         1 UNK         0.0600 
    178 H178        1.0562  -12.4256  -40.3421 H         1 UNK         0.0600 
    179 H179        2.0479  -10.3210  -43.1603 H         1 UNK         0.3000 
    180 H180        4.5106  -11.2621  -43.1175 H         1 UNK         0.0600 
    181 H181        4.1833  -13.8854  -44.6704 H         1 UNK         0.0600 
    182 H182        5.0040  -13.7032  -43.1232 H         1 UNK         0.0600 
    183 H183        5.6621  -12.9332  -44.5571 H         1 UNK         0.0600 
    184 H184        3.7622  -11.7866  -45.8574 H         1 UNK         0.3000 
    185 H185        2.2910   -8.6512  -46.5308 H         1 UNK         0.0600 
    186 H186        4.0731   -8.4834  -48.2613 H         1 UNK         0.0600 
    187 H187        4.6731   -8.0512  -46.6675 H         1 UNK         0.0600 
    188 H188        5.0775   -9.6149  -47.3559 H         1 UNK         0.0600 
    189 H189        1.4223  -10.2309  -47.7640 H         1 UNK         0.3000 
    190 H190       -2.0105  -21.8942  -47.3778 H         1 UNK         0.3000 
    191 H191       -3.6841  -23.3656  -49.1057 H         1 UNK         0.0600 
    192 H192       -4.1516  -21.0307  -48.4397 H         1 UNK         0.0600 
    193 H193       -5.5287  -22.0500  -48.0610 H         1 UNK         0.0600 
    194 H194       -4.4439  -21.5259  -46.7766 H         1 UNK         0.0600 
    195 H195       -3.3526  -23.5682  -45.5179 H         1 UNK         0.3000 
    196 H196       -5.3125  -25.5894  -45.1278 H         1 UNK         0.0600 
    197 H197       -4.1821  -25.8711  -42.9093 H         1 UNK         0.0600 
    198 H198       -4.4784  -24.1803  -43.2835 H         1 UNK         0.0600 
    199 H199       -2.8567  -24.8476  -43.4517 H         1 UNK         0.0600 
    200 H200       -1.7611  -25.8157  -45.6404 H         1 UNK         0.3000 
    201 H201       -1.5622  -28.6339  -45.3748 H         1 UNK         0.0600 
    202 H202        0.3745  -27.1024  -45.1658 H         1 UNK         0.0600 
    203 H203        0.2422  -26.6568  -46.8657 H         1 UNK         0.0600 
    204 H204        0.6830  -28.2996  -46.4148 H         1 UNK         0.0600 
    205 H205       -2.0025  -26.5813  -48.2880 H         1 UNK         0.3000 
    206 H206       -1.9529  -28.8440  -50.1189 H         1 UNK         0.0600 
    207 H207       -1.0306  -26.5559  -50.6417 H         1 UNK         0.0600 
    208 H208       -2.2168  -27.0892  -51.8163 H         1 UNK         0.0600 
    209 H209       -2.6708  -25.9096  -50.5907 H         1 UNK         0.0600 
    210 H210       -4.3859  -27.6282  -48.1192 H         1 UNK         0.3000 
    211 H211       -6.5819  -27.7973  -47.9271 H         1 UNK         0.0600 
    212 H212       -6.4769  -29.9967  -50.0611 H         1 UNK         0.0600 
    213 H213       -7.7903  -29.6988  -48.9327 H         1 UNK         0.0600 
    214 H214       -6.2288  -30.2340  -48.3320 H         1 UNK         0.0600 
    215 H215       -5.8902  -25.6681  -49.1101 H         1 UNK         0.3000 
    216 H216       -6.5415  -23.8764  -50.1664 H         1 UNK         0.0600 
    217 H217       -8.8485  -24.5201  -49.4330 H         1 UNK         0.0600 
    218 H218       -9.1145  -25.3164  -50.9844 H         1 UNK         0.0600 
    219 H219       -8.8554  -23.5811  -50.9154 H         1 UNK         0.0600 
    220 H220       -5.3768  -26.3570  -51.8165 H         1 UNK         0.3000 
    221 H221       -5.7912  -25.4118  -54.5523 H         1 UNK         0.0600 
    222 H222       -3.8074  -27.4588  -53.4409 H         1 UNK         0.0600 
    223 H223       -5.4285  -27.8260  -54.0232 H         1 UNK         0.0600 
    224 H224       -4.2131  -27.2075  -55.1308 H         1 UNK         0.0600 
    225 H225       -3.8736  -24.3431  -51.9720 H         1 UNK         0.3000 
    226 H226       -1.9759  -22.8766  -53.7497 H         1 UNK         0.0600 
    227 H227       -0.7861  -24.5279  -52.2551 H         1 UNK         0.0600 
    228 H228       -0.3963  -22.8697  -51.8342 H         1 UNK         0.0600 
    229 H229       -1.5363  -23.7719  -50.8501 H         1 UNK         0.0600 
    230 H230       -1.2732  -20.8434  -52.6068 H         1 UNK         0.3000 
    231 H231       -1.6581  -18.7766  -51.9848 H         1 UNK         0.0600 
    232 H232       -3.1035  -18.1542  -50.1479 H         1 UNK         0.0600 
    233 H233       -2.3714  -19.6945  -49.7478 H         1 UNK         0.0600 
    234 H234       -4.0481  -19.6348  -50.2851 H         1 UNK         0.0600 
    235 H235       -4.6923  -17.9431  -51.5466 H         1 UNK         0.3000 
    236 H236       -6.1272  -16.6996  -52.7114 H         1 UNK         0.0600 
    237 H237       -7.0950  -17.5607  -54.8092 H         1 UNK         0.0600 
    238 H238       -5.7724  -18.6993  -55.0107 H         1 UNK         0.0600 
    239 H239       -6.8968  -18.8801  -53.6661 H         1 UNK         0.0600 
    240 H240       -3.8155  -15.6140  -52.4540 H         1 UNK         0.3000 
    241 H241       -2.1792  -15.2686  -54.6651 H         1 UNK         0.0600 
    242 H242       -5.0887  -13.4583  -54.2658 H         1 UNK         0.3800 
    243 H243       -4.6296  -12.1216  -55.2891 H         1 UNK         0.3800 
    244 H244       -0.8002  -13.8713  -53.2396 H         1 UNK         0.0800 
    245 H245       -2.1412  -13.4733  -52.2080 H         1 UNK         0.0800 
    246 H246        0.0552  -17.0357  -53.0925 H         1 UNK         0.0800 
    247 H247        0.8069  -15.4810  -52.8127 H         1 UNK         0.0800 
@<TRIPOS>BOND
     1    1    2 1    
     2    1  127 1    
     3    1  128 1    
     4    1  129 1    
     5    2    3 2    
     6    2    4 am   BACKBONE|DICT|INTERRES
     7    4    5 1    
     8    4  130 1    
     9    5    6 1    
    10    5   65 1    
    11    5  131 1    
    12    6    7 1    
    13    6  132 1    
    14    6  133 1    
    15    7    8 1    
    16    8    9 1    
    17    8  134 1    
    18    8  135 1    
    19    9   10 ar   
    20    9   14 ar   
    21   10   11 ar   
    22   10  136 1    
    23   11   12 ar   
    24   11  126 1    
    25   12   13 ar   
    26   12  137 1    
    27   13   14 ar   
    28   13   15 1    
    29   14  138 1    
    30   15   16 1    
    31   15  139 1    
    32   15  140 1    
    33   16   17 1    
    34   17   18 1    
    35   17  141 1    
    36   17  142 1    
    37   18   19 1    
    38   18   67 1    
    39   18  143 1    
    40   19   20 am   BACKBONE|DICT|INTERRES
    41   19  144 1    
    42   20   21 2    
    43   20   22 1    
    44   22   23 1    
    45   22   24 1    
    46   22  145 1    
    47   23  146 1    
    48   23  147 1    
    49   23  148 1    
    50   24   25 am   BACKBONE|DICT|INTERRES
    51   24  149 1    
    52   25   26 2    
    53   25   27 1    
    54   27   28 1    
    55   27   29 1    
    56   27  150 1    
    57   28  151 1    
    58   28  152 1    
    59   28  153 1    
    60   29   30 am   BACKBONE|DICT|INTERRES
    61   29  154 1    
    62   30   31 2    
    63   30   32 1    
    64   32   33 1    
    65   32   34 1    
    66   32  155 1    
    67   33  156 1    
    68   33  157 1    
    69   33  158 1    
    70   34   35 am   BACKBONE|DICT|INTERRES
    71   34  159 1    
    72   35   36 2    
    73   35   37 1    
    74   37   38 1    
    75   37   39 1    
    76   37  160 1    
    77   38  161 1    
    78   38  162 1    
    79   38  163 1    
    80   39   40 am   BACKBONE|DICT|INTERRES
    81   39  164 1    
    82   40   41 2    
    83   40   42 1    
    84   42   43 1    
    85   42   44 1    
    86   42  165 1    
    87   43  166 1    
    88   43  167 1    
    89   43  168 1    
    90   44   45 am   BACKBONE|DICT|INTERRES
    91   44  169 1    
    92   45   46 2    
    93   45   47 1    
    94   47   48 1    
    95   47   49 1    
    96   47  170 1    
    97   48  171 1    
    98   48  172 1    
    99   48  173 1    
   100   49   50 am   BACKBONE|DICT|INTERRES
   101   49  174 1    
   102   50   51 2    
   103   50   52 1    
   104   52   53 1    
   105   52   54 1    
   106   52  175 1    
   107   53  176 1    
   108   53  177 1    
   109   53  178 1    
   110   54   55 am   BACKBONE|DICT|INTERRES
   111   54  179 1    
   112   55   56 2    
   113   55   57 1    
   114   57   58 1    
   115   57   59 1    
   116   57  180 1    
   117   58  181 1    
   118   58  182 1    
   119   58  183 1    
   120   59   60 am   BACKBONE|DICT|INTERRES
   121   59  184 1    
   122   60   61 2    
   123   60   62 1    
   124   62   63 1    
   125   62   64 1    
   126   62  185 1    
   127   63  186 1    
   128   63  187 1    
   129   63  188 1    
   130   64   65 am   BACKBONE|DICT|INTERRES
   131   64  189 1    
   132   65   66 2    
   133   67   68 2    
   134   67   69 am   BACKBONE|DICT|INTERRES
   135   69   70 1    
   136   69  190 1    
   137   70   71 1    
   138   70   72 1    
   139   70  191 1    
   140   71  192 1    
   141   71  193 1    
   142   71  194 1    
   143   72   73 2    
   144   72   74 am   BACKBONE|DICT|INTERRES
   145   74   75 1    
   146   74  195 1    
   147   75   76 1    
   148   75   77 1    
   149   75  196 1    
   150   76  197 1    
   151   76  198 1    
   152   76  199 1    
   153   77   78 2    
   154   77   79 am   BACKBONE|DICT|INTERRES
   155   79   80 1    
   156   79  200 1    
   157   80   81 1    
   158   80   82 1    
   159   80  201 1    
   160   81  202 1    
   161   81  203 1    
   162   81  204 1    
   163   82   83 2    
   164   82   84 am   BACKBONE|DICT|INTERRES
   165   84   85 1    
   166   84  205 1    
   167   85   86 1    
   168   85   87 1    
   169   85  206 1    
   170   86  207 1    
   171   86  208 1    
   172   86  209 1    
   173   87   88 2    
   174   87   89 am   BACKBONE|DICT|INTERRES
   175   89   90 1    
   176   89  210 1    
   177   90   91 1    
   178   90   92 1    
   179   90  211 1    
   180   91  212 1    
   181   91  213 1    
   182   91  214 1    
   183   92   93 2    
   184   92   94 am   BACKBONE|DICT|INTERRES
   185   94   95 1    
   186   94  215 1    
   187   95   96 1    
   188   95   97 1    
   189   95  216 1    
   190   96  217 1    
   191   96  218 1    
   192   96  219 1    
   193   97   98 2    
   194   97   99 am   BACKBONE|DICT|INTERRES
   195   99  100 1    
   196   99  220 1    
   197  100  101 1    
   198  100  102 1    
   199  100  221 1    
   200  101  222 1    
   201  101  223 1    
   202  101  224 1    
   203  102  103 2    
   204  102  104 am   BACKBONE|DICT|INTERRES
   205  104  105 1    
   206  104  225 1    
   207  105  106 1    
   208  105  107 1    
   209  105  226 1    
   210  106  227 1    
   211  106  228 1    
   212  106  229 1    
   213  107  108 2    
   214  107  109 am   BACKBONE|DICT|INTERRES
   215  109  110 1    
   216  109  230 1    
   217  110  111 1    
   218  110  112 1    
   219  110  231 1    
   220  111  232 1    
   221  111  233 1    
   222  111  234 1    
   223  112  113 2    
   224  112  114 am   BACKBONE|DICT|INTERRES
   225  114  115 1    
   226  114  235 1    
   227  115  116 1    
   228  115  117 1    
   229  115  236 1    
   230  116  237 1    
   231  116  238 1    
   232  116  239 1    
   233  117  118 2    
   234  117  119 am   BACKBONE|DICT|INTERRES
   235  119  120 1    
   236  119  240 1    
   237  120  121 1    
   238  120  124 1    
   239  120  241 1    
   240  121  122 am   BACKBONE|DICT|INTERRES
   241  121  123 2    
   242  122  242 1    
   243  122  243 1    
   244  124  125 1    
   245  124  244 1    
   246  124  245 1    
   247  125  126 1    
   248  126  246 1    
   249  126  247 1    
@<TRIPOS>SUBSTRUCTURE
     1 UNK         1 GROUP             0       ****    0 ROOT    
