@<TRIPOS>MOLECULE
3R540
247   249    1
SMALL
USER_CHARGES


@<TRIPOS>ATOM
      1 CA         -3.3368  -16.3225  -47.0111 C.3       0 UNK        -0.1800 
      2 C          -2.1150  -16.0323  -47.8697 C.2       0 UNK         0.5000 
      3 O          -1.9384  -16.6564  -48.9150 O.2       0 UNK        -0.5000 
      4 N          -1.2809  -15.0874  -47.4322 N.am      1 UNK        -0.5000 
      5 CA         -0.0938  -14.6072  -48.1354 C.3       1 UNK         0.1400 
      6 C6          1.1657  -15.4277  -47.7512 C.3       23 UNK        -0.0398 
      7 S7          2.4967  -15.3397  -48.9989 S.3       23 UNK        -0.2404 
      8 C8          3.3189  -16.9543  -48.7724 C.3       23 UNK        -0.0205 
      9 C9          2.7401  -18.1147  -49.5853 C.ar      23 UNK        -0.0193 
     10 C10         1.4299  -18.1205  -50.0807 C.ar      23 UNK        -0.1150 
     11 C11         0.9557  -19.1945  -50.8387 C.ar      23 UNK        -0.0193 
     12 C12         1.7921  -20.2854  -51.0903 C.ar      23 UNK        -0.1150 
     13 C13         3.0994  -20.3000  -50.5975 C.ar      23 UNK        -0.0193 
     14 C14         3.5620  -19.2150  -49.8466 C.ar      23 UNK        -0.1150 
     15 C15         4.0289  -21.4704  -50.8953 C.3       23 UNK        -0.0205 
     16 S16         3.5198  -23.0238  -50.0883 S.3       23 UNK        -0.2404 
     17 C17         3.4804  -22.5577  -48.3203 C.3       23 UNK        -0.0398 
     18 CA          2.2928  -23.1571  -47.5277 C.3       11 UNK         0.1400 
     19 N           2.3570  -22.7523  -46.1214 N.am      11 UNK        -0.5000 
     20 C           1.5890  -23.2265  -45.1347 C.2       10 UNK         0.5000 
     21 O           0.7604  -24.1226  -45.2928 O.2       10 UNK        -0.5000 
     22 CA          1.7265  -22.5537  -43.7577 C.3       10 UNK         0.1400 
     23 CB          2.9593  -23.0718  -42.9955 C.3       10 UNK        -0.1800 
     24 N           1.6941  -21.0860  -43.8023 N.am      10 UNK        -0.5000 
     25 C           2.5858  -20.2181  -44.3039 C.2       9 UNK         0.5000 
     26 O           3.6130  -20.5500  -44.8967 O.2       9 UNK        -0.5000 
     27 CA          2.2675  -18.7214  -44.1194 C.3       9 UNK         0.1400 
     28 CB          1.4507  -18.1898  -45.3046 C.3       9 UNK        -0.1800 
     29 N           1.5313  -18.4470  -42.8864 N.am      9 UNK        -0.5000 
     30 C           2.0314  -18.5660  -41.6490 C.2       8 UNK         0.5000 
     31 O           3.2096  -18.8265  -41.4035 O.2       8 UNK        -0.5000 
     32 CA          1.0286  -18.4026  -40.4944 C.3       8 UNK         0.1400 
     33 CB          0.7710  -16.9177  -40.1919 C.3       8 UNK        -0.1800 
     34 N          -0.2382  -19.0748  -40.7906 N.am      8 UNK        -0.5000 
     35 C          -0.4190  -20.4028  -40.7408 C.2       7 UNK         0.5000 
     36 O           0.4489  -21.1975  -40.3804 O.2       7 UNK        -0.5000 
     37 CA         -1.7954  -20.9411  -41.1759 C.3       7 UNK         0.1400 
     38 CB         -2.7185  -21.1046  -39.9594 C.3       7 UNK        -0.1800 
     39 N          -2.4581  -20.0917  -42.1663 N.am      7 UNK        -0.5000 
     40 C          -2.0955  -20.0030  -43.4525 C.2       6 UNK         0.5000 
     41 O          -1.1649  -20.6361  -43.9513 O.2       6 UNK        -0.5000 
     42 CA         -2.8836  -19.0017  -44.3152 C.3       6 UNK         0.1400 
     43 CB         -4.1832  -19.6358  -44.8336 C.3       6 UNK        -0.1800 
     44 N          -3.1746  -17.7351  -43.6378 N.am      6 UNK        -0.5000 
     45 C          -2.2325  -16.9110  -43.1600 C.2       5 UNK         0.5000 
     46 O          -1.0287  -17.1814  -43.1634 O.2       5 UNK        -0.5000 
     47 CA         -2.7178  -15.5927  -42.5320 C.3       5 UNK         0.1400 
     48 CB         -3.2231  -15.8417  -41.1022 C.3       5 UNK        -0.1800 
     49 N          -1.6396  -14.6058  -42.4808 N.am      5 UNK        -0.5000 
     50 C          -1.1294  -13.9779  -43.5465 C.2       4 UNK         0.5000 
     51 O          -1.5978  -14.0547  -44.6848 O.2       4 UNK        -0.5000 
     52 CA          0.1431  -13.1613  -43.2949 C.3       4 UNK         0.1400 
     53 CB          1.3963  -14.0111  -43.5664 C.3       4 UNK        -0.1800 
     54 N           0.1553  -11.9741  -44.1459 N.am      4 UNK        -0.5000 
     55 C           0.6893  -10.7971  -43.7921 C.2       3 UNK         0.5000 
     56 O           1.2493  -10.6085  -42.7098 O.2       3 UNK        -0.5000 
     57 CA          0.5673   -9.6343  -44.8031 C.3       3 UNK         0.1400 
     58 CB          1.5576   -8.4833  -44.5241 C.3       3 UNK        -0.1800 
     59 N           0.6520  -10.0618  -46.2029 N.am      3 UNK        -0.5000 
     60 C           1.6811  -10.6699  -46.8094 C.2       2 UNK         0.5000 
     61 O           2.7496  -10.9488  -46.2620 O.2       2 UNK        -0.5000 
     62 CA          1.4475  -11.0664  -48.2807 C.3       2 UNK         0.1400 
     63 CB          2.6791  -10.7663  -49.1516 C.3       2 UNK        -0.1800 
     64 N           1.1061  -12.4823  -48.4163 N.am      2 UNK        -0.5000 
     65 C           0.0484  -13.0931  -47.8683 C.2       1 UNK         0.5000 
     66 O          -0.7990  -12.5003  -47.1938 O.2       1 UNK        -0.5000 
     67 C           0.9135  -22.8243  -48.1430 C.2       11 UNK         0.5000 
     68 O           0.3698  -23.6307  -48.8957 O.2       11 UNK        -0.5000 
     69 N           0.3374  -21.6792  -47.7541 N.am      12 UNK        -0.5000 
     70 CA         -1.0060  -21.2583  -48.1449 C.3       12 UNK         0.1400 
     71 CB         -1.2167  -19.8123  -47.6904 C.3       12 UNK        -0.1800 
     72 C          -2.1113  -22.1800  -47.5919 C.2       12 UNK         0.5000 
     73 O          -3.0559  -22.4900  -48.3176 O.2       12 UNK        -0.5000 
     74 N          -1.9595  -22.6344  -46.3385 N.am      13 UNK        -0.5000 
     75 CA         -2.8422  -23.6257  -45.7190 C.3       13 UNK         0.1400 
     76 CB         -2.5962  -23.6926  -44.2041 C.3       13 UNK        -0.1800 
     77 C          -2.7022  -25.0166  -46.3621 C.2       13 UNK         0.5000 
     78 O          -3.7146  -25.6791  -46.5861 O.2       13 UNK        -0.5000 
     79 N          -1.4658  -25.4170  -46.6935 N.am      14 UNK        -0.5000 
     80 CA         -1.1595  -26.6559  -47.4163 C.3       14 UNK         0.1400 
     81 CB          0.3593  -26.8839  -47.4288 C.3       14 UNK        -0.1800 
     82 C          -1.7313  -26.6723  -48.8489 C.2       14 UNK         0.5000 
     83 O          -2.1809  -27.7204  -49.3129 O.2       14 UNK        -0.5000 
     84 N          -1.7481  -25.5021  -49.5023 N.am      15 UNK        -0.5000 
     85 CA         -2.3737  -25.2616  -50.8050 C.3       15 UNK         0.1400 
     86 CB         -1.8066  -23.9597  -51.3934 C.3       15 UNK        -0.1800 
     87 C          -3.9173  -25.2111  -50.7533 C.2       15 UNK         0.5000 
     88 O          -4.5506  -25.1822  -51.8094 O.2       15 UNK        -0.5000 
     89 N          -4.4934  -25.1945  -49.5418 N.am      16 UNK        -0.5000 
     90 CA         -5.9136  -25.2209  -49.1740 C.3       16 UNK         0.1400 
     91 CB         -6.6130  -26.4845  -49.7101 C.3       16 UNK        -0.1800 
     92 C          -6.6956  -23.9474  -49.5400 C.2       16 UNK         0.5000 
     93 O          -7.3566  -23.3758  -48.6725 O.2       16 UNK        -0.5000 
     94 N          -6.6107  -23.5215  -50.8049 N.am      17 UNK        -0.5000 
     95 CA         -7.2964  -22.3416  -51.3372 C.3       17 UNK         0.1400 
     96 CB         -7.6173  -22.5776  -52.8212 C.3       17 UNK        -0.1800 
     97 C          -6.4967  -21.0383  -51.1349 C.2       17 UNK         0.5000 
     98 O          -6.9987  -19.9693  -51.4866 O.2       17 UNK        -0.5000 
     99 N          -5.2797  -21.1407  -50.5764 N.am      18 UNK        -0.5000 
    100 CA        -4.3631  -20.0476  -50.2472 C.3       18 UNK         0.1400 
    101 CB        -4.8912  -19.2623  -49.0265 C.3       18 UNK        -0.1800 
    102 C         -4.0435  -19.1774  -51.4766 C.2       18 UNK         0.5000 
    103 O         -3.5182  -19.7059  -52.4580 O.2       18 UNK        -0.5000 
    104 N         -4.3838  -17.8832  -51.4227 N.am      19 UNK        -0.5000 
    105 CA        -4.1599  -16.8948  -52.4794 C.3       19 UNK         0.1400 
    106 CB        -4.6815  -15.5310  -52.0039 C.3       19 UNK        -0.1800 
    107 C         -4.7798  -17.2694  -53.8399 C.2       19 UNK         0.5000 
    108 O         -4.2252  -16.9034  -54.8759 O.2       19 UNK        -0.5000 
    109 N         -5.8900  -18.0205  -53.8238 N.am      20 UNK        -0.5000 
    110 CA        -6.5447  -18.5307  -55.0284 C.3       20 UNK         0.1400 
    111 CB        -7.9919  -18.9187  -54.6931 C.3       20 UNK        -0.1800 
    112 C         -5.7907  -19.7068  -55.6827 C.2       20 UNK         0.5000 
    113 O         -6.0101  -19.9632  -56.8674 O.2       20 UNK        -0.5000 
    114 N         -4.9195  -20.3921  -54.9269 N.am      21 UNK        -0.5000 
    115 CA        -4.0455  -21.4450  -55.4400 C.3       21 UNK         0.1400 
    116 CB        -3.8038  -22.5176  -54.3645 C.3       21 UNK        -0.1800 
    117 C         -2.7147  -20.8621  -55.9389 C.2       21 UNK         0.5000 
    118 O         -2.3224  -21.1486  -57.0711 O.2       21 UNK        -0.5000 
    119 N         -2.0379  -20.0719  -55.0926 N.am      22 UNK        -0.5000 
    120 CA        -0.7184  -19.4934  -55.4066 C.3       22 UNK         0.1400 
    121 C         -0.7411  -18.2342  -56.3214 C.2       22 UNK         0.5000 
    122 N         -1.8580  -17.5366  -56.4830 N.am      22 UNK        -0.7600 
    123 O          0.2771  -17.8953  -56.9188 O.2       22 UNK        -0.5000 
    124 C124        0.1614  -19.2905  -54.1469 C.3       23 UNK        -0.0398 
    125 S125       -0.5516  -18.1560  -52.9076 S.3       23 UNK        -0.2404 
    126 C126       -0.4596  -19.1571  -51.3905 C.3       23 UNK        -0.0205 
    127 H127       -3.3773  -17.3823  -46.7695 H         1 UNK         0.0600 
    128 H128       -3.3194  -15.7605  -46.0772 H         1 UNK         0.0600 
    129 H129       -4.2459  -16.0597  -47.5515 H         1 UNK         0.0600 
    130 H130       -1.4918  -14.5753  -46.5769 H         1 UNK         0.3000 
    131 H131       -0.2699  -14.7109  -49.2085 H         1 UNK         0.0600 
    132 H132        0.8898  -16.4768  -47.6394 H         1 UNK         0.0800 
    133 H133        1.5612  -15.1190  -46.7835 H         1 UNK         0.0800 
    134 H134        4.3642  -16.8190  -49.0545 H         1 UNK         0.0800 
    135 H135        3.3258  -17.2186  -47.7150 H         1 UNK         0.0800 
    136 H136        0.7674  -17.2871  -49.8988 H         1 UNK         0.1150 
    137 H137        1.4318  -21.1218  -51.6722 H         1 UNK         0.1150 
    138 H138        4.5751  -19.2223  -49.4691 H         1 UNK         0.1150 
    139 H139        4.0608  -21.6304  -51.9739 H         1 UNK         0.0800 
    140 H140        5.0515  -21.2383  -50.5938 H         1 UNK         0.0800 
    141 H141        3.4785  -21.4732  -48.2164 H         1 UNK         0.0800 
    142 H142        4.4187  -22.8915  -47.8751 H         1 UNK         0.0800 
    143 H143        2.3969  -24.2436  -47.5520 H         1 UNK         0.0600 
    144 H144        2.9999  -22.0011  -45.8819 H         1 UNK         0.3000 
    145 H145        0.8452  -22.8425  -43.1824 H         1 UNK         0.0600 
    146 H146        3.0104  -22.6398  -41.9958 H         1 UNK         0.0600 
    147 H147        2.9167  -24.1555  -42.8802 H         1 UNK         0.0600 
    148 H148        3.8905  -22.8359  -43.5110 H         1 UNK         0.0600 
    149 H149        0.8306  -20.6879  -43.4507 H         1 UNK         0.3000 
    150 H150        3.2165  -18.1827  -44.0843 H         1 UNK         0.0600 
    151 H151        1.9131  -18.4483  -46.2574 H         1 UNK         0.0600 
    152 H152        1.3648  -17.1046  -45.2579 H         1 UNK         0.0600 
    153 H153        0.4410  -18.5975  -45.3038 H         1 UNK         0.0600 
    154 H154        0.5623  -18.1555  -42.9916 H         1 UNK         0.3000 
    155 H155        1.4643  -18.8574  -39.6021 H         1 UNK         0.0600 
    156 H156        0.3536  -16.3928  -41.0505 H         1 UNK         0.0600 
    157 H157        1.6982  -16.4113  -39.9207 H         1 UNK         0.0600 
    158 H158        0.0801  -16.7993  -39.3572 H         1 UNK         0.0600 
    159 H159       -0.9837  -18.4981  -41.1509 H         1 UNK         0.3000 
    160 H160       -1.6375  -21.9273  -41.6181 H         1 UNK         0.0600 
    161 H161       -3.6698  -21.5543  -40.2443 H         1 UNK         0.0600 
    162 H162       -2.9284  -20.1472  -39.4808 H         1 UNK         0.0600 
    163 H163       -2.2650  -21.7543  -39.2095 H         1 UNK         0.0600 
    164 H164       -3.2332  -19.5317  -41.8431 H         1 UNK         0.3000 
    165 H165       -2.2616  -18.7503  -45.1712 H         1 UNK         0.0600 
    166 H166       -4.7122  -18.9656  -45.5108 H         1 UNK         0.0600 
    167 H167       -3.9761  -20.5536  -45.3856 H         1 UNK         0.0600 
    168 H168       -4.8611  -19.8896  -44.0178 H         1 UNK         0.0600 
    169 H169       -4.1457  -17.4642  -43.5787 H         1 UNK         0.3000 
    170 H170       -3.5338  -15.1934  -43.1380 H         1 UNK         0.0600 
    171 H171       -4.0551  -16.5470  -41.0944 H         1 UNK         0.0600 
    172 H172       -2.4402  -16.2508  -40.4620 H         1 UNK         0.0600 
    173 H173       -3.5803  -14.9187  -40.6450 H         1 UNK         0.0600 
    174 H174       -1.1742  -14.5068  -41.5912 H         1 UNK         0.3000 
    175 H175        0.1425  -12.8595  -42.2451 H         1 UNK         0.0600 
    176 H176        1.4583  -14.3045  -44.6135 H         1 UNK         0.0600 
    177 H177        2.3057  -13.4635  -43.3188 H         1 UNK         0.0600 
    178 H178        1.3914  -14.9244  -42.9696 H         1 UNK         0.0600 
    179 H179       -0.3173  -12.0717  -45.0392 H         1 UNK         0.3000 
    180 H180       -0.4392   -9.2345  -44.6719 H         1 UNK         0.0600 
    181 H181        2.5938   -8.8193  -44.5716 H         1 UNK         0.0600 
    182 H182        1.3970   -8.0598  -43.5319 H         1 UNK         0.0600 
    183 H183        1.4341   -7.6736  -45.2433 H         1 UNK         0.0600 
    184 H184       -0.1999   -9.9487  -46.7356 H         1 UNK         0.3000 
    185 H185        0.6131  -10.4805  -48.6721 H         1 UNK         0.0600 
    186 H186        3.5389  -11.3704  -48.8585 H         1 UNK         0.0600 
    187 H187        2.4752  -10.9635  -50.2043 H         1 UNK         0.0600 
    188 H188        2.9698   -9.7184  -49.0681 H         1 UNK         0.0600 
    189 H189        1.7700  -13.0514  -48.9246 H         1 UNK         0.3000 
    190 H190        0.8402  -21.0764  -47.1214 H         1 UNK         0.3000 
    191 H191       -1.0670  -21.2881  -49.2345 H         1 UNK         0.0600 
    192 H192       -1.0113  -19.7174  -46.6286 H         1 UNK         0.0600 
    193 H193       -2.2381  -19.4785  -47.8672 H         1 UNK         0.0600 
    194 H194       -0.5521  -19.1277  -48.2159 H         1 UNK         0.0600 
    195 H195       -1.1676  -22.3262  -45.7921 H         1 UNK         0.3000 
    196 H196       -3.8739  -23.3012  -45.8725 H         1 UNK         0.0600 
    197 H197       -1.5462  -23.8614  -43.9665 H         1 UNK         0.0600 
    198 H198       -3.1695  -24.5014  -43.7492 H         1 UNK         0.0600 
    199 H199       -2.9094  -22.7714  -43.7165 H         1 UNK         0.0600 
    200 H200       -0.6767  -24.8403  -46.4169 H         1 UNK         0.3000 
    201 H201       -1.6199  -27.4801  -46.8676 H         1 UNK         0.0600 
    202 H202        0.7661  -26.8956  -46.4174 H         1 UNK         0.0600 
    203 H203        0.8793  -26.1086  -47.9904 H         1 UNK         0.0600 
    204 H204        0.6046  -27.8410  -47.8905 H         1 UNK         0.0600 
    205 H205       -1.2662  -24.7121  -49.0837 H         1 UNK         0.3000 
    206 H206       -2.0985  -26.0821  -51.4705 H         1 UNK         0.0600 
    207 H207       -0.7172  -23.9815  -51.4286 H         1 UNK         0.0600 
    208 H208       -2.1554  -23.8139  -52.4145 H         1 UNK         0.0600 
    209 H209       -2.1063  -23.0870  -50.8129 H         1 UNK         0.0600 
    210 H210       -3.8678  -25.1828  -48.7461 H         1 UNK         0.3000 
    211 H211       -5.9284  -25.2865  -48.0853 H         1 UNK         0.0600 
    212 H212       -6.6552  -26.5008  -50.7994 H         1 UNK         0.0600 
    213 H213       -7.6389  -26.5444  -49.3449 H         1 UNK         0.0600 
    214 H214       -6.0978  -27.3872  -49.3812 H         1 UNK         0.0600 
    215 H215       -6.0137  -24.0462  -51.4400 H         1 UNK         0.3000 
    216 H216       -8.2460  -22.2202  -50.8120 H         1 UNK         0.0600 
    217 H217       -8.3310  -21.8386  -53.1835 H         1 UNK         0.0600 
    218 H218       -8.0665  -23.5580  -52.9813 H         1 UNK         0.0600 
    219 H219       -6.7291  -22.5071  -53.4459 H         1 UNK         0.0600 
    220 H220       -4.9554  -22.0655  -50.3323 H         1 UNK         0.3000 
    221 H221       -3.4157  -20.5049  -49.9662 H         1 UNK         0.0600 
    222 H222       -5.8733  -18.8249  -49.2088 H         1 UNK         0.0600 
    223 H223       -4.9771  -19.9142  -48.1568 H         1 UNK         0.0600 
    224 H224       -4.2124  -18.4552  -48.7549 H         1 UNK         0.0600 
    225 H225       -4.8252  -17.5430  -50.5817 H         1 UNK         0.3000 
    226 H226       -3.0831  -16.8091  -52.6256 H         1 UNK         0.0600 
    227 H227       -4.1742  -15.2115  -51.0931 H         1 UNK         0.0600 
    228 H228       -4.5080  -14.7619  -52.7578 H         1 UNK         0.0600 
    229 H229       -5.7530  -15.5583  -51.8020 H         1 UNK         0.0600 
    230 H230       -6.2666  -18.3262  -52.9345 H         1 UNK         0.3000 
    231 H231       -6.5823  -17.7253  -55.7651 H         1 UNK         0.0600 
    232 H232       -8.5531  -18.0616  -54.3209 H         1 UNK         0.0600 
    233 H233       -8.0323  -19.6982  -53.9349 H         1 UNK         0.0600 
    234 H234       -8.5136  -19.2906  -55.5758 H         1 UNK         0.0600 
    235 H235       -4.7375  -20.0830  -53.9781 H         1 UNK         0.3000 
    236 H236       -4.5247  -21.9420  -56.2863 H         1 UNK         0.0600 
    237 H237       -3.0479  -23.2326  -54.6917 H         1 UNK         0.0600 
    238 H238       -3.4618  -22.0882  -53.4240 H         1 UNK         0.0600 
    239 H239       -4.7067  -23.0901  -54.1625 H         1 UNK         0.0600 
    240 H240       -2.4238  -19.8654  -54.1766 H         1 UNK         0.3000 
    241 H241       -0.1864  -20.2411  -55.9987 H         1 UNK         0.0600 
    242 H242       -1.8465  -16.7319  -57.0884 H         1 UNK         0.3800 
    243 H243       -2.6900  -17.7283  -55.9383 H         1 UNK         0.3800 
    244 H244        0.3388  -20.2624  -53.6867 H         1 UNK         0.0800 
    245 H245        1.1493  -18.9177  -54.4228 H         1 UNK         0.0800 
    246 H246       -1.1251  -18.7181  -50.6461 H         1 UNK         0.0800 
    247 H247       -0.8353  -20.1637  -51.5809 H         1 UNK         0.0800 
@<TRIPOS>BOND
     1    1    2 1    
     2    1  127 1    
     3    1  128 1    
     4    1  129 1    
     5    2    3 2    
     6    2    4 am   BACKBONE|DICT|INTERRES
     7    4    5 1    
     8    4  130 1    
     9    5    6 1    
    10    5   65 1    
    11    5  131 1    
    12    6    7 1    
    13    6  132 1    
    14    6  133 1    
    15    7    8 1    
    16    8    9 1    
    17    8  134 1    
    18    8  135 1    
    19    9   10 ar   
    20    9   14 ar   
    21   10   11 ar   
    22   10  136 1    
    23   11   12 ar   
    24   11  126 1    
    25   12   13 ar   
    26   12  137 1    
    27   13   14 ar   
    28   13   15 1    
    29   14  138 1    
    30   15   16 1    
    31   15  139 1    
    32   15  140 1    
    33   16   17 1    
    34   17   18 1    
    35   17  141 1    
    36   17  142 1    
    37   18   19 1    
    38   18   67 1    
    39   18  143 1    
    40   19   20 am   BACKBONE|DICT|INTERRES
    41   19  144 1    
    42   20   21 2    
    43   20   22 1    
    44   22   23 1    
    45   22   24 1    
    46   22  145 1    
    47   23  146 1    
    48   23  147 1    
    49   23  148 1    
    50   24   25 am   BACKBONE|DICT|INTERRES
    51   24  149 1    
    52   25   26 2    
    53   25   27 1    
    54   27   28 1    
    55   27   29 1    
    56   27  150 1    
    57   28  151 1    
    58   28  152 1    
    59   28  153 1    
    60   29   30 am   BACKBONE|DICT|INTERRES
    61   29  154 1    
    62   30   31 2    
    63   30   32 1    
    64   32   33 1    
    65   32   34 1    
    66   32  155 1    
    67   33  156 1    
    68   33  157 1    
    69   33  158 1    
    70   34   35 am   BACKBONE|DICT|INTERRES
    71   34  159 1    
    72   35   36 2    
    73   35   37 1    
    74   37   38 1    
    75   37   39 1    
    76   37  160 1    
    77   38  161 1    
    78   38  162 1    
    79   38  163 1    
    80   39   40 am   BACKBONE|DICT|INTERRES
    81   39  164 1    
    82   40   41 2    
    83   40   42 1    
    84   42   43 1    
    85   42   44 1    
    86   42  165 1    
    87   43  166 1    
    88   43  167 1    
    89   43  168 1    
    90   44   45 am   BACKBONE|DICT|INTERRES
    91   44  169 1    
    92   45   46 2    
    93   45   47 1    
    94   47   48 1    
    95   47   49 1    
    96   47  170 1    
    97   48  171 1    
    98   48  172 1    
    99   48  173 1    
   100   49   50 am   BACKBONE|DICT|INTERRES
   101   49  174 1    
   102   50   51 2    
   103   50   52 1    
   104   52   53 1    
   105   52   54 1    
   106   52  175 1    
   107   53  176 1    
   108   53  177 1    
   109   53  178 1    
   110   54   55 am   BACKBONE|DICT|INTERRES
   111   54  179 1    
   112   55   56 2    
   113   55   57 1    
   114   57   58 1    
   115   57   59 1    
   116   57  180 1    
   117   58  181 1    
   118   58  182 1    
   119   58  183 1    
   120   59   60 am   BACKBONE|DICT|INTERRES
   121   59  184 1    
   122   60   61 2    
   123   60   62 1    
   124   62   63 1    
   125   62   64 1    
   126   62  185 1    
   127   63  186 1    
   128   63  187 1    
   129   63  188 1    
   130   64   65 am   BACKBONE|DICT|INTERRES
   131   64  189 1    
   132   65   66 2    
   133   67   68 2    
   134   67   69 am   BACKBONE|DICT|INTERRES
   135   69   70 1    
   136   69  190 1    
   137   70   71 1    
   138   70   72 1    
   139   70  191 1    
   140   71  192 1    
   141   71  193 1    
   142   71  194 1    
   143   72   73 2    
   144   72   74 am   BACKBONE|DICT|INTERRES
   145   74   75 1    
   146   74  195 1    
   147   75   76 1    
   148   75   77 1    
   149   75  196 1    
   150   76  197 1    
   151   76  198 1    
   152   76  199 1    
   153   77   78 2    
   154   77   79 am   BACKBONE|DICT|INTERRES
   155   79   80 1    
   156   79  200 1    
   157   80   81 1    
   158   80   82 1    
   159   80  201 1    
   160   81  202 1    
   161   81  203 1    
   162   81  204 1    
   163   82   83 2    
   164   82   84 am   BACKBONE|DICT|INTERRES
   165   84   85 1    
   166   84  205 1    
   167   85   86 1    
   168   85   87 1    
   169   85  206 1    
   170   86  207 1    
   171   86  208 1    
   172   86  209 1    
   173   87   88 2    
   174   87   89 am   BACKBONE|DICT|INTERRES
   175   89   90 1    
   176   89  210 1    
   177   90   91 1    
   178   90   92 1    
   179   90  211 1    
   180   91  212 1    
   181   91  213 1    
   182   91  214 1    
   183   92   93 2    
   184   92   94 am   BACKBONE|DICT|INTERRES
   185   94   95 1    
   186   94  215 1    
   187   95   96 1    
   188   95   97 1    
   189   95  216 1    
   190   96  217 1    
   191   96  218 1    
   192   96  219 1    
   193   97   98 2    
   194   97   99 am   BACKBONE|DICT|INTERRES
   195   99  100 1    
   196   99  220 1    
   197  100  101 1    
   198  100  102 1    
   199  100  221 1    
   200  101  222 1    
   201  101  223 1    
   202  101  224 1    
   203  102  103 2    
   204  102  104 am   BACKBONE|DICT|INTERRES
   205  104  105 1    
   206  104  225 1    
   207  105  106 1    
   208  105  107 1    
   209  105  226 1    
   210  106  227 1    
   211  106  228 1    
   212  106  229 1    
   213  107  108 2    
   214  107  109 am   BACKBONE|DICT|INTERRES
   215  109  110 1    
   216  109  230 1    
   217  110  111 1    
   218  110  112 1    
   219  110  231 1    
   220  111  232 1    
   221  111  233 1    
   222  111  234 1    
   223  112  113 2    
   224  112  114 am   BACKBONE|DICT|INTERRES
   225  114  115 1    
   226  114  235 1    
   227  115  116 1    
   228  115  117 1    
   229  115  236 1    
   230  116  237 1    
   231  116  238 1    
   232  116  239 1    
   233  117  118 2    
   234  117  119 am   BACKBONE|DICT|INTERRES
   235  119  120 1    
   236  119  240 1    
   237  120  121 1    
   238  120  124 1    
   239  120  241 1    
   240  121  122 am   BACKBONE|DICT|INTERRES
   241  121  123 2    
   242  122  242 1    
   243  122  243 1    
   244  124  125 1    
   245  124  244 1    
   246  124  245 1    
   247  125  126 1    
   248  126  246 1    
   249  126  247 1    
@<TRIPOS>SUBSTRUCTURE
     1 UNK         1 GROUP             0       ****    0 ROOT    
