@<TRIPOS>MOLECULE
3R540
247   249    1
SMALL
USER_CHARGES


@<TRIPOS>ATOM
      1 CA         -2.0240  -16.4556  -40.7599 C.3       0 UNK        -0.1800 
      2 C          -2.0594  -15.1533  -41.5475 C.2       0 UNK         0.5000 
      3 O          -2.9303  -14.3157  -41.3109 O.2       0 UNK        -0.5000 
      4 N          -1.1232  -14.9882  -42.4884 N.am      1 UNK        -0.5000 
      5 CA         -0.9675  -13.8005  -43.3340 C.3       1 UNK         0.1400 
      6 C6         -0.0200  -14.0683  -44.5269 C.3       23 UNK        -0.0398 
      7 S7         -0.5238  -15.4986  -45.5362 S.3       23 UNK        -0.2404 
      8 C8         -1.4425  -14.7112  -46.8918 C.3       23 UNK        -0.0205 
      9 C9         -1.8404  -15.7641  -47.9110 C.ar      23 UNK        -0.0193 
     10 C10        -1.1722  -15.8634  -49.1329 C.ar      23 UNK        -0.1150 
     11 C11        -1.4903  -16.8850  -50.0313 C.ar      23 UNK        -0.0193 
     12 C12        -2.4715  -17.8223  -49.6922 C.ar      23 UNK        -0.1150 
     13 C13        -3.1514  -17.7324  -48.4733 C.ar      23 UNK        -0.0193 
     14 C14        -2.8474  -16.6800  -47.6022 C.ar      23 UNK        -0.1150 
     15 C15        -4.1959  -18.7882  -48.1151 C.3       23 UNK        -0.0205 
     16 S16        -4.3087  -19.1706  -46.3298 S.3       23 UNK        -0.2404 
     17 C17        -2.6361  -19.8122  -45.9670 C.3       23 UNK        -0.0398 
     18 CA         -2.5665  -21.3506  -46.0945 C.3       11 UNK         0.1400 
     19 N          -1.2277  -21.8096  -46.4823 N.am      11 UNK        -0.5000 
     20 C          -0.9055  -23.0552  -46.8604 C.2       10 UNK         0.5000 
     21 O          -1.7143  -23.9823  -46.9056 O.2       10 UNK        -0.5000 
     22 CA          0.5686  -23.3135  -47.2045 C.3       10 UNK         0.1400 
     23 CB          0.8877  -22.8409  -48.6324 C.3       10 UNK        -0.1800 
     24 N           1.4426  -22.6373  -46.2465 N.am      10 UNK        -0.5000 
     25 C           1.7560  -23.1304  -45.0395 C.2       9 UNK         0.5000 
     26 O           1.4235  -24.2513  -44.6549 O.2       9 UNK        -0.5000 
     27 CA          2.5567  -22.2169  -44.0902 C.3       9 UNK         0.1400 
     28 CB          4.0643  -22.4606  -44.2546 C.3       9 UNK        -0.1800 
     29 N           2.2789  -20.7926  -44.2828 N.am      9 UNK        -0.5000 
     30 C           1.1092  -20.1955  -44.0135 C.2       8 UNK         0.5000 
     31 O           0.1356  -20.7792  -43.5372 O.2       8 UNK        -0.5000 
     32 CA          0.9949  -18.7052  -44.3928 C.3       8 UNK         0.1400 
     33 CB          1.4651  -17.8242  -43.2253 C.3       8 UNK        -0.1800 
     34 N           1.7307  -18.3395  -45.6113 N.am      8 UNK        -0.5000 
     35 C           1.5505  -18.9087  -46.8141 C.2       7 UNK         0.5000 
     36 O           0.7527  -19.8268  -47.0080 O.2       7 UNK        -0.5000 
     37 CA          2.4089  -18.3892  -47.9795 C.3       7 UNK         0.1400 
     38 CB          1.8342  -18.7654  -49.3571 C.3       7 UNK        -0.1800 
     39 N           2.5652  -16.9415  -47.8844 N.am      7 UNK        -0.5000 
     40 C           3.7103  -16.2778  -48.0821 C.2       6 UNK         0.5000 
     41 O           4.7623  -16.8108  -48.4391 O.2       6 UNK        -0.5000 
     42 CA          3.6961  -14.7588  -47.8124 C.3       6 UNK         0.1400 
     43 CB          2.2948  -14.1212  -47.8979 C.3       6 UNK        -0.1800 
     44 N           4.3208  -14.3980  -46.5361 N.am      6 UNK        -0.5000 
     45 C           4.1012  -14.9303  -45.3219 C.2       5 UNK         0.5000 
     46 O           3.3782  -15.9031  -45.1021 O.2       5 UNK        -0.5000 
     47 CA          4.7849  -14.2151  -44.1384 C.3       5 UNK         0.1400 
     48 CB          6.2004  -14.7682  -43.9160 C.3       5 UNK        -0.1800 
     49 N           4.8485  -12.7572  -44.3067 N.am      5 UNK        -0.5000 
     50 C           3.7678  -11.9679  -44.3747 C.2       4 UNK         0.5000 
     51 O           2.6141  -12.3842  -44.2489 O.2       4 UNK        -0.5000 
     52 CA          3.9971  -10.4760  -44.6583 C.3       4 UNK         0.1400 
     53 CB          4.5818  -10.2655  -46.0699 C.3       4 UNK        -0.1800 
     54 N           2.6975   -9.8254  -44.5452 N.am      4 UNK        -0.5000 
     55 C           2.4277   -8.5196  -44.5113 C.2       3 UNK         0.5000 
     56 O           3.2847   -7.6364  -44.5595 O.2       3 UNK        -0.5000 
     57 CA          0.9381   -8.1395  -44.4109 C.3       3 UNK         0.1400 
     58 CB          0.3481   -7.9221  -45.8131 C.3       3 UNK        -0.1800 
     59 N           0.1229   -9.1332  -43.7010 N.am      3 UNK        -0.5000 
     60 C           0.1283   -9.2965  -42.3703 C.2       2 UNK         0.5000 
     61 O           0.8825   -8.6851  -41.6124 O.2       2 UNK        -0.5000 
     62 CA         -0.9005  -10.2754  -41.7777 C.3       2 UNK         0.1400 
     63 CB         -2.2377   -9.5554  -41.5403 C.3       2 UNK        -0.1800 
     64 N          -1.1387  -11.4516  -42.6189 N.am      2 UNK        -0.5000 
     65 C          -0.4718  -12.6062  -42.4882 C.2       1 UNK         0.5000 
     66 O           0.4784  -12.7623  -41.7170 O.2       1 UNK        -0.5000 
     67 C          -3.1381  -22.0729  -44.8515 C.2       11 UNK         0.5000 
     68 O          -4.3580  -22.1558  -44.7089 O.2       11 UNK        -0.5000 
     69 N          -2.2677  -22.6742  -44.0278 N.am      12 UNK        -0.5000 
     70 CA         -2.6246  -23.6186  -42.9637 C.3       12 UNK         0.1400 
     71 CB         -1.3476  -24.0237  -42.2132 C.3       12 UNK        -0.1800 
     72 C          -3.3784  -24.8730  -43.4677 C.2       12 UNK         0.5000 
     73 O          -4.1426  -25.4636  -42.7043 O.2       12 UNK        -0.5000 
     74 N          -3.1800  -25.2303  -44.7443 N.am      13 UNK        -0.5000 
     75 CA         -3.9070  -26.2649  -45.4810 C.3       13 UNK         0.1400 
     76 CB         -2.8973  -27.3168  -45.9734 C.3       13 UNK        -0.1800 
     77 C          -4.7042  -25.6374  -46.6465 C.2       13 UNK         0.5000 
     78 O          -4.8925  -26.2793  -47.6825 O.2       13 UNK        -0.5000 
     79 N          -5.1171  -24.3689  -46.4816 N.am      14 UNK        -0.5000 
     80 CA         -5.8580  -23.5224  -47.4286 C.3       14 UNK         0.1400 
     81 CB         -7.2820  -24.0767  -47.6416 C.3       14 UNK        -0.1800 
     82 C          -5.1300  -23.2773  -48.7680 C.2       14 UNK         0.5000 
     83 O          -5.7745  -22.9076  -49.7501 O.2       14 UNK        -0.5000 
     84 N          -3.8131  -23.5314  -48.8057 N.am      15 UNK        -0.5000 
     85 CA         -2.9480  -23.5608  -49.9865 C.3       15 UNK         0.1400 
     86 CB         -2.6845  -22.1337  -50.5056 C.3       15 UNK        -0.1800 
     87 C          -3.4713  -24.5320  -51.0635 C.2       15 UNK         0.5000 
     88 O          -3.4509  -24.2051  -52.2508 O.2       15 UNK        -0.5000 
     89 N          -3.9739  -25.6944  -50.6156 N.am      16 UNK        -0.5000 
     90 CA         -4.6367  -26.7311  -51.4157 C.3       16 UNK         0.1400 
     91 CB         -3.6385  -27.3932  -52.3895 C.3       16 UNK        -0.1800 
     92 C          -5.9151  -26.2101  -52.1098 C.2       16 UNK         0.5000 
     93 O          -6.1824  -26.5609  -53.2590 O.2       16 UNK        -0.5000 
     94 N          -6.6636  -25.3620  -51.3874 N.am      17 UNK        -0.5000 
     95 CA         -7.8194  -24.5800  -51.8383 C.3       17 UNK         0.1400 
     96 CB         -8.9895  -25.4913  -52.2655 C.3       17 UNK        -0.1800 
     97 C          -7.4164  -23.5421  -52.9067 C.2       17 UNK         0.5000 
     98 O          -8.0329  -23.4722  -53.9716 O.2       17 UNK        -0.5000 
     99 N          -6.3738  -22.7619  -52.5816 N.am      18 UNK        -0.5000 
    100 CA        -5.7469  -21.7139  -53.3951 C.3       18 UNK         0.1400 
    101 CB        -6.6830  -20.4942  -53.5113 C.3       18 UNK        -0.1800 
    102 C         -5.2456  -22.2304  -54.7610 C.2       18 UNK         0.5000 
    103 O         -5.5477  -21.6400  -55.8009 O.2       18 UNK        -0.5000 
    104 N         -4.5042  -23.3435  -54.7266 N.am      19 UNK        -0.5000 
    105 CA        -3.9279  -24.0067  -55.8963 C.3       19 UNK         0.1400 
    106 CB        -4.5778  -25.3874  -56.0688 C.3       19 UNK        -0.1800 
    107 C         -2.4010  -24.1409  -55.7815 C.2       19 UNK         0.5000 
    108 O         -1.7168  -24.0712  -56.8033 O.2       19 UNK        -0.5000 
    109 N         -1.8824  -24.3173  -54.5573 N.am      20 UNK        -0.5000 
    110 CA        -0.4476  -24.3962  -54.2737 C.3       20 UNK         0.1400 
    111 CB        -0.2338  -25.0719  -52.9098 C.3       20 UNK        -0.1800 
    112 C          0.2214  -23.0104  -54.2948 C.2       20 UNK         0.5000 
    113 O          1.3936  -22.9046  -54.6575 O.2       20 UNK        -0.5000 
    114 N         -0.5406  -21.9781  -53.9188 N.am      21 UNK        -0.5000 
    115 CA        -0.1515  -20.5756  -53.9128 C.3       21 UNK         0.1400 
    116 CB         0.7232  -20.2727  -52.6817 C.3       21 UNK        -0.1800 
    117 C         -1.4377  -19.7391  -53.9030 C.2       21 UNK         0.5000 
    118 O         -2.4343  -20.1727  -53.3195 O.2       21 UNK        -0.5000 
    119 N         -1.3896  -18.5607  -54.5376 N.am      22 UNK        -0.5000 
    120 CA        -2.4928  -17.5807  -54.6310 C.3       22 UNK         0.1400 
    121 C         -3.7704  -18.0917  -55.3702 C.2       22 UNK         0.5000 
    122 N         -3.6850  -19.1403  -56.1786 N.am      22 UNK        -0.7600 
    123 O         -4.8472  -17.5163  -55.2379 O.2       22 UNK        -0.5000 
    124 C124       -2.8158  -16.9093  -53.2643 C.3       23 UNK        -0.0398 
    125 S125       -1.4139  -15.9217  -52.6357 S.3       23 UNK        -0.2404 
    126 C126       -0.7312  -17.0012  -51.3423 C.3       23 UNK        -0.0205 
    127 H127       -1.2186  -17.1104  -41.0936 H         1 UNK         0.0600 
    128 H128       -2.9664  -16.9907  -40.8771 H         1 UNK         0.0600 
    129 H129       -1.8773  -16.2490  -39.6997 H         1 UNK         0.0600 
    130 H130       -0.4300  -15.7069  -42.6288 H         1 UNK         0.3000 
    131 H131       -1.9514  -13.5537  -43.7387 H         1 UNK         0.0600 
    132 H132        0.0713  -13.1859  -45.1624 H         1 UNK         0.0800 
    133 H133        0.9833  -14.2898  -44.1613 H         1 UNK         0.0800 
    134 H134       -2.3329  -14.2198  -46.4970 H         1 UNK         0.0800 
    135 H135       -0.8308  -13.9362  -47.3558 H         1 UNK         0.0800 
    136 H136       -0.3942  -15.1563  -49.3817 H         1 UNK         0.1150 
    137 H137       -2.6974  -18.6309  -50.3738 H         1 UNK         0.1150 
    138 H138       -3.3585  -16.5931  -46.6543 H         1 UNK         0.1150 
    139 H139       -5.1702  -18.4391  -48.4586 H         1 UNK         0.0800 
    140 H140       -3.9930  -19.7165  -48.6520 H         1 UNK         0.0800 
    141 H141       -2.3347  -19.4842  -44.9707 H         1 UNK         0.0800 
    142 H142       -1.9302  -19.3425  -46.6526 H         1 UNK         0.0800 
    143 H143       -3.2104  -21.6333  -46.9277 H         1 UNK         0.0600 
    144 H144       -0.5023  -21.0972  -46.5226 H         1 UNK         0.3000 
    145 H145        0.7472  -24.3900  -47.1582 H         1 UNK         0.0600 
    146 H146        1.9481  -22.9534  -48.8584 H         1 UNK         0.0600 
    147 H147        0.3377  -23.4278  -49.3681 H         1 UNK         0.0600 
    148 H148        0.6209  -21.7956  -48.7875 H         1 UNK         0.0600 
    149 H149        1.6948  -21.6825  -46.4652 H         1 UNK         0.3000 
    150 H150        2.2769  -22.4795  -43.0677 H         1 UNK         0.0600 
    151 H151        4.3101  -23.5109  -44.0919 H         1 UNK         0.0600 
    152 H152        4.6391  -21.8786  -43.5338 H         1 UNK         0.0600 
    153 H153        4.4091  -22.1938  -45.2544 H         1 UNK         0.0600 
    154 H154        3.0215  -20.2316  -44.6735 H         1 UNK         0.3000 
    155 H155       -0.0603  -18.4941  -44.5753 H         1 UNK         0.0600 
    156 H156        0.9160  -18.0562  -42.3120 H         1 UNK         0.0600 
    157 H157        1.3108  -16.7674  -43.4393 H         1 UNK         0.0600 
    158 H158        2.5263  -17.9672  -43.0179 H         1 UNK         0.0600 
    159 H159        2.3863  -17.5669  -45.5233 H         1 UNK         0.3000 
    160 H160        3.3815  -18.8736  -47.8735 H         1 UNK         0.0600 
    161 H161        0.7937  -18.4581  -49.4480 H         1 UNK         0.0600 
    162 H162        1.8697  -19.8436  -49.5131 H         1 UNK         0.0600 
    163 H163        2.3981  -18.3031  -50.1673 H         1 UNK         0.0600 
    164 H164        1.7622  -16.4332  -47.5394 H         1 UNK         0.3000 
    165 H165        4.3066  -14.3074  -48.5959 H         1 UNK         0.0600 
    166 H166        2.3599  -13.0340  -47.8537 H         1 UNK         0.0600 
    167 H167        1.8001  -14.3762  -48.8354 H         1 UNK         0.0600 
    168 H168        1.6557  -14.4400  -47.0773 H         1 UNK         0.0600 
    169 H169        4.9636  -13.6212  -46.5811 H         1 UNK         0.3000 
    170 H170        4.1932  -14.4242  -43.2444 H         1 UNK         0.0600 
    171 H171        6.1776  -15.8490  -43.7695 H         1 UNK         0.0600 
    172 H172        6.8516  -14.5660  -44.7672 H         1 UNK         0.0600 
    173 H173        6.6599  -14.3311  -43.0292 H         1 UNK         0.0600 
    174 H174        5.7670  -12.3499  -44.4083 H         1 UNK         0.3000 
    175 H175        4.6717  -10.0710  -43.9020 H         1 UNK         0.0600 
    176 H176        3.9259  -10.6754  -46.8393 H         1 UNK         0.0600 
    177 H177        4.7311   -9.2083  -46.2885 H         1 UNK         0.0600 
    178 H178        5.5530  -10.7501  -46.1730 H         1 UNK         0.0600 
    179 H179        1.9381  -10.4893  -44.4453 H         1 UNK         0.3000 
    180 H180        0.8770   -7.1931  -43.8691 H         1 UNK         0.0600 
    181 H181        0.3632   -8.8392  -46.4033 H         1 UNK         0.0600 
    182 H182        0.9145   -7.1690  -46.3627 H         1 UNK         0.0600 
    183 H183       -0.6835   -7.5739  -45.7578 H         1 UNK         0.0600 
    184 H184       -0.5233   -9.6740  -44.2558 H         1 UNK         0.3000 
    185 H185       -0.5252  -10.5943  -40.8026 H         1 UNK         0.0600 
    186 H186       -2.1038   -8.6835  -40.8985 H         1 UNK         0.0600 
    187 H187       -2.6838   -9.2101  -42.4738 H         1 UNK         0.0600 
    188 H188       -2.9556  -10.2118  -41.0479 H         1 UNK         0.0600 
    189 H189       -1.9209  -11.4010  -43.2558 H         1 UNK         0.3000 
    190 H190       -1.2808  -22.5035  -44.1707 H         1 UNK         0.3000 
    191 H191       -3.2834  -23.0970  -42.2667 H         1 UNK         0.0600 
    192 H192       -0.6527  -24.5557  -42.8637 H         1 UNK         0.0600 
    193 H193       -0.8307  -23.1514  -41.8121 H         1 UNK         0.0600 
    194 H194       -1.5792  -24.6800  -41.3734 H         1 UNK         0.0600 
    195 H195       -2.5344  -24.6848  -45.3085 H         1 UNK         0.3000 
    196 H196       -4.6323  -26.7605  -44.8333 H         1 UNK         0.0600 
    197 H197       -2.3384  -27.7445  -45.1411 H         1 UNK         0.0600 
    198 H198       -2.1792  -26.8855  -46.6723 H         1 UNK         0.0600 
    199 H199       -3.4006  -28.1402  -46.4816 H         1 UNK         0.0600 
    200 H200       -4.8849  -23.9075  -45.6083 H         1 UNK         0.3000 
    201 H201       -5.9510  -22.5435  -46.9566 H         1 UNK         0.0600 
    202 H202       -7.8906  -23.3862  -48.2268 H         1 UNK         0.0600 
    203 H203       -7.7920  -24.2254  -46.6898 H         1 UNK         0.0600 
    204 H204       -7.2724  -25.0311  -48.1686 H         1 UNK         0.0600 
    205 H205       -3.3607  -23.8376  -47.9502 H         1 UNK         0.3000 
    206 H206       -1.9934  -23.9739  -49.6617 H         1 UNK         0.0600 
    207 H207       -2.2568  -21.5051  -49.7243 H         1 UNK         0.0600 
    208 H208       -3.5966  -21.6527  -50.8574 H         1 UNK         0.0600 
    209 H209       -1.9761  -22.1421  -51.3339 H         1 UNK         0.0600 
    210 H210       -3.9937  -25.8504  -49.6134 H         1 UNK         0.3000 
    211 H211       -4.9659  -27.4965  -50.7114 H         1 UNK         0.0600 
    212 H212       -2.7629  -27.7680  -51.8598 H         1 UNK         0.0600 
    213 H213       -4.0951  -28.2415  -52.9004 H         1 UNK         0.0600 
    214 H214       -3.2927  -26.6999  -53.1556 H         1 UNK         0.0600 
    215 H215       -6.3190  -25.1148  -50.4707 H         1 UNK         0.3000 
    216 H216       -8.1556  -24.0086  -50.9718 H         1 UNK         0.0600 
    217 H217       -9.8841  -24.9018  -52.4688 H         1 UNK         0.0600 
    218 H218       -8.7618  -26.0557  -53.1699 H         1 UNK         0.0600 
    219 H219       -9.2416  -26.2032  -51.4796 H         1 UNK         0.0600 
    220 H220       -5.9730  -22.8886  -51.6557 H         1 UNK         0.3000 
    221 H221       -4.8590  -21.3918  -52.8508 H         1 UNK         0.0600 
    222 H222       -7.5897  -20.7303  -54.0689 H         1 UNK         0.0600 
    223 H223       -6.9778  -20.1296  -52.5274 H         1 UNK         0.0600 
    224 H224       -6.1867  -19.6710  -54.0256 H         1 UNK         0.0600 
    225 H225       -4.2916  -23.7478  -53.8180 H         1 UNK         0.3000 
    226 H226       -4.1279  -23.4263  -56.7992 H         1 UNK         0.0600 
    227 H227       -5.6606  -25.3037  -56.1645 H         1 UNK         0.0600 
    228 H228       -4.2069  -25.8850  -56.9655 H         1 UNK         0.0600 
    229 H229       -4.3683  -26.0395  -55.2211 H         1 UNK         0.0600 
    230 H230       -2.5008  -24.3513  -53.7503 H         1 UNK         0.3000 
    231 H231        0.0279  -25.0146  -55.0379 H         1 UNK         0.0600 
    232 H232        0.8282  -25.2285  -52.7174 H         1 UNK         0.0600 
    233 H233       -0.7193  -26.0470  -52.8693 H         1 UNK         0.0600 
    234 H234       -0.6255  -24.4656  -52.0930 H         1 UNK         0.0600 
    235 H235       -1.5067  -22.1383  -53.6621 H         1 UNK         0.3000 
    236 H236        0.4080  -20.3581  -54.8250 H         1 UNK         0.0600 
    237 H237        1.6163  -20.8970  -52.6622 H         1 UNK         0.0600 
    238 H238        1.0601  -19.2359  -52.6881 H         1 UNK         0.0600 
    239 H239        0.1798  -20.4415  -51.7507 H         1 UNK         0.0600 
    240 H240       -0.5320  -18.2872  -54.9955 H         1 UNK         0.3000 
    241 H241       -2.1193  -16.7939  -55.2873 H         1 UNK         0.0600 
    242 H242       -4.5195  -19.4973  -56.6191 H         1 UNK         0.3800 
    243 H243       -2.8084  -19.6164  -56.3097 H         1 UNK         0.3800 
    244 H244       -3.6554  -16.2196  -53.3612 H         1 UNK         0.0800 
    245 H245       -3.1253  -17.6521  -52.5293 H         1 UNK         0.0800 
    246 H246        0.3142  -16.7327  -51.1834 H         1 UNK         0.0800 
    247 H247       -0.7304  -18.0348  -51.6820 H         1 UNK         0.0800 
@<TRIPOS>BOND
     1    1    2 1    
     2    1  127 1    
     3    1  128 1    
     4    1  129 1    
     5    2    3 2    
     6    2    4 am   BACKBONE|DICT|INTERRES
     7    4    5 1    
     8    4  130 1    
     9    5    6 1    
    10    5   65 1    
    11    5  131 1    
    12    6    7 1    
    13    6  132 1    
    14    6  133 1    
    15    7    8 1    
    16    8    9 1    
    17    8  134 1    
    18    8  135 1    
    19    9   10 ar   
    20    9   14 ar   
    21   10   11 ar   
    22   10  136 1    
    23   11   12 ar   
    24   11  126 1    
    25   12   13 ar   
    26   12  137 1    
    27   13   14 ar   
    28   13   15 1    
    29   14  138 1    
    30   15   16 1    
    31   15  139 1    
    32   15  140 1    
    33   16   17 1    
    34   17   18 1    
    35   17  141 1    
    36   17  142 1    
    37   18   19 1    
    38   18   67 1    
    39   18  143 1    
    40   19   20 am   BACKBONE|DICT|INTERRES
    41   19  144 1    
    42   20   21 2    
    43   20   22 1    
    44   22   23 1    
    45   22   24 1    
    46   22  145 1    
    47   23  146 1    
    48   23  147 1    
    49   23  148 1    
    50   24   25 am   BACKBONE|DICT|INTERRES
    51   24  149 1    
    52   25   26 2    
    53   25   27 1    
    54   27   28 1    
    55   27   29 1    
    56   27  150 1    
    57   28  151 1    
    58   28  152 1    
    59   28  153 1    
    60   29   30 am   BACKBONE|DICT|INTERRES
    61   29  154 1    
    62   30   31 2    
    63   30   32 1    
    64   32   33 1    
    65   32   34 1    
    66   32  155 1    
    67   33  156 1    
    68   33  157 1    
    69   33  158 1    
    70   34   35 am   BACKBONE|DICT|INTERRES
    71   34  159 1    
    72   35   36 2    
    73   35   37 1    
    74   37   38 1    
    75   37   39 1    
    76   37  160 1    
    77   38  161 1    
    78   38  162 1    
    79   38  163 1    
    80   39   40 am   BACKBONE|DICT|INTERRES
    81   39  164 1    
    82   40   41 2    
    83   40   42 1    
    84   42   43 1    
    85   42   44 1    
    86   42  165 1    
    87   43  166 1    
    88   43  167 1    
    89   43  168 1    
    90   44   45 am   BACKBONE|DICT|INTERRES
    91   44  169 1    
    92   45   46 2    
    93   45   47 1    
    94   47   48 1    
    95   47   49 1    
    96   47  170 1    
    97   48  171 1    
    98   48  172 1    
    99   48  173 1    
   100   49   50 am   BACKBONE|DICT|INTERRES
   101   49  174 1    
   102   50   51 2    
   103   50   52 1    
   104   52   53 1    
   105   52   54 1    
   106   52  175 1    
   107   53  176 1    
   108   53  177 1    
   109   53  178 1    
   110   54   55 am   BACKBONE|DICT|INTERRES
   111   54  179 1    
   112   55   56 2    
   113   55   57 1    
   114   57   58 1    
   115   57   59 1    
   116   57  180 1    
   117   58  181 1    
   118   58  182 1    
   119   58  183 1    
   120   59   60 am   BACKBONE|DICT|INTERRES
   121   59  184 1    
   122   60   61 2    
   123   60   62 1    
   124   62   63 1    
   125   62   64 1    
   126   62  185 1    
   127   63  186 1    
   128   63  187 1    
   129   63  188 1    
   130   64   65 am   BACKBONE|DICT|INTERRES
   131   64  189 1    
   132   65   66 2    
   133   67   68 2    
   134   67   69 am   BACKBONE|DICT|INTERRES
   135   69   70 1    
   136   69  190 1    
   137   70   71 1    
   138   70   72 1    
   139   70  191 1    
   140   71  192 1    
   141   71  193 1    
   142   71  194 1    
   143   72   73 2    
   144   72   74 am   BACKBONE|DICT|INTERRES
   145   74   75 1    
   146   74  195 1    
   147   75   76 1    
   148   75   77 1    
   149   75  196 1    
   150   76  197 1    
   151   76  198 1    
   152   76  199 1    
   153   77   78 2    
   154   77   79 am   BACKBONE|DICT|INTERRES
   155   79   80 1    
   156   79  200 1    
   157   80   81 1    
   158   80   82 1    
   159   80  201 1    
   160   81  202 1    
   161   81  203 1    
   162   81  204 1    
   163   82   83 2    
   164   82   84 am   BACKBONE|DICT|INTERRES
   165   84   85 1    
   166   84  205 1    
   167   85   86 1    
   168   85   87 1    
   169   85  206 1    
   170   86  207 1    
   171   86  208 1    
   172   86  209 1    
   173   87   88 2    
   174   87   89 am   BACKBONE|DICT|INTERRES
   175   89   90 1    
   176   89  210 1    
   177   90   91 1    
   178   90   92 1    
   179   90  211 1    
   180   91  212 1    
   181   91  213 1    
   182   91  214 1    
   183   92   93 2    
   184   92   94 am   BACKBONE|DICT|INTERRES
   185   94   95 1    
   186   94  215 1    
   187   95   96 1    
   188   95   97 1    
   189   95  216 1    
   190   96  217 1    
   191   96  218 1    
   192   96  219 1    
   193   97   98 2    
   194   97   99 am   BACKBONE|DICT|INTERRES
   195   99  100 1    
   196   99  220 1    
   197  100  101 1    
   198  100  102 1    
   199  100  221 1    
   200  101  222 1    
   201  101  223 1    
   202  101  224 1    
   203  102  103 2    
   204  102  104 am   BACKBONE|DICT|INTERRES
   205  104  105 1    
   206  104  225 1    
   207  105  106 1    
   208  105  107 1    
   209  105  226 1    
   210  106  227 1    
   211  106  228 1    
   212  106  229 1    
   213  107  108 2    
   214  107  109 am   BACKBONE|DICT|INTERRES
   215  109  110 1    
   216  109  230 1    
   217  110  111 1    
   218  110  112 1    
   219  110  231 1    
   220  111  232 1    
   221  111  233 1    
   222  111  234 1    
   223  112  113 2    
   224  112  114 am   BACKBONE|DICT|INTERRES
   225  114  115 1    
   226  114  235 1    
   227  115  116 1    
   228  115  117 1    
   229  115  236 1    
   230  116  237 1    
   231  116  238 1    
   232  116  239 1    
   233  117  118 2    
   234  117  119 am   BACKBONE|DICT|INTERRES
   235  119  120 1    
   236  119  240 1    
   237  120  121 1    
   238  120  124 1    
   239  120  241 1    
   240  121  122 am   BACKBONE|DICT|INTERRES
   241  121  123 2    
   242  122  242 1    
   243  122  243 1    
   244  124  125 1    
   245  124  244 1    
   246  124  245 1    
   247  125  126 1    
   248  126  246 1    
   249  126  247 1    
@<TRIPOS>SUBSTRUCTURE
     1 UNK         1 GROUP             0       ****    0 ROOT    
