@<TRIPOS>MOLECULE
3R540
247   249    1
SMALL
USER_CHARGES


@<TRIPOS>ATOM
      1 CA         -4.8668  -13.2328  -42.6025 C.3       0 UNK        -0.1800 
      2 C          -3.6043  -12.7823  -43.3226 C.2       0 UNK         0.5000 
      3 O          -2.9413  -11.8452  -42.8763 O.2       0 UNK        -0.5000 
      4 N          -3.2584  -13.4536  -44.4273 N.am      1 UNK        -0.5000 
      5 CA         -2.0857  -13.1810  -45.2670 C.3       1 UNK         0.1400 
      6 C6         -2.3197  -13.6357  -46.7298 C.3       23 UNK        -0.0398 
      7 S7         -3.5125  -12.5691  -47.6106 S.3       23 UNK        -0.2404 
      8 C8         -5.0829  -13.4847  -47.4679 C.3       23 UNK        -0.0205 
      9 C9         -5.0327  -14.8510  -48.1367 C.ar      23 UNK        -0.0193 
     10 C10        -4.9159  -14.9569  -49.5255 C.ar      23 UNK        -0.1150 
     11 C11        -4.8499  -16.2112  -50.1406 C.ar      23 UNK        -0.0193 
     12 C12        -4.9175  -17.3672  -49.3564 C.ar      23 UNK        -0.1150 
     13 C13        -5.0578  -17.2721  -47.9689 C.ar      23 UNK        -0.0193 
     14 C14        -5.1134  -16.0130  -47.3654 C.ar      23 UNK        -0.1150 
     15 C15        -5.1493  -18.5220  -47.1111 C.3       23 UNK        -0.0205 
     16 S16        -3.5458  -18.8834  -46.3422 S.3       23 UNK        -0.2404 
     17 C17        -3.9920  -20.1942  -45.1585 C.3       23 UNK        -0.0398 
     18 CA         -3.5851  -21.5984  -45.6550 C.3       11 UNK         0.1400 
     19 N          -2.1364  -21.7410  -45.8818 N.am      11 UNK        -0.5000 
     20 C          -1.5264  -22.8283  -46.3814 C.2       10 UNK         0.5000 
     21 O          -2.1337  -23.8421  -46.7284 O.2       10 UNK        -0.5000 
     22 CA          0.0036  -22.7966  -46.5141 C.3       10 UNK         0.1400 
     23 CB          0.4085  -22.3276  -47.9201 C.3       10 UNK        -0.1800 
     24 N           0.6136  -21.9272  -45.5102 N.am      10 UNK        -0.5000 
     25 C           0.9470  -22.3128  -44.2708 C.2       9 UNK         0.5000 
     26 O           0.8249  -23.4670  -43.8601 O.2       9 UNK        -0.5000 
     27 CA          1.4931  -21.2267  -43.3211 C.3       9 UNK         0.1400 
     28 CB          3.0215  -21.1280  -43.4393 C.3       9 UNK        -0.1800 
     29 N           0.9120  -19.9042  -43.5572 N.am      9 UNK        -0.5000 
     30 C          -0.3719  -19.5856  -43.3430 C.2       8 UNK         0.5000 
     31 O          -1.1976  -20.3653  -42.8667 O.2       8 UNK        -0.5000 
     32 CA         -0.8228  -18.1739  -43.7723 C.3       8 UNK         0.1400 
     33 CB         -0.6929  -17.1924  -42.5989 C.3       8 UNK        -0.1800 
     34 N          -0.1305  -17.6171  -44.9414 N.am      8 UNK        -0.5000 
     35 C           0.0569  -18.2163  -46.1286 C.2       7 UNK         0.5000 
     36 O          -0.2749  -19.3750  -46.3722 O.2       7 UNK        -0.5000 
     37 CA          0.7618  -17.3980  -47.2225 C.3       7 UNK         0.1400 
     38 CB         -0.2708  -16.7525  -48.1581 C.3       7 UNK        -0.1800 
     39 N           1.6280  -16.3614  -46.6628 N.am      7 UNK        -0.5000 
     40 C           2.8316  -16.5838  -46.1204 C.2       6 UNK         0.5000 
     41 O           3.3461  -17.7022  -46.0648 O.2       6 UNK        -0.5000 
     42 CA          3.5695  -15.3687  -45.5120 C.3       6 UNK         0.1400 
     43 CB          5.1020  -15.5086  -45.6172 C.3       6 UNK        -0.1800 
     44 N           3.1450  -14.0604  -46.0283 N.am      6 UNK        -0.5000 
     45 C           3.1930  -13.6250  -47.2967 C.2       5 UNK         0.5000 
     46 O           3.5343  -14.3122  -48.2594 O.2       5 UNK        -0.5000 
     47 CA          2.8316  -12.1457  -47.5091 C.3       5 UNK         0.1400 
     48 CB          1.3092  -11.9353  -47.4903 C.3       5 UNK        -0.1800 
     49 N           3.4707  -11.2980  -46.4992 N.am      5 UNK        -0.5000 
     50 C           4.7675  -10.9537  -46.5348 C.2       4 UNK         0.5000 
     51 O           5.5249  -11.2566  -47.4578 O.2       4 UNK        -0.5000 
     52 CA          5.3253  -10.1277  -45.3594 C.3       4 UNK         0.1400 
     53 CB          5.3356   -8.6324  -45.7133 C.3       4 UNK        -0.1800 
     54 N           4.5938  -10.3109  -44.1065 N.am      4 UNK        -0.5000 
     55 C           4.6372  -11.4095  -43.3413 C.2       3 UNK         0.5000 
     56 O           5.3058  -12.4069  -43.6144 O.2       3 UNK        -0.5000 
     57 CA          3.7862  -11.4058  -42.0519 C.3       3 UNK         0.1400 
     58 CB          3.1551  -10.0347  -41.7176 C.3       3 UNK        -0.1800 
     59 N           2.7448  -12.4393  -42.0556 N.am      3 UNK        -0.5000 
     60 C           1.8102  -12.6390  -42.9958 C.2       2 UNK         0.5000 
     61 O           1.7828  -12.0257  -44.0663 O.2       2 UNK        -0.5000 
     62 CA          0.7334  -13.7042  -42.6958 C.3       2 UNK         0.1400 
     63 CB          0.4020  -13.8260  -41.1958 C.3       2 UNK        -0.1800 
     64 N          -0.4980  -13.3856  -43.4140 N.am      2 UNK        -0.5000 
     65 C          -0.8110  -13.7967  -44.6463 C.2       1 UNK         0.5000 
     66 O          -0.1452  -14.6244  -45.2702 O.2       1 UNK        -0.5000 
     67 C          -4.1584  -22.6805  -44.7165 C.2       11 UNK         0.5000 
     68 O          -5.2975  -23.1047  -44.9120 O.2       11 UNK        -0.5000 
     69 N          -3.3369  -23.1632  -43.7733 N.am      12 UNK        -0.5000 
     70 CA         -3.6234  -24.3025  -42.8964 C.3       12 UNK         0.1400 
     71 CB         -2.4764  -24.4391  -41.8836 C.3       12 UNK        -0.1800 
     72 C          -3.8414  -25.6366  -43.6463 C.2       12 UNK         0.5000 
     73 O          -4.4862  -26.5340  -43.1034 O.2       12 UNK        -0.5000 
     74 N          -3.3238  -25.7339  -44.8778 N.am      13 UNK        -0.5000 
     75 CA         -3.4815  -26.8573  -45.7987 C.3       13 UNK         0.1400 
     76 CB         -2.0817  -27.3600  -46.1972 C.3       13 UNK        -0.1800 
     77 C          -4.3191  -26.4456  -47.0279 C.2       13 UNK         0.5000 
     78 O          -4.1154  -26.9934  -48.1118 O.2       13 UNK        -0.5000 
     79 N          -5.2283  -25.4718  -46.8553 N.am      14 UNK        -0.5000 
     80 CA         -6.1253  -24.9090  -47.8742 C.3       14 UNK         0.1400 
     81 CB         -7.1497  -25.9625  -48.3461 C.3       14 UNK        -0.1800 
     82 C          -5.3558  -24.2530  -49.0393 C.2       14 UNK         0.5000 
     83 O          -5.6469  -24.5134  -50.2074 O.2       14 UNK        -0.5000 
     84 N          -4.3474  -23.4454  -48.6823 N.am      15 UNK        -0.5000 
     85 CA         -3.3739  -22.7951  -49.5670 C.3       15 UNK         0.1400 
     86 CB         -4.0451  -21.7422  -50.4711 C.3       15 UNK        -0.1800 
     87 C          -2.5393  -23.8362  -50.3356 C.2       15 UNK         0.5000 
     88 O          -2.3484  -23.7055  -51.5445 O.2       15 UNK        -0.5000 
     89 N          -2.0936  -24.8717  -49.6071 N.am      16 UNK        -0.5000 
     90 CA         -1.3970  -26.0671  -50.0953 C.3       16 UNK         0.1400 
     91 CB          0.0329  -25.7071  -50.5488 C.3       16 UNK        -0.1800 
     92 C          -2.2083  -26.7997  -51.1848 C.2       16 UNK         0.5000 
     93 O          -1.6950  -27.0517  -52.2743 O.2       16 UNK        -0.5000 
     94 N          -3.4885  -27.0661  -50.8872 N.am      17 UNK        -0.5000 
     95 CA         -4.5150  -27.5873  -51.7991 C.3       17 UNK         0.1400 
     96 CB         -4.2406  -29.0672  -52.1362 C.3       17 UNK        -0.1800 
     97 C          -4.6885  -26.6987  -53.0524 C.2       17 UNK         0.5000 
     98 O          -4.7257  -27.2000  -54.1775 O.2       17 UNK        -0.5000 
     99 N          -4.7513  -25.3817  -52.8141 N.am      18 UNK        -0.5000 
    100 CA        -4.8341  -24.2785  -53.7755 C.3       18 UNK         0.1400 
    101 CB        -6.1425  -24.3559  -54.5885 C.3       18 UNK        -0.1800 
    102 C         -3.5935  -24.0893  -54.6783 C.2       18 UNK         0.5000 
    103 O         -3.6569  -23.2834  -55.6072 O.2       18 UNK        -0.5000 
    104 N         -2.4817  -24.7874  -54.4036 N.am      19 UNK        -0.5000 
    105 CA        -1.2370  -24.6694  -55.1672 C.3       19 UNK         0.1400 
    106 CB        -0.3714  -25.9184  -54.9477 C.3       19 UNK        -0.1800 
    107 C         -0.4345  -23.4003  -54.8247 C.2       19 UNK         0.5000 
    108 O          0.2715  -22.8873  -55.6940 O.2       19 UNK        -0.5000 
    109 N         -0.5423  -22.9167  -53.5788 N.am      20 UNK        -0.5000 
    110 CA         0.1502  -21.7159  -53.1029 C.3       20 UNK         0.1400 
    111 CB         0.4131  -21.8377  -51.5928 C.3       20 UNK        -0.1800 
    112 C         -0.6317  -20.4250  -53.4049 C.2       20 UNK         0.5000 
    113 O         -0.0472  -19.3434  -53.3403 O.2       20 UNK        -0.5000 
    114 N         -1.9303  -20.5487  -53.7122 N.am      21 UNK        -0.5000 
    115 CA        -2.8100  -19.4377  -54.0639 C.3       21 UNK         0.1400 
    116 CB        -4.2708  -19.9141  -54.0005 C.3       21 UNK        -0.1800 
    117 C         -2.4676  -18.8958  -55.4721 C.2       21 UNK         0.5000 
    118 O         -2.5209  -19.6705  -56.4274 O.2       21 UNK        -0.5000 
    119 N         -2.1320  -17.6121  -55.6474 N.am      22 UNK        -0.5000 
    120 CA        -1.8937  -16.5790  -54.6321 C.3       22 UNK         0.1400 
    121 C         -0.9866  -15.4490  -55.1938 C.2       22 UNK         0.5000 
    122 N         -0.5692  -14.5082  -54.3585 N.am      22 UNK        -0.7600 
    123 O         -0.6606  -15.4095  -56.3793 O.2       22 UNK        -0.5000 
    124 C124       -3.2112  -16.0333  -54.0074 C.3       23 UNK        -0.0398 
    125 S125       -3.0580  -15.8090  -52.2039 S.3       23 UNK        -0.2404 
    126 C126       -4.7159  -16.3123  -51.6517 C.3       23 UNK        -0.0205 
    127 H127       -5.5793  -12.4100  -42.5451 H         1 UNK         0.0600 
    128 H128       -4.6267  -13.5491  -41.5874 H         1 UNK         0.0600 
    129 H129       -5.3502  -14.0659  -43.1135 H         1 UNK         0.0600 
    130 H130       -3.8222  -14.2387  -44.7164 H         1 UNK         0.3000 
    131 H131       -1.9134  -12.1025  -45.2869 H         1 UNK         0.0600 
    132 H132       -2.6351  -14.6785  -46.7670 H         1 UNK         0.0800 
    133 H133       -1.3914  -13.5826  -47.3009 H         1 UNK         0.0800 
    134 H134       -5.3537  -13.5734  -46.4152 H         1 UNK         0.0800 
    135 H135       -5.8735  -12.8945  -47.9331 H         1 UNK         0.0800 
    136 H136       -4.8582  -14.0608  -50.1277 H         1 UNK         0.1150 
    137 H137       -4.8651  -18.3401  -49.8247 H         1 UNK         0.1150 
    138 H138       -5.2127  -15.9429  -46.2915 H         1 UNK         0.1150 
    139 H139       -5.9068  -18.3753  -46.3398 H         1 UNK         0.0800 
    140 H140       -5.4690  -19.3786  -47.7065 H         1 UNK         0.0800 
    141 H141       -5.0666  -20.1477  -44.9715 H         1 UNK         0.0800 
    142 H142       -3.5159  -19.9753  -44.2025 H         1 UNK         0.0800 
    143 H143       -4.0680  -21.7413  -46.6215 H         1 UNK         0.0600 
    144 H144       -1.5723  -20.9173  -45.7066 H         1 UNK         0.3000 
    145 H145        0.3704  -23.8168  -46.3824 H         1 UNK         0.0600 
    146 H146        0.0235  -21.3330  -48.1469 H         1 UNK         0.0600 
    147 H147        1.4926  -22.2998  -48.0297 H         1 UNK         0.0600 
    148 H148        0.0251  -23.0069  -48.6814 H         1 UNK         0.0600 
    149 H149        0.6631  -20.9420  -45.7506 H         1 UNK         0.3000 
    150 H150        1.2474  -21.5269  -42.3003 H         1 UNK         0.0600 
    151 H151        3.4914  -22.0948  -43.2535 H         1 UNK         0.0600 
    152 H152        3.4288  -20.4248  -42.7126 H         1 UNK         0.0600 
    153 H153        3.3277  -20.7988  -44.4333 H         1 UNK         0.0600 
    154 H154        1.5157  -19.2084  -43.9707 H         1 UNK         0.3000 
    155 H155       -1.8793  -18.2387  -44.0302 H         1 UNK         0.0600 
    156 H156       -1.1892  -17.5774  -41.7070 H         1 UNK         0.0600 
    157 H157       -1.1577  -16.2357  -42.8350 H         1 UNK         0.0600 
    158 H158        0.3507  -17.0090  -42.3413 H         1 UNK         0.0600 
    159 H159        0.1287  -16.6390  -44.8830 H         1 UNK         0.3000 
    160 H160        1.3721  -18.0854  -47.8120 H         1 UNK         0.0600 
    161 H161        0.2140  -16.1969  -48.9609 H         1 UNK         0.0600 
    162 H162       -0.9236  -16.0666  -47.6203 H         1 UNK         0.0600 
    163 H163       -0.9058  -17.5094  -48.6210 H         1 UNK         0.0600 
    164 H164        1.2252  -15.4358  -46.5735 H         1 UNK         0.3000 
    165 H165        3.3136  -15.3671  -44.4519 H         1 UNK         0.0600 
    166 H166        5.4296  -15.5831  -46.6546 H         1 UNK         0.0600 
    167 H167        5.6083  -14.6545  -45.1679 H         1 UNK         0.0600 
    168 H168        5.4539  -16.4004  -45.0974 H         1 UNK         0.0600 
    169 H169        2.8220  -13.3977  -45.3335 H         1 UNK         0.3000 
    170 H170        3.1929  -11.8507  -48.4968 H         1 UNK         0.0600 
    171 H171        0.8733  -12.1949  -46.5269 H         1 UNK         0.0600 
    172 H172        1.0532  -10.8974  -47.7028 H         1 UNK         0.0600 
    173 H173        0.8221  -12.5521  -48.2465 H         1 UNK         0.0600 
    174 H174        2.9210  -11.0675  -45.6801 H         1 UNK         0.3000 
    175 H175        6.3580  -10.4450  -45.1990 H         1 UNK         0.0600 
    176 H176        4.3265   -8.2487  -45.8691 H         1 UNK         0.0600 
    177 H177        5.8019   -8.0427  -44.9238 H         1 UNK         0.0600 
    178 H178        5.9006   -8.4510  -46.6287 H         1 UNK         0.0600 
    179 H179        4.0019   -9.5471  -43.8141 H         1 UNK         0.3000 
    180 H180        4.4706  -11.6579  -41.2406 H         1 UNK         0.0600 
    181 H181        2.4274   -9.7220  -42.4675 H         1 UNK         0.0600 
    182 H182        3.9151   -9.2562  -41.6387 H         1 UNK         0.0600 
    183 H183        2.6389  -10.0707  -40.7582 H         1 UNK         0.0600 
    184 H184        2.7157  -13.0205  -41.2301 H         1 UNK         0.3000 
    185 H185        1.1217  -14.6647  -43.0390 H         1 UNK         0.0600 
    186 H186       -0.4250  -14.5171  -41.0320 H         1 UNK         0.0600 
    187 H187        1.2493  -14.2099  -40.6270 H         1 UNK         0.0600 
    188 H188        0.1171  -12.8643  -40.7667 H         1 UNK         0.0600 
    189 H189       -1.1071  -12.6950  -42.9879 H         1 UNK         0.3000 
    190 H190       -2.4210  -22.7452  -43.6819 H         1 UNK         0.3000 
    191 H191       -4.5424  -24.0805  -42.3503 H         1 UNK         0.0600 
    192 H192       -1.5253  -24.6383  -42.3796 H         1 UNK         0.0600 
    193 H193       -2.3617  -23.5306  -41.2918 H         1 UNK         0.0600 
    194 H194       -2.6628  -25.2582  -41.1878 H         1 UNK         0.0600 
    195 H195       -2.8298  -24.9363  -45.2647 H         1 UNK         0.3000 
    196 H196       -4.0142  -27.6786  -45.3161 H         1 UNK         0.0600 
    197 H197       -1.5084  -27.6585  -45.3195 H         1 UNK         0.0600 
    198 H198       -1.5126  -26.5908  -46.7204 H         1 UNK         0.0600 
    199 H199       -2.1439  -28.2299  -46.8521 H         1 UNK         0.0600 
    200 H200       -5.2982  -25.0456  -45.9389 H         1 UNK         0.3000 
    201 H201       -6.6804  -24.1067  -47.3860 H         1 UNK         0.0600 
    202 H202       -7.8886  -25.5157  -49.0124 H         1 UNK         0.0600 
    203 H203       -7.6911  -26.3906  -47.5027 H         1 UNK         0.0600 
    204 H204       -6.6748  -26.7798  -48.8894 H         1 UNK         0.0600 
    205 H205       -4.1281  -23.3969  -47.6976 H         1 UNK         0.3000 
    206 H206       -2.6725  -22.2558  -48.9317 H         1 UNK         0.0600 
    207 H207       -4.5755  -20.9982  -49.8770 H         1 UNK         0.0600 
    208 H208       -4.7597  -22.1883  -51.1612 H         1 UNK         0.0600 
    209 H209       -3.3010  -21.2104  -51.0650 H         1 UNK         0.0600 
    210 H210       -2.3073  -24.8649  -48.6170 H         1 UNK         0.3000 
    211 H211       -1.3180  -26.7538  -49.2517 H         1 UNK         0.0600 
    212 H212        0.5864  -25.2094  -49.7530 H         1 UNK         0.0600 
    213 H213        0.5917  -26.6030  -50.8213 H         1 UNK         0.0600 
    214 H214        0.0291  -25.0497  -51.4183 H         1 UNK         0.0600 
    215 H215       -3.8057  -26.8609  -49.9416 H         1 UNK         0.3000 
    216 H216       -5.4599  -27.5399  -51.2558 H         1 UNK         0.0600 
    217 H217       -5.0567  -29.4916  -52.7221 H         1 UNK         0.0600 
    218 H218       -3.3246  -29.1888  -52.7150 H         1 UNK         0.0600 
    219 H219       -4.1467  -29.6657  -51.2300 H         1 UNK         0.0600 
    220 H220       -4.7581  -25.0888  -51.8406 H         1 UNK         0.3000 
    221 H221       -4.8869  -23.3740  -53.1700 H         1 UNK         0.0600 
    222 H222       -6.1416  -25.1994  -55.2792 H         1 UNK         0.0600 
    223 H223       -7.0078  -24.4576  -53.9335 H         1 UNK         0.0600 
    224 H224       -6.2913  -23.4516  -55.1798 H         1 UNK         0.0600 
    225 H225       -2.4748  -25.4152  -53.6085 H         1 UNK         0.3000 
    226 H226       -1.4897  -24.6261  -56.2289 H         1 UNK         0.0600 
    227 H227       -0.9336  -26.8319  -55.1429 H         1 UNK         0.0600 
    228 H228        0.4899  -25.9154  -55.6168 H         1 UNK         0.0600 
    229 H229        0.0116  -25.9683  -53.9281 H         1 UNK         0.0600 
    230 H230       -1.1714  -23.3698  -52.9179 H         1 UNK         0.3000 
    231 H231        1.1184  -21.6394  -53.6021 H         1 UNK         0.0600 
    232 H232        1.0356  -21.0143  -51.2406 H         1 UNK         0.0600 
    233 H233        0.9354  -22.7631  -51.3516 H         1 UNK         0.0600 
    234 H234       -0.5115  -21.8088  -51.0175 H         1 UNK         0.0600 
    235 H235       -2.3120  -21.4785  -53.8005 H         1 UNK         0.3000 
    236 H236       -2.6902  -18.6721  -53.2995 H         1 UNK         0.0600 
    237 H237       -4.4594  -20.7348  -54.6937 H         1 UNK         0.0600 
    238 H238       -4.5347  -20.2539  -52.9997 H         1 UNK         0.0600 
    239 H239       -4.9557  -19.1054  -54.2575 H         1 UNK         0.0600 
    240 H240       -1.8912  -17.2985  -56.5785 H         1 UNK         0.3000 
    241 H241       -1.2817  -17.0480  -53.8608 H         1 UNK         0.0600 
    242 H242       -0.8367  -14.5167  -53.3857 H         1 UNK         0.3800 
    243 H243        0.0185  -13.7663  -54.7062 H         1 UNK         0.3800 
    244 H244       -3.5153  -15.0876  -54.4600 H         1 UNK         0.0800 
    245 H245       -4.0400  -16.7151  -54.1991 H         1 UNK         0.0800 
    246 H246       -4.9153  -17.3320  -51.9855 H         1 UNK         0.0800 
    247 H247       -5.4655  -15.6762  -52.1249 H         1 UNK         0.0800 
@<TRIPOS>BOND
     1    1    2 1    
     2    1  127 1    
     3    1  128 1    
     4    1  129 1    
     5    2    3 2    
     6    2    4 am   BACKBONE|DICT|INTERRES
     7    4    5 1    
     8    4  130 1    
     9    5    6 1    
    10    5   65 1    
    11    5  131 1    
    12    6    7 1    
    13    6  132 1    
    14    6  133 1    
    15    7    8 1    
    16    8    9 1    
    17    8  134 1    
    18    8  135 1    
    19    9   10 ar   
    20    9   14 ar   
    21   10   11 ar   
    22   10  136 1    
    23   11   12 ar   
    24   11  126 1    
    25   12   13 ar   
    26   12  137 1    
    27   13   14 ar   
    28   13   15 1    
    29   14  138 1    
    30   15   16 1    
    31   15  139 1    
    32   15  140 1    
    33   16   17 1    
    34   17   18 1    
    35   17  141 1    
    36   17  142 1    
    37   18   19 1    
    38   18   67 1    
    39   18  143 1    
    40   19   20 am   BACKBONE|DICT|INTERRES
    41   19  144 1    
    42   20   21 2    
    43   20   22 1    
    44   22   23 1    
    45   22   24 1    
    46   22  145 1    
    47   23  146 1    
    48   23  147 1    
    49   23  148 1    
    50   24   25 am   BACKBONE|DICT|INTERRES
    51   24  149 1    
    52   25   26 2    
    53   25   27 1    
    54   27   28 1    
    55   27   29 1    
    56   27  150 1    
    57   28  151 1    
    58   28  152 1    
    59   28  153 1    
    60   29   30 am   BACKBONE|DICT|INTERRES
    61   29  154 1    
    62   30   31 2    
    63   30   32 1    
    64   32   33 1    
    65   32   34 1    
    66   32  155 1    
    67   33  156 1    
    68   33  157 1    
    69   33  158 1    
    70   34   35 am   BACKBONE|DICT|INTERRES
    71   34  159 1    
    72   35   36 2    
    73   35   37 1    
    74   37   38 1    
    75   37   39 1    
    76   37  160 1    
    77   38  161 1    
    78   38  162 1    
    79   38  163 1    
    80   39   40 am   BACKBONE|DICT|INTERRES
    81   39  164 1    
    82   40   41 2    
    83   40   42 1    
    84   42   43 1    
    85   42   44 1    
    86   42  165 1    
    87   43  166 1    
    88   43  167 1    
    89   43  168 1    
    90   44   45 am   BACKBONE|DICT|INTERRES
    91   44  169 1    
    92   45   46 2    
    93   45   47 1    
    94   47   48 1    
    95   47   49 1    
    96   47  170 1    
    97   48  171 1    
    98   48  172 1    
    99   48  173 1    
   100   49   50 am   BACKBONE|DICT|INTERRES
   101   49  174 1    
   102   50   51 2    
   103   50   52 1    
   104   52   53 1    
   105   52   54 1    
   106   52  175 1    
   107   53  176 1    
   108   53  177 1    
   109   53  178 1    
   110   54   55 am   BACKBONE|DICT|INTERRES
   111   54  179 1    
   112   55   56 2    
   113   55   57 1    
   114   57   58 1    
   115   57   59 1    
   116   57  180 1    
   117   58  181 1    
   118   58  182 1    
   119   58  183 1    
   120   59   60 am   BACKBONE|DICT|INTERRES
   121   59  184 1    
   122   60   61 2    
   123   60   62 1    
   124   62   63 1    
   125   62   64 1    
   126   62  185 1    
   127   63  186 1    
   128   63  187 1    
   129   63  188 1    
   130   64   65 am   BACKBONE|DICT|INTERRES
   131   64  189 1    
   132   65   66 2    
   133   67   68 2    
   134   67   69 am   BACKBONE|DICT|INTERRES
   135   69   70 1    
   136   69  190 1    
   137   70   71 1    
   138   70   72 1    
   139   70  191 1    
   140   71  192 1    
   141   71  193 1    
   142   71  194 1    
   143   72   73 2    
   144   72   74 am   BACKBONE|DICT|INTERRES
   145   74   75 1    
   146   74  195 1    
   147   75   76 1    
   148   75   77 1    
   149   75  196 1    
   150   76  197 1    
   151   76  198 1    
   152   76  199 1    
   153   77   78 2    
   154   77   79 am   BACKBONE|DICT|INTERRES
   155   79   80 1    
   156   79  200 1    
   157   80   81 1    
   158   80   82 1    
   159   80  201 1    
   160   81  202 1    
   161   81  203 1    
   162   81  204 1    
   163   82   83 2    
   164   82   84 am   BACKBONE|DICT|INTERRES
   165   84   85 1    
   166   84  205 1    
   167   85   86 1    
   168   85   87 1    
   169   85  206 1    
   170   86  207 1    
   171   86  208 1    
   172   86  209 1    
   173   87   88 2    
   174   87   89 am   BACKBONE|DICT|INTERRES
   175   89   90 1    
   176   89  210 1    
   177   90   91 1    
   178   90   92 1    
   179   90  211 1    
   180   91  212 1    
   181   91  213 1    
   182   91  214 1    
   183   92   93 2    
   184   92   94 am   BACKBONE|DICT|INTERRES
   185   94   95 1    
   186   94  215 1    
   187   95   96 1    
   188   95   97 1    
   189   95  216 1    
   190   96  217 1    
   191   96  218 1    
   192   96  219 1    
   193   97   98 2    
   194   97   99 am   BACKBONE|DICT|INTERRES
   195   99  100 1    
   196   99  220 1    
   197  100  101 1    
   198  100  102 1    
   199  100  221 1    
   200  101  222 1    
   201  101  223 1    
   202  101  224 1    
   203  102  103 2    
   204  102  104 am   BACKBONE|DICT|INTERRES
   205  104  105 1    
   206  104  225 1    
   207  105  106 1    
   208  105  107 1    
   209  105  226 1    
   210  106  227 1    
   211  106  228 1    
   212  106  229 1    
   213  107  108 2    
   214  107  109 am   BACKBONE|DICT|INTERRES
   215  109  110 1    
   216  109  230 1    
   217  110  111 1    
   218  110  112 1    
   219  110  231 1    
   220  111  232 1    
   221  111  233 1    
   222  111  234 1    
   223  112  113 2    
   224  112  114 am   BACKBONE|DICT|INTERRES
   225  114  115 1    
   226  114  235 1    
   227  115  116 1    
   228  115  117 1    
   229  115  236 1    
   230  116  237 1    
   231  116  238 1    
   232  116  239 1    
   233  117  118 2    
   234  117  119 am   BACKBONE|DICT|INTERRES
   235  119  120 1    
   236  119  240 1    
   237  120  121 1    
   238  120  124 1    
   239  120  241 1    
   240  121  122 am   BACKBONE|DICT|INTERRES
   241  121  123 2    
   242  122  242 1    
   243  122  243 1    
   244  124  125 1    
   245  124  244 1    
   246  124  245 1    
   247  125  126 1    
   248  126  246 1    
   249  126  247 1    
@<TRIPOS>SUBSTRUCTURE
     1 UNK         1 GROUP             0       ****    0 ROOT    
