@<TRIPOS>MOLECULE
3R540
247   249    1
SMALL
USER_CHARGES


@<TRIPOS>ATOM
      1 CA         -2.8230  -12.5258  -44.3451 C.3       0 UNK        -0.1800 
      2 C          -1.4953  -12.1966  -45.0115 C.2       0 UNK         0.5000 
      3 O          -0.4596  -12.2304  -44.3478 O.2       0 UNK        -0.5000 
      4 N          -1.5326  -11.8690  -46.3131 N.am      1 UNK        -0.5000 
      5 CA         -0.4079  -11.5843  -47.2266 C.3       1 UNK         0.1400 
      6 C6          0.2877  -12.8665  -47.7754 C.3       23 UNK        -0.0398 
      7 S7          1.3267  -13.8066  -46.5950 S.3       23 UNK        -0.2404 
      8 C8          0.2210  -15.1735  -46.1173 C.3       23 UNK        -0.0205 
      9 C9          0.0617  -16.2134  -47.2143 C.ar      23 UNK        -0.0193 
     10 C10        -1.0808  -16.2330  -48.0201 C.ar      23 UNK        -0.1150 
     11 C11        -1.2210  -17.1909  -49.0290 C.ar      23 UNK        -0.0193 
     12 C12        -0.2100  -18.1363  -49.2243 C.ar      23 UNK        -0.1150 
     13 C13         0.9257  -18.1413  -48.4081 C.ar      23 UNK        -0.0193 
     14 C14         1.0513  -17.1788  -47.4045 C.ar      23 UNK        -0.1150 
     15 C15         2.0259  -19.1759  -48.6051 C.3       23 UNK        -0.0205 
     16 S16         1.4112  -20.8892  -48.5455 S.3       23 UNK        -0.2404 
     17 C17         0.6496  -20.9486  -46.8872 C.3       23 UNK        -0.0398 
     18 CA         -0.0088  -22.3169  -46.5951 C.3       11 UNK         0.1400 
     19 N          -0.2818  -22.4966  -45.1706 N.am      11 UNK        -0.5000 
     20 C          -0.6922  -23.6400  -44.6050 C.2       10 UNK         0.5000 
     21 O          -0.8452  -24.6971  -45.2176 O.2       10 UNK        -0.5000 
     22 CA         -1.0376  -23.5724  -43.1091 C.3       10 UNK         0.1400 
     23 CB          0.2329  -23.6329  -42.2481 C.3       10 UNK        -0.1800 
     24 N          -1.7975  -22.3660  -42.7815 N.am      10 UNK        -0.5000 
     25 C          -3.0584  -22.1396  -43.1746 C.2       9 UNK         0.5000 
     26 O          -3.7218  -22.9332  -43.8419 O.2       9 UNK        -0.5000 
     27 CA         -3.6676  -20.7821  -42.7830 C.3       9 UNK         0.1400 
     28 CB         -4.1710  -20.8093  -41.3321 C.3       9 UNK        -0.1800 
     29 N          -2.7346  -19.6671  -42.9549 N.am      9 UNK        -0.5000 
     30 C          -2.2746  -19.2488  -44.1419 C.2       8 UNK         0.5000 
     31 O          -2.5545  -19.7816  -45.2136 O.2       8 UNK        -0.5000 
     32 CA         -1.3131  -18.0501  -44.1277 C.3       8 UNK         0.1400 
     33 CB         -2.0913  -16.7470  -43.8799 C.3       8 UNK        -0.1800 
     34 N          -0.2203  -18.1499  -43.1569 N.am      8 UNK        -0.5000 
     35 C           0.6245  -19.1818  -43.0085 C.2       7 UNK         0.5000 
     36 O           0.4891  -20.2729  -43.5647 O.2       7 UNK        -0.5000 
     37 CA          1.8470  -18.9123  -42.1050 C.3       7 UNK         0.1400 
     38 CB          2.8791  -20.0590  -42.1296 C.3       7 UNK        -0.1800 
     39 N           2.4921  -17.6259  -42.4110 N.am      7 UNK        -0.5000 
     40 C           3.0038  -17.2424  -43.5926 C.2       6 UNK         0.5000 
     41 O           3.0055  -17.9538  -44.5987 O.2       6 UNK        -0.5000 
     42 CA          3.5591  -15.8015  -43.6456 C.3       6 UNK         0.1400 
     43 CB          4.6889  -15.5753  -42.6190 C.3       6 UNK        -0.1800 
     44 N           3.9813  -15.3739  -44.9854 N.am      6 UNK        -0.5000 
     45 C           4.9946  -15.8455  -45.7315 C.2       5 UNK         0.5000 
     46 O           5.7741  -16.7305  -45.3766 O.2       5 UNK        -0.5000 
     47 CA          5.1968  -15.1728  -47.1022 C.3       5 UNK         0.1400 
     48 CB          4.3094  -15.8121  -48.1808 C.3       5 UNK        -0.1800 
     49 N           4.9224  -13.7370  -47.0315 N.am      5 UNK        -0.5000 
     50 C           5.8300  -12.8208  -46.6704 C.2       4 UNK         0.5000 
     51 O           7.0218  -13.0670  -46.4799 O.2       4 UNK        -0.5000 
     52 CA          5.3024  -11.3933  -46.4529 C.3       4 UNK         0.1400 
     53 CB          4.9176  -10.7337  -47.7864 C.3       4 UNK        -0.1800 
     54 N           4.1613  -11.3670  -45.5354 N.am      4 UNK        -0.5000 
     55 C           4.2468  -11.6162  -44.2177 C.2       3 UNK         0.5000 
     56 O           5.3035  -11.9090  -43.6561 O.2       3 UNK        -0.5000 
     57 CA          2.9469  -11.5226  -43.3841 C.3       3 UNK         0.1400 
     58 CB          3.2065  -11.1834  -41.9022 C.3       3 UNK        -0.1800 
     59 N           1.9429  -10.6207  -43.9532 N.am      3 UNK        -0.5000 
     60 C           2.0699   -9.3122  -44.2317 C.2       2 UNK         0.5000 
     61 O           3.0469   -8.6360  -43.9059 O.2       2 UNK        -0.5000 
     62 CA          0.9221   -8.6619  -45.0438 C.3       2 UNK         0.1400 
     63 CB          1.4202   -7.5230  -45.9578 C.3       2 UNK        -0.1800 
     64 N           0.1305   -9.6310  -45.8165 N.am      2 UNK        -0.5000 
     65 C           0.5834  -10.5003  -46.7354 C.2       1 UNK         0.5000 
     66 O           1.7414  -10.4948  -47.1551 O.2       1 UNK        -0.5000 
     67 C          -1.2757  -22.5515  -47.4432 C.2       11 UNK         0.5000 
     68 O          -1.2197  -23.3163  -48.4048 O.2       11 UNK        -0.5000 
     69 N          -2.4055  -21.9480  -47.0426 N.am      12 UNK        -0.5000 
     70 CA         -3.7078  -22.1312  -47.6815 C.3       12 UNK         0.1400 
     71 CB         -4.7475  -21.1928  -47.0537 C.3       12 UNK        -0.1800 
     72 C          -4.1957  -23.5876  -47.6371 C.2       12 UNK         0.5000 
     73 O          -4.6741  -24.0831  -48.6562 O.2       12 UNK        -0.5000 
     74 N          -4.0373  -24.2572  -46.4865 N.am      13 UNK        -0.5000 
     75 CA         -4.3631  -25.6730  -46.3065 C.3       13 UNK         0.1400 
     76 CB         -4.2075  -26.0635  -44.8292 C.3       13 UNK        -0.1800 
     77 C          -3.5253  -26.5930  -47.2130 C.2       13 UNK         0.5000 
     78 O          -4.0911  -27.4548  -47.8875 O.2       13 UNK        -0.5000 
     79 N          -2.2053  -26.3593  -47.2557 N.am      14 UNK        -0.5000 
     80 CA         -1.2611  -27.0682  -48.1244 C.3       14 UNK         0.1400 
     81 CB          0.1728  -26.6490  -47.7671 C.3       14 UNK        -0.1800 
     82 C          -1.5358  -26.8447  -49.6246 C.2       14 UNK         0.5000 
     83 O          -1.3858  -27.7736  -50.4184 O.2       14 UNK        -0.5000 
     84 N          -1.9718  -25.6289  -49.9747 N.am      15 UNK        -0.5000 
     85 CA         -2.3584  -25.2097  -51.3207 C.3       15 UNK         0.1400 
     86 CB         -2.0879  -23.7033  -51.4573 C.3       15 UNK        -0.1800 
     87 C          -3.8151  -25.5612  -51.6949 C.2       15 UNK         0.5000 
     88 O          -4.3003  -25.0555  -52.7079 O.2       15 UNK        -0.5000 
     89 N          -4.4812  -26.4096  -50.8955 N.am      16 UNK        -0.5000 
     90 CA         -5.8337  -26.9432  -51.0893 C.3       16 UNK         0.1400 
     91 CB         -5.8947  -27.8304  -52.3509 C.3       16 UNK        -0.1800 
     92 C          -6.9077  -25.8382  -51.0775 C.2       16 UNK         0.5000 
     93 O          -7.5776  -25.6052  -52.0841 O.2       16 UNK        -0.5000 
     94 N          -7.0190  -25.1561  -49.9298 N.am      17 UNK        -0.5000 
     95 CA         -7.8707  -23.9882  -49.6688 C.3       17 UNK         0.1400 
     96 CB         -9.3683  -24.3377  -49.7980 C.3       17 UNK        -0.1800 
     97 C          -7.4459  -22.7709  -50.5156 C.2       17 UNK         0.5000 
     98 O          -8.2907  -22.0462  -51.0429 O.2       17 UNK        -0.5000 
     99 N          -6.1217  -22.5984  -50.6336 N.am      18 UNK        -0.5000 
    100 CA        -5.3997  -21.5715  -51.3894 C.3       18 UNK         0.1400 
    101 CB        -5.6926  -20.1611  -50.8379 C.3       18 UNK        -0.1800 
    102 C         -5.5768  -21.6449  -52.9196 C.2       18 UNK         0.5000 
    103 O         -5.1368  -20.7241  -53.6079 O.2       18 UNK        -0.5000 
    104 N         -6.1643  -22.7287  -53.4460 N.am      19 UNK        -0.5000 
    105 CA        -6.4144  -22.9385  -54.8753 C.3       19 UNK         0.1400 
    106 CB        -7.2169  -24.2333  -55.0657 C.3       19 UNK        -0.1800 
    107 C         -5.1321  -22.9704  -55.7282 C.2       19 UNK         0.5000 
    108 O         -5.1360  -22.4660  -56.8516 O.2       19 UNK        -0.5000 
    109 N         -4.0549  -23.5303  -55.1650 N.am      20 UNK        -0.5000 
    110 CA        -2.7221  -23.5758  -55.7678 C.3       20 UNK         0.1400 
    111 CB        -2.0533  -24.9026  -55.3708 C.3       20 UNK        -0.1800 
    112 C         -1.8407  -22.3687  -55.3762 C.2       20 UNK         0.5000 
    113 O         -0.6591  -22.3591  -55.7255 O.2       20 UNK        -0.5000 
    114 N         -2.3993  -21.3902  -54.6509 N.am      21 UNK        -0.5000 
    115 CA        -1.7030  -20.2098  -54.1485 C.3       21 UNK         0.1400 
    116 CB        -1.4121  -20.3891  -52.6430 C.3       21 UNK        -0.1800 
    117 C         -2.5177  -18.9502  -54.4920 C.2       21 UNK         0.5000 
    118 O         -2.6143  -18.6011  -55.6696 O.2       21 UNK        -0.5000 
    119 N         -3.0558  -18.2771  -53.4680 N.am      22 UNK        -0.5000 
    120 CA        -3.7530  -16.9837  -53.5586 C.3       22 UNK         0.1400 
    121 C         -5.1298  -17.0026  -54.2864 C.2       22 UNK         0.5000 
    122 N         -5.7597  -18.1474  -54.5118 N.am      22 UNK        -0.7600 
    123 O         -5.6363  -15.9478  -54.6599 O.2       22 UNK        -0.5000 
    124 C124       -3.8873  -16.3100  -52.1675 C.3       23 UNK        -0.0398 
    125 S125       -2.2838  -16.0825  -51.3213 S.3       23 UNK        -0.2404 
    126 C126       -2.4654  -17.2065  -49.9023 C.3       23 UNK        -0.0205 
    127 H127       -3.6574  -12.4547  -45.0431 H         1 UNK         0.0600 
    128 H128       -3.0087  -11.8384  -43.5199 H         1 UNK         0.0600 
    129 H129       -2.7990  -13.5400  -43.9463 H         1 UNK         0.0600 
    130 H130       -2.4388  -11.8386  -46.7597 H         1 UNK         0.3000 
    131 H131       -0.8852  -11.1182  -48.0898 H         1 UNK         0.0600 
    132 H132       -0.4653  -13.5274  -48.2016 H         1 UNK         0.0800 
    133 H133        0.9271  -12.5991  -48.6181 H         1 UNK         0.0800 
    134 H134        0.6264  -15.6516  -45.2250 H         1 UNK         0.0800 
    135 H135       -0.7529  -14.7767  -45.8357 H         1 UNK         0.0800 
    136 H136       -1.8600  -15.4995  -47.8686 H         1 UNK         0.1150 
    137 H137       -0.3098  -18.8785  -50.0030 H         1 UNK         0.1150 
    138 H138        1.9269  -17.1728  -46.7722 H         1 UNK         0.1150 
    139 H139        2.5020  -19.0036  -49.5710 H         1 UNK         0.0800 
    140 H140        2.8062  -19.0602  -47.8507 H         1 UNK         0.0800 
    141 H141       -0.0747  -20.1395  -46.7770 H         1 UNK         0.0800 
    142 H142        1.4374  -20.7497  -46.1587 H         1 UNK         0.0800 
    143 H143        0.7086  -23.0946  -46.8668 H         1 UNK         0.0600 
    144 H144       -0.1530  -21.6789  -44.5780 H         1 UNK         0.3000 
    145 H145       -1.6541  -24.4409  -42.8675 H         1 UNK         0.0600 
    146 H146       -0.0101  -23.6355  -41.1855 H         1 UNK         0.0600 
    147 H147        0.7993  -24.5419  -42.4546 H         1 UNK         0.0600 
    148 H148        0.8918  -22.7860  -42.4403 H         1 UNK         0.0600 
    149 H149       -1.3026  -21.6336  -42.2943 H         1 UNK         0.3000 
    150 H150       -4.5255  -20.6058  -43.4356 H         1 UNK         0.0600 
    151 H151       -4.8808  -21.6239  -41.1810 H         1 UNK         0.0600 
    152 H152       -4.6834  -19.8820  -41.0753 H         1 UNK         0.0600 
    153 H153       -3.3543  -20.9497  -40.6229 H         1 UNK         0.0600 
    154 H154       -2.4371  -19.1821  -42.1212 H         1 UNK         0.3000 
    155 H155       -0.8518  -17.9928  -45.1151 H         1 UNK         0.0600 
    156 H156       -2.6331  -16.7735  -42.9337 H         1 UNK         0.0600 
    157 H157       -1.4304  -15.8820  -43.8505 H         1 UNK         0.0600 
    158 H158       -2.8213  -16.5737  -44.6717 H         1 UNK         0.0600 
    159 H159       -0.0187  -17.3090  -42.6371 H         1 UNK         0.3000 
    160 H160        1.4646  -18.8362  -41.0862 H         1 UNK         0.0600 
    161 H161        3.2608  -20.2407  -43.1349 H         1 UNK         0.0600 
    162 H162        2.4364  -20.9900  -41.7750 H         1 UNK         0.0600 
    163 H163        3.7288  -19.8385  -41.4836 H         1 UNK         0.0600 
    164 H164        2.5256  -16.9704  -41.6428 H         1 UNK         0.3000 
    165 H165        2.7309  -15.1433  -43.3793 H         1 UNK         0.0600 
    166 H166        5.0965  -14.5674  -42.6975 H         1 UNK         0.0600 
    167 H167        4.3288  -15.6945  -41.5970 H         1 UNK         0.0600 
    168 H168        5.5103  -16.2789  -42.7572 H         1 UNK         0.0600 
    169 H169        3.3889  -14.6773  -45.4132 H         1 UNK         0.3000 
    170 H170        6.2363  -15.3334  -47.3966 H         1 UNK         0.0600 
    171 H171        3.2558  -15.5881  -48.0236 H         1 UNK         0.0600 
    172 H172        4.5781  -15.4485  -49.1726 H         1 UNK         0.0600 
    173 H173        4.4203  -16.8971  -48.1907 H         1 UNK         0.0600 
    174 H174        3.9674  -13.4424  -47.1774 H         1 UNK         0.3000 
    175 H175        6.1064  -10.8024  -46.0087 H         1 UNK         0.0600 
    176 H176        4.5878   -9.7055  -47.6353 H         1 UNK         0.0600 
    177 H177        4.1122  -11.2708  -48.2886 H         1 UNK         0.0600 
    178 H178        5.7688  -10.7065  -48.4678 H         1 UNK         0.0600 
    179 H179        3.2640  -11.1136  -45.9370 H         1 UNK         0.3000 
    180 H180        2.5015  -12.5177  -43.4188 H         1 UNK         0.0600 
    181 H181        3.7124  -10.2241  -41.7895 H         1 UNK         0.0600 
    182 H182        3.8328  -11.9412  -41.4301 H         1 UNK         0.0600 
    183 H183        2.2742  -11.1398  -41.3392 H         1 UNK         0.0600 
    184 H184        1.0813  -11.0817  -44.2376 H         1 UNK         0.3000 
    185 H185        0.2424   -8.2266  -44.3102 H         1 UNK         0.0600 
    186 H186        1.8761   -6.7225  -45.3742 H         1 UNK         0.0600 
    187 H187        2.1675   -7.8733  -46.6705 H         1 UNK         0.0600 
    188 H188        0.5985   -7.0825  -46.5225 H         1 UNK         0.0600 
    189 H189       -0.8323   -9.7318  -45.5275 H         1 UNK         0.3000 
    190 H190       -2.3774  -21.3008  -46.2576 H         1 UNK         0.3000 
    191 H191       -3.5972  -21.8535  -48.7312 H         1 UNK         0.0600 
    192 H192       -4.4673  -20.1483  -47.1911 H         1 UNK         0.0600 
    193 H193       -5.7274  -21.3292  -47.5131 H         1 UNK         0.0600 
    194 H194       -4.8574  -21.3723  -45.9837 H         1 UNK         0.0600 
    195 H195       -3.6764  -23.7664  -45.6744 H         1 UNK         0.3000 
    196 H196       -5.4117  -25.8072  -46.5799 H         1 UNK         0.0600 
    197 H197       -4.4504  -27.1155  -44.6748 H         1 UNK         0.0600 
    198 H198       -4.8759  -25.4797  -44.1962 H         1 UNK         0.0600 
    199 H199       -3.1892  -25.9053  -44.4736 H         1 UNK         0.0600 
    200 H200       -1.8142  -25.6408  -46.6525 H         1 UNK         0.3000 
    201 H201       -1.3636  -28.1368  -47.9252 H         1 UNK         0.0600 
    202 H202        0.4017  -26.8763  -46.7258 H         1 UNK         0.0600 
    203 H203        0.3283  -25.5800  -47.9168 H         1 UNK         0.0600 
    204 H204        0.9007  -27.1775  -48.3839 H         1 UNK         0.0600 
    205 H205       -2.0005  -24.9062  -49.2609 H         1 UNK         0.3000 
    206 H206       -1.7222  -25.7269  -52.0409 H         1 UNK         0.0600 
    207 H207       -1.0280  -23.4852  -51.3257 H         1 UNK         0.0600 
    208 H208       -2.3755  -23.3249  -52.4377 H         1 UNK         0.0600 
    209 H209       -2.6347  -23.1358  -50.7065 H         1 UNK         0.0600 
    210 H210       -4.0116  -26.7237  -50.0557 H         1 UNK         0.3000 
    211 H211       -6.0369  -27.5847  -50.2304 H         1 UNK         0.0600 
    212 H212       -5.7190  -27.2593  -53.2631 H         1 UNK         0.0600 
    213 H213       -6.8733  -28.3019  -52.4465 H         1 UNK         0.0600 
    214 H214       -5.1526  -28.6275  -52.3072 H         1 UNK         0.0600 
    215 H215       -6.3377  -25.3528  -49.2066 H         1 UNK         0.3000 
    216 H216       -7.6900  -23.7091  -48.6297 H         1 UNK         0.0600 
    217 H217       -9.9906  -23.5089  -49.4588 H         1 UNK         0.0600 
    218 H218       -9.6245  -25.2053  -49.1902 H         1 UNK         0.0600 
    219 H219       -9.6508  -24.5538  -50.8285 H         1 UNK         0.0600 
    220 H220       -5.5365  -23.2642  -50.1350 H         1 UNK         0.3000 
    221 H221       -4.3438  -21.7656  -51.2136 H         1 UNK         0.0600 
    222 H222       -6.7202  -19.8547  -51.0343 H         1 UNK         0.0600 
    223 H223       -5.5275  -20.1136  -49.7622 H         1 UNK         0.0600 
    224 H224       -5.0405  -19.4167  -51.2954 H         1 UNK         0.0600 
    225 H225       -6.4529  -23.4737  -52.8258 H         1 UNK         0.3000 
    226 H226       -7.0235  -22.1038  -55.2279 H         1 UNK         0.0600 
    227 H227       -8.1651  -24.1922  -54.5293 H         1 UNK         0.0600 
    228 H228       -7.4450  -24.4028  -56.1187 H         1 UNK         0.0600 
    229 H229       -6.6652  -25.1021  -54.7036 H         1 UNK         0.0600 
    230 H230       -4.1568  -23.9591  -54.2471 H         1 UNK         0.3000 
    231 H231       -2.8143  -23.5645  -56.8557 H         1 UNK         0.0600 
    232 H232       -1.8544  -24.9469  -54.3011 H         1 UNK         0.0600 
    233 H233       -1.1011  -25.0329  -55.8862 H         1 UNK         0.0600 
    234 H234       -2.6809  -25.7553  -55.6306 H         1 UNK         0.0600 
    235 H235       -3.3955  -21.4212  -54.4648 H         1 UNK         0.3000 
    236 H236       -0.7449  -20.0882  -54.6578 H         1 UNK         0.0600 
    237 H237       -0.7441  -21.2341  -52.4777 H         1 UNK         0.0600 
    238 H238       -0.9145  -19.5105  -52.2311 H         1 UNK         0.0600 
    239 H239       -2.3196  -20.5681  -52.0660 H         1 UNK         0.0600 
    240 H240       -2.9276  -18.6417  -52.5381 H         1 UNK         0.3000 
    241 H241       -3.1171  -16.3367  -54.1660 H         1 UNK         0.0600 
    242 H242       -6.6453  -18.1346  -54.9905 H         1 UNK         0.3800 
    243 H243       -5.3749  -19.0365  -54.1979 H         1 UNK         0.3800 
    244 H244       -4.3388  -15.3214  -52.2685 H         1 UNK         0.0800 
    245 H245       -4.5638  -16.8835  -51.5316 H         1 UNK         0.0800 
    246 H246       -3.3342  -16.9108  -49.3120 H         1 UNK         0.0800 
    247 H247       -2.6622  -18.2194  -50.2564 H         1 UNK         0.0800 
@<TRIPOS>BOND
     1    1    2 1    
     2    1  127 1    
     3    1  128 1    
     4    1  129 1    
     5    2    3 2    
     6    2    4 am   BACKBONE|DICT|INTERRES
     7    4    5 1    
     8    4  130 1    
     9    5    6 1    
    10    5   65 1    
    11    5  131 1    
    12    6    7 1    
    13    6  132 1    
    14    6  133 1    
    15    7    8 1    
    16    8    9 1    
    17    8  134 1    
    18    8  135 1    
    19    9   10 ar   
    20    9   14 ar   
    21   10   11 ar   
    22   10  136 1    
    23   11   12 ar   
    24   11  126 1    
    25   12   13 ar   
    26   12  137 1    
    27   13   14 ar   
    28   13   15 1    
    29   14  138 1    
    30   15   16 1    
    31   15  139 1    
    32   15  140 1    
    33   16   17 1    
    34   17   18 1    
    35   17  141 1    
    36   17  142 1    
    37   18   19 1    
    38   18   67 1    
    39   18  143 1    
    40   19   20 am   BACKBONE|DICT|INTERRES
    41   19  144 1    
    42   20   21 2    
    43   20   22 1    
    44   22   23 1    
    45   22   24 1    
    46   22  145 1    
    47   23  146 1    
    48   23  147 1    
    49   23  148 1    
    50   24   25 am   BACKBONE|DICT|INTERRES
    51   24  149 1    
    52   25   26 2    
    53   25   27 1    
    54   27   28 1    
    55   27   29 1    
    56   27  150 1    
    57   28  151 1    
    58   28  152 1    
    59   28  153 1    
    60   29   30 am   BACKBONE|DICT|INTERRES
    61   29  154 1    
    62   30   31 2    
    63   30   32 1    
    64   32   33 1    
    65   32   34 1    
    66   32  155 1    
    67   33  156 1    
    68   33  157 1    
    69   33  158 1    
    70   34   35 am   BACKBONE|DICT|INTERRES
    71   34  159 1    
    72   35   36 2    
    73   35   37 1    
    74   37   38 1    
    75   37   39 1    
    76   37  160 1    
    77   38  161 1    
    78   38  162 1    
    79   38  163 1    
    80   39   40 am   BACKBONE|DICT|INTERRES
    81   39  164 1    
    82   40   41 2    
    83   40   42 1    
    84   42   43 1    
    85   42   44 1    
    86   42  165 1    
    87   43  166 1    
    88   43  167 1    
    89   43  168 1    
    90   44   45 am   BACKBONE|DICT|INTERRES
    91   44  169 1    
    92   45   46 2    
    93   45   47 1    
    94   47   48 1    
    95   47   49 1    
    96   47  170 1    
    97   48  171 1    
    98   48  172 1    
    99   48  173 1    
   100   49   50 am   BACKBONE|DICT|INTERRES
   101   49  174 1    
   102   50   51 2    
   103   50   52 1    
   104   52   53 1    
   105   52   54 1    
   106   52  175 1    
   107   53  176 1    
   108   53  177 1    
   109   53  178 1    
   110   54   55 am   BACKBONE|DICT|INTERRES
   111   54  179 1    
   112   55   56 2    
   113   55   57 1    
   114   57   58 1    
   115   57   59 1    
   116   57  180 1    
   117   58  181 1    
   118   58  182 1    
   119   58  183 1    
   120   59   60 am   BACKBONE|DICT|INTERRES
   121   59  184 1    
   122   60   61 2    
   123   60   62 1    
   124   62   63 1    
   125   62   64 1    
   126   62  185 1    
   127   63  186 1    
   128   63  187 1    
   129   63  188 1    
   130   64   65 am   BACKBONE|DICT|INTERRES
   131   64  189 1    
   132   65   66 2    
   133   67   68 2    
   134   67   69 am   BACKBONE|DICT|INTERRES
   135   69   70 1    
   136   69  190 1    
   137   70   71 1    
   138   70   72 1    
   139   70  191 1    
   140   71  192 1    
   141   71  193 1    
   142   71  194 1    
   143   72   73 2    
   144   72   74 am   BACKBONE|DICT|INTERRES
   145   74   75 1    
   146   74  195 1    
   147   75   76 1    
   148   75   77 1    
   149   75  196 1    
   150   76  197 1    
   151   76  198 1    
   152   76  199 1    
   153   77   78 2    
   154   77   79 am   BACKBONE|DICT|INTERRES
   155   79   80 1    
   156   79  200 1    
   157   80   81 1    
   158   80   82 1    
   159   80  201 1    
   160   81  202 1    
   161   81  203 1    
   162   81  204 1    
   163   82   83 2    
   164   82   84 am   BACKBONE|DICT|INTERRES
   165   84   85 1    
   166   84  205 1    
   167   85   86 1    
   168   85   87 1    
   169   85  206 1    
   170   86  207 1    
   171   86  208 1    
   172   86  209 1    
   173   87   88 2    
   174   87   89 am   BACKBONE|DICT|INTERRES
   175   89   90 1    
   176   89  210 1    
   177   90   91 1    
   178   90   92 1    
   179   90  211 1    
   180   91  212 1    
   181   91  213 1    
   182   91  214 1    
   183   92   93 2    
   184   92   94 am   BACKBONE|DICT|INTERRES
   185   94   95 1    
   186   94  215 1    
   187   95   96 1    
   188   95   97 1    
   189   95  216 1    
   190   96  217 1    
   191   96  218 1    
   192   96  219 1    
   193   97   98 2    
   194   97   99 am   BACKBONE|DICT|INTERRES
   195   99  100 1    
   196   99  220 1    
   197  100  101 1    
   198  100  102 1    
   199  100  221 1    
   200  101  222 1    
   201  101  223 1    
   202  101  224 1    
   203  102  103 2    
   204  102  104 am   BACKBONE|DICT|INTERRES
   205  104  105 1    
   206  104  225 1    
   207  105  106 1    
   208  105  107 1    
   209  105  226 1    
   210  106  227 1    
   211  106  228 1    
   212  106  229 1    
   213  107  108 2    
   214  107  109 am   BACKBONE|DICT|INTERRES
   215  109  110 1    
   216  109  230 1    
   217  110  111 1    
   218  110  112 1    
   219  110  231 1    
   220  111  232 1    
   221  111  233 1    
   222  111  234 1    
   223  112  113 2    
   224  112  114 am   BACKBONE|DICT|INTERRES
   225  114  115 1    
   226  114  235 1    
   227  115  116 1    
   228  115  117 1    
   229  115  236 1    
   230  116  237 1    
   231  116  238 1    
   232  116  239 1    
   233  117  118 2    
   234  117  119 am   BACKBONE|DICT|INTERRES
   235  119  120 1    
   236  119  240 1    
   237  120  121 1    
   238  120  124 1    
   239  120  241 1    
   240  121  122 am   BACKBONE|DICT|INTERRES
   241  121  123 2    
   242  122  242 1    
   243  122  243 1    
   244  124  125 1    
   245  124  244 1    
   246  124  245 1    
   247  125  126 1    
   248  126  246 1    
   249  126  247 1    
@<TRIPOS>SUBSTRUCTURE
     1 UNK         1 GROUP             0       ****    0 ROOT    
