@<TRIPOS>MOLECULE
3R540
247   249    1
SMALL
USER_CHARGES


@<TRIPOS>ATOM
      1 CA          3.0605  -10.9578  -51.7319 C.3       0 UNK        -0.1800 
      2 C           1.6452  -11.2244  -51.2240 C.2       0 UNK         0.5000 
      3 O           0.7511  -10.4203  -51.4775 O.2       0 UNK        -0.5000 
      4 N           1.3888  -12.3234  -50.5006 N.am      1 UNK        -0.5000 
      5 CA          2.3457  -13.3715  -50.1107 C.3       1 UNK         0.1400 
      6 C6          1.6802  -14.7680  -50.0445 C.3       23 UNK        -0.0398 
      7 S7          1.0241  -15.3100  -51.6592 S.3       23 UNK        -0.2404 
      8 C8         -0.7796  -15.2162  -51.4019 C.3       23 UNK        -0.0205 
      9 C9         -1.2889  -16.1254  -50.2884 C.ar      23 UNK        -0.0193 
     10 C10        -2.1854  -15.6282  -49.3402 C.ar      23 UNK        -0.1150 
     11 C11        -2.6834  -16.4527  -48.3271 C.ar      23 UNK        -0.0193 
     12 C12        -2.2703  -17.7875  -48.2549 C.ar      23 UNK        -0.1150 
     13 C13        -1.3844  -18.3005  -49.2078 C.ar      23 UNK        -0.0193 
     14 C14        -0.9025  -17.4665  -50.2202 C.ar      23 UNK        -0.1150 
     15 C15        -0.9697  -19.7623  -49.1880 C.3       23 UNK        -0.0205 
     16 S16         0.7029  -19.9942  -48.5111 S.3       23 UNK        -0.2404 
     17 C17         0.3440  -20.2201  -46.7369 C.3       23 UNK        -0.0398 
     18 CA          0.4838  -21.6898  -46.2746 C.3       11 UNK         0.1400 
     19 N           0.4519  -21.7978  -44.8176 N.am      11 UNK        -0.5000 
     20 C           0.7731  -22.8994  -44.1256 C.2       10 UNK         0.5000 
     21 O           1.2257  -23.9238  -44.6357 O.2       10 UNK        -0.5000 
     22 CA          0.4972  -22.8628  -42.6134 C.3       10 UNK         0.1400 
     23 CB          1.6610  -22.2039  -41.8590 C.3       10 UNK        -0.1800 
     24 N          -0.7512  -22.1623  -42.3087 N.am      10 UNK        -0.5000 
     25 C          -1.9703  -22.6481  -42.5832 C.2       9 UNK         0.5000 
     26 O          -2.1681  -23.7563  -43.0808 O.2       9 UNK        -0.5000 
     27 CA         -3.1694  -21.7354  -42.2707 C.3       9 UNK         0.1400 
     28 CB         -3.6373  -21.9372  -40.8218 C.3       9 UNK        -0.1800 
     29 N          -2.8930  -20.3157  -42.4949 N.am      9 UNK        -0.5000 
     30 C          -2.6734  -19.7680  -43.6980 C.2       8 UNK         0.5000 
     31 O          -2.6130  -20.4068  -44.7479 O.2       8 UNK        -0.5000 
     32 CA         -2.4448  -18.2483  -43.7204 C.3       8 UNK         0.1400 
     33 CB         -3.7460  -17.5032  -43.3760 C.3       8 UNK        -0.1800 
     34 N          -1.3896  -17.7825  -42.8204 N.am      8 UNK        -0.5000 
     35 C          -0.1420  -18.2581  -42.7086 C.2       7 UNK         0.5000 
     36 O           0.2661  -19.2650  -43.2916 O.2       7 UNK        -0.5000 
     37 CA          0.8008  -17.4514  -41.7886 C.3       7 UNK         0.1400 
     38 CB          2.2410  -17.9929  -41.7930 C.3       7 UNK        -0.1800 
     39 N           0.8259  -16.0341  -42.1605 N.am      7 UNK        -0.5000 
     40 C          -0.0848  -15.1182  -41.8025 C.2       6 UNK         0.5000 
     41 O          -1.0366  -15.3640  -41.0605 O.2       6 UNK        -0.5000 
     42 CA          0.0463  -13.7210  -42.4367 C.3       6 UNK         0.1400 
     43 CB          1.2140  -12.9327  -41.8236 C.3       6 UNK        -0.1800 
     44 N           0.2106  -13.7976  -43.8880 N.am      6 UNK        -0.5000 
     45 C          -0.7274  -14.2358  -44.7416 C.2       5 UNK         0.5000 
     46 O          -1.8755  -14.5293  -44.4099 O.2       5 UNK        -0.5000 
     47 CA         -0.2995  -14.4039  -46.2093 C.3       5 UNK         0.1400 
     48 CB         -0.4602  -13.0910  -46.9922 C.3       5 UNK        -0.1800 
     49 N           1.0720  -14.9072  -46.3088 N.am      5 UNK        -0.5000 
     50 C           1.3939  -16.1898  -46.0785 C.2       4 UNK         0.5000 
     51 O           0.5562  -17.0699  -45.8958 O.2       4 UNK        -0.5000 
     52 CA          2.8887  -16.5534  -45.9864 C.3       4 UNK         0.1400 
     53 CB          3.3961  -17.2165  -47.2740 C.3       4 UNK        -0.1800 
     54 N           3.7354  -15.4037  -45.6667 N.am      4 UNK        -0.5000 
     55 C           3.8717  -14.9027  -44.4316 C.2       3 UNK         0.5000 
     56 O           3.3169  -15.3770  -43.4420 O.2       3 UNK        -0.5000 
     57 CA          4.7218  -13.6272  -44.2792 C.3       3 UNK         0.1400 
     58 CB          6.2007  -13.9856  -44.0737 C.3       3 UNK        -0.1800 
     59 N           4.5992  -12.7060  -45.4109 N.am      3 UNK        -0.5000 
     60 C           3.4545  -12.1437  -45.8209 C.2       2 UNK         0.5000 
     61 O           2.3706  -12.3438  -45.2724 O.2       2 UNK        -0.5000 
     62 CA          3.5069  -11.2413  -47.0698 C.3       2 UNK         0.1400 
     63 CB          4.9339  -10.8012  -47.4665 C.3       2 UNK        -0.1800 
     64 N           2.8293  -11.8471  -48.2220 N.am      2 UNK        -0.5000 
     65 C           3.0915  -13.0332  -48.7963 C.2       1 UNK         0.5000 
     66 O           3.9009  -13.8420  -48.3401 O.2       1 UNK        -0.5000 
     67 C          -0.5657  -22.6211  -46.9169 C.2       11 UNK         0.5000 
     68 O          -0.2134  -23.4395  -47.7660 O.2       11 UNK        -0.5000 
     69 N          -1.8247  -22.5208  -46.4676 N.am      12 UNK        -0.5000 
     70 CA         -2.9702  -23.2848  -46.9724 C.3       12 UNK         0.1400 
     71 CB         -4.2459  -22.7680  -46.2987 C.3       12 UNK        -0.1800 
     72 C          -2.8614  -24.8124  -46.8074 C.2       12 UNK         0.5000 
     73 O          -3.5317  -25.5436  -47.5356 O.2       12 UNK        -0.5000 
     74 N          -2.0166  -25.2733  -45.8762 N.am      13 UNK        -0.5000 
     75 CA         -1.6830  -26.6847  -45.6895 C.3       13 UNK         0.1400 
     76 CB         -0.9561  -26.8545  -44.3468 C.3       13 UNK        -0.1800 
     77 C          -0.8376  -27.2695  -46.8408 C.2       13 UNK         0.5000 
     78 O          -0.8650  -28.4849  -47.0399 O.2       13 UNK        -0.5000 
     79 N          -0.1044  -26.4131  -47.5662 N.am      14 UNK        -0.5000 
     80 CA          0.7591  -26.7905  -48.6851 C.3       14 UNK         0.1400 
     81 CB          2.1664  -26.2242  -48.4366 C.3       14 UNK        -0.1800 
     82 C           0.2107  -26.2859  -50.0308 C.2       14 UNK         0.5000 
     83 O           0.2894  -27.0097  -51.0246 O.2       14 UNK        -0.5000 
     84 N          -0.3077  -25.0517  -50.0513 N.am      15 UNK        -0.5000 
     85 CA         -0.8107  -24.3693  -51.2410 C.3       15 UNK         0.1400 
     86 CB         -1.0081  -22.8832  -50.9058 C.3       15 UNK        -0.1800 
     87 C          -2.1245  -24.9648  -51.7763 C.2       15 UNK         0.5000 
     88 O          -2.9564  -25.4403  -51.0008 O.2       15 UNK        -0.5000 
     89 N          -2.3032  -24.8611  -53.0969 N.am      16 UNK        -0.5000 
     90 CA         -3.5726  -25.0766  -53.7881 C.3       16 UNK         0.1400 
     91 CB         -3.2752  -25.6246  -55.1935 C.3       16 UNK        -0.1800 
     92 C          -4.3374  -23.7447  -53.8866 C.2       16 UNK         0.5000 
     93 O          -3.7393  -22.6805  -53.7136 O.2       16 UNK        -0.5000 
     94 N          -5.6329  -23.8128  -54.2218 N.am      17 UNK        -0.5000 
     95 CA         -6.5293  -22.6565  -54.3724 C.3       17 UNK         0.1400 
     96 CB         -7.9492  -23.1602  -54.6705 C.3       17 UNK        -0.1800 
     97 C          -6.0858  -21.6300  -55.4380 C.2       17 UNK         0.5000 
     98 O          -6.4454  -20.4565  -55.3390 O.2       17 UNK        -0.5000 
     99 N          -5.2771  -22.0753  -56.4107 N.am      18 UNK        -0.5000 
    100 CA        -4.6021  -21.2345  -57.4031 C.3       18 UNK         0.1400 
    101 CB        -3.9580  -22.1420  -58.4623 C.3       18 UNK        -0.1800 
    102 C         -3.5464  -20.2858  -56.7932 C.2       18 UNK         0.5000 
    103 O         -3.2323  -19.2634  -57.4028 O.2       18 UNK        -0.5000 
    104 N         -3.0401  -20.6241  -55.6004 N.am      19 UNK        -0.5000 
    105 CA        -2.1277  -19.8235  -54.7878 C.3       19 UNK         0.1400 
    106 CB        -0.8648  -20.6536  -54.4951 C.3       19 UNK        -0.1800 
    107 C         -2.8512  -19.3616  -53.5073 C.2       19 UNK         0.5000 
    108 O         -2.2760  -19.4033  -52.4200 O.2       19 UNK        -0.5000 
    109 N         -4.1150  -18.9425  -53.6679 N.am      20 UNK        -0.5000 
    110 CA        -5.0663  -18.4623  -52.6614 C.3       20 UNK         0.1400 
    111 CB        -4.5452  -17.2112  -51.9258 C.3       20 UNK        -0.1800 
    112 C         -5.5271  -19.5517  -51.6771 C.2       20 UNK         0.5000 
    113 O         -6.7136  -19.8804  -51.6655 O.2       20 UNK        -0.5000 
    114 N         -4.5883  -20.0766  -50.8760 N.am      21 UNK        -0.5000 
    115 CA        -4.7750  -21.0721  -49.8145 C.3       21 UNK         0.1400 
    116 CB        -5.0179  -22.4680  -50.4189 C.3       21 UNK        -0.1800 
    117 C         -5.8554  -20.6559  -48.7932 C.2       21 UNK         0.5000 
    118 O         -6.8449  -21.3670  -48.6110 O.2       21 UNK        -0.5000 
    119 N         -5.6400  -19.4828  -48.1826 N.am      22 UNK        -0.5000 
    120 CA        -6.5039  -18.8168  -47.1928 C.3       22 UNK         0.1400 
    121 C         -7.0180  -19.7423  -46.0508 C.2       22 UNK         0.5000 
    122 N         -8.3266  -19.9070  -45.9121 N.am      22 UNK        -0.7600 
    123 O         -6.2415  -20.2604  -45.2540 O.2       22 UNK        -0.5000 
    124 C124       -5.7757  -17.6017  -46.5699 C.3       23 UNK        -0.0398 
    125 S125       -5.3837  -16.2832  -47.7661 S.3       23 UNK        -0.2404 
    126 C126       -3.6645  -15.8840  -47.3161 C.3       23 UNK        -0.0205 
    127 H127        3.7880  -10.9991  -50.9217 H         1 UNK         0.0600 
    128 H128        3.1243   -9.9668  -52.1816 H         1 UNK         0.0600 
    129 H129        3.3373  -11.6876  -52.4927 H         1 UNK         0.0600 
    130 H130        0.4402  -12.4736  -50.1909 H         1 UNK         0.3000 
    131 H131        3.1224  -13.4410  -50.8738 H         1 UNK         0.0600 
    132 H132        2.4108  -15.5219  -49.7560 H         1 UNK         0.0800 
    133 H133        0.9002  -14.8015  -49.2847 H         1 UNK         0.0800 
    134 H134       -1.0504  -14.1773  -51.2090 H         1 UNK         0.0800 
    135 H135       -1.2795  -15.4974  -52.3296 H         1 UNK         0.0800 
    136 H136       -2.5063  -14.5976  -49.3951 H         1 UNK         0.1150 
    137 H137       -2.6456  -18.4259  -47.4676 H         1 UNK         0.1150 
    138 H138       -0.2308  -17.8696  -50.9650 H         1 UNK         0.1150 
    139 H139       -1.6879  -20.3647  -48.6322 H         1 UNK         0.0800 
    140 H140       -0.9821  -20.1414  -50.2097 H         1 UNK         0.0800 
    141 H141        1.0620  -19.6091  -46.1893 H         1 UNK         0.0800 
    142 H142       -0.6363  -19.8103  -46.4902 H         1 UNK         0.0800 
    143 H143        1.4664  -22.0427  -46.5960 H         1 UNK         0.0600 
    144 H144        0.1334  -20.9793  -44.3069 H         1 UNK         0.3000 
    145 H145        0.4059  -23.8934  -42.2632 H         1 UNK         0.0600 
    146 H146        1.4741  -22.1775  -40.7854 H         1 UNK         0.0600 
    147 H147        2.5870  -22.7586  -42.0151 H         1 UNK         0.0600 
    148 H148        1.8328  -21.1828  -42.1975 H         1 UNK         0.0600 
    149 H149       -0.6724  -21.2207  -41.9533 H         1 UNK         0.3000 
    150 H150       -3.9865  -22.0253  -42.9347 H         1 UNK         0.0600 
    151 H151       -3.8726  -22.9851  -40.6304 H         1 UNK         0.0600 
    152 H152       -4.5388  -21.3604  -40.6145 H         1 UNK         0.0600 
    153 H153       -2.8724  -21.6361  -40.1050 H         1 UNK         0.0600 
    154 H154       -2.9042  -19.7140  -41.6846 H         1 UNK         0.3000 
    155 H155       -2.1495  -17.9790  -44.7367 H         1 UNK         0.0600 
    156 H156       -3.6945  -16.4587  -43.6830 H         1 UNK         0.0600 
    157 H157       -3.9500  -17.5246  -42.3050 H         1 UNK         0.0600 
    158 H158       -4.6093  -17.9487  -43.8691 H         1 UNK         0.0600 
    159 H159       -1.6016  -16.9455  -42.2896 H         1 UNK         0.3000 
    160 H160        0.4179  -17.5440  -40.7703 H         1 UNK         0.0600 
    161 H161        2.6624  -18.0099  -42.7986 H         1 UNK         0.0600 
    162 H162        2.2772  -19.0092  -41.4014 H         1 UNK         0.0600 
    163 H163        2.8939  -17.3834  -41.1682 H         1 UNK         0.0600 
    164 H164        1.5958  -15.7497  -42.7610 H         1 UNK         0.3000 
    165 H165       -0.8753  -13.1723  -42.2315 H         1 UNK         0.0600 
    166 H166        2.1721  -13.4222  -41.9969 H         1 UNK         0.0600 
    167 H167        1.2732  -11.9281  -42.2428 H         1 UNK         0.0600 
    168 H168        1.0894  -12.8293  -40.7451 H         1 UNK         0.0600 
    169 H169        1.1052  -13.5034  -44.2652 H         1 UNK         0.3000 
    170 H170       -0.9657  -15.1383  -46.6603 H         1 UNK         0.0600 
    171 H171       -1.4901  -12.7364  -46.9377 H         1 UNK         0.0600 
    172 H172        0.1749  -12.2970  -46.6023 H         1 UNK         0.0600 
    173 H173       -0.2255  -13.2235  -48.0463 H         1 UNK         0.0600 
    174 H174        1.8099  -14.2199  -46.3712 H         1 UNK         0.3000 
    175 H175        2.9807  -17.2911  -45.1862 H         1 UNK         0.0600 
    176 H176        4.3784  -17.6630  -47.1199 H         1 UNK         0.0600 
    177 H177        2.7265  -18.0120  -47.6001 H         1 UNK         0.0600 
    178 H178        3.4850  -16.5027  -48.0892 H         1 UNK         0.0600 
    179 H179        4.1726  -14.9262  -46.4468 H         1 UNK         0.3000 
    180 H180        4.3702  -13.1036  -43.3878 H         1 UNK         0.0600 
    181 H181        6.6196  -14.4841  -44.9488 H         1 UNK         0.0600 
    182 H182        6.3250  -14.6564  -43.2225 H         1 UNK         0.0600 
    183 H183        6.7986  -13.0961  -43.8746 H         1 UNK         0.0600 
    184 H184        5.4414  -12.5155  -45.9339 H         1 UNK         0.3000 
    185 H185        2.9443  -10.3420  -46.8148 H         1 UNK         0.0600 
    186 H186        4.9025  -10.0854  -48.2881 H         1 UNK         0.0600 
    187 H187        5.4409  -10.3095  -46.6352 H         1 UNK         0.0600 
    188 H188        5.5529  -11.6394  -47.7883 H         1 UNK         0.0600 
    189 H189        2.1104  -11.2788  -48.6471 H         1 UNK         0.3000 
    190 H190       -2.0380  -21.8183  -45.7608 H         1 UNK         0.3000 
    191 H191       -3.0443  -23.0874  -48.0426 H         1 UNK         0.0600 
    192 H192       -5.1346  -23.2472  -46.7115 H         1 UNK         0.0600 
    193 H193       -4.3563  -21.6949  -46.4469 H         1 UNK         0.0600 
    194 H194       -4.2364  -22.9555  -45.2247 H         1 UNK         0.0600 
    195 H195       -1.5471  -24.6083  -45.2762 H         1 UNK         0.3000 
    196 H196       -2.6154  -27.2514  -45.6443 H         1 UNK         0.0600 
    197 H197       -0.7330  -27.9045  -44.1534 H         1 UNK         0.0600 
    198 H198       -1.5664  -26.4945  -43.5184 H         1 UNK         0.0600 
    199 H199       -0.0116  -26.3104  -44.3292 H         1 UNK         0.0600 
    200 H200       -0.1629  -25.4223  -47.3579 H         1 UNK         0.3000 
    201 H201        0.8454  -27.8767  -48.7550 H         1 UNK         0.0600 
    202 H202        2.5964  -26.6302  -47.5209 H         1 UNK         0.0600 
    203 H203        2.1539  -25.1371  -48.3455 H         1 UNK         0.0600 
    204 H204        2.8415  -26.4792  -49.2545 H         1 UNK         0.0600 
    205 H205       -0.3210  -24.5086  -49.1911 H         1 UNK         0.3000 
    206 H206       -0.0496  -24.4486  -52.0201 H         1 UNK         0.0600 
    207 H207       -0.0656  -22.4188  -50.6151 H         1 UNK         0.0600 
    208 H208       -1.3965  -22.3284  -51.7601 H         1 UNK         0.0600 
    209 H209       -1.7147  -22.7487  -50.0868 H         1 UNK         0.0600 
    210 H210       -1.5882  -24.4026  -53.6424 H         1 UNK         0.3000 
    211 H211       -4.1845  -25.7987  -53.2434 H         1 UNK         0.0600 
    212 H212       -2.6991  -24.9162  -55.7906 H         1 UNK         0.0600 
    213 H213       -4.1959  -25.8402  -55.7368 H         1 UNK         0.0600 
    214 H214       -2.7083  -26.5544  -55.1400 H         1 UNK         0.0600 
    215 H215       -6.0515  -24.7205  -54.3667 H         1 UNK         0.3000 
    216 H216       -6.5483  -22.1317  -53.4154 H         1 UNK         0.0600 
    217 H217       -8.6487  -22.3277  -54.7596 H         1 UNK         0.0600 
    218 H218       -8.3155  -23.8048  -53.8713 H         1 UNK         0.0600 
    219 H219       -7.9883  -23.7236  -55.6036 H         1 UNK         0.0600 
    220 H220       -5.0437  -23.0568  -56.4189 H         1 UNK         0.3000 
    221 H221       -5.3572  -20.6156  -57.8921 H         1 UNK         0.0600 
    222 H222       -3.2051  -22.7989  -58.0246 H         1 UNK         0.0600 
    223 H223       -4.7041  -22.7660  -58.9547 H         1 UNK         0.0600 
    224 H224       -3.4678  -21.5514  -59.2375 H         1 UNK         0.0600 
    225 H225       -3.3916  -21.4567  -55.1341 H         1 UNK         0.3000 
    226 H226       -1.8238  -18.9209  -55.3210 H         1 UNK         0.0600 
    227 H227       -0.3529  -20.9254  -55.4182 H         1 UNK         0.0600 
    228 H228       -0.1560  -20.0939  -53.8836 H         1 UNK         0.0600 
    229 H229       -1.1062  -21.5747  -53.9652 H         1 UNK         0.0600 
    230 H230       -4.5029  -19.0234  -54.5978 H         1 UNK         0.3000 
    231 H231       -5.9503  -18.1570  -53.2237 H         1 UNK         0.0600 
    232 H232       -5.3024  -16.8150  -51.2480 H         1 UNK         0.0600 
    233 H233       -4.2879  -16.4180  -52.6274 H         1 UNK         0.0600 
    234 H234       -3.6613  -17.4255  -51.3267 H         1 UNK         0.0600 
    235 H235       -3.6344  -19.7705  -51.0489 H         1 UNK         0.3000 
    236 H236       -3.8355  -21.1169  -49.2647 H         1 UNK         0.0600 
    237 H237       -4.1837  -22.7636  -51.0526 H         1 UNK         0.0600 
    238 H238       -5.1114  -23.2247  -49.6390 H         1 UNK         0.0600 
    239 H239       -5.9266  -22.5000  -51.0199 H         1 UNK         0.0600 
    240 H240       -4.8208  -18.9575  -48.4485 H         1 UNK         0.3000 
    241 H241       -7.3707  -18.4456  -47.7424 H         1 UNK         0.0600 
    242 H242       -8.9841  -19.4923  -46.5542 H         1 UNK         0.3800 
    243 H243       -8.6672  -20.4898  -45.1636 H         1 UNK         0.3800 
    244 H244       -6.3779  -17.1494  -45.7795 H         1 UNK         0.0800 
    245 H245       -4.8562  -17.9475  -46.0983 H         1 UNK         0.0800 
    246 H246       -3.4191  -16.2360  -46.3136 H         1 UNK         0.0800 
    247 H247       -3.5667  -14.7982  -47.2726 H         1 UNK         0.0800 
@<TRIPOS>BOND
     1    1    2 1    
     2    1  127 1    
     3    1  128 1    
     4    1  129 1    
     5    2    3 2    
     6    2    4 am   BACKBONE|DICT|INTERRES
     7    4    5 1    
     8    4  130 1    
     9    5    6 1    
    10    5   65 1    
    11    5  131 1    
    12    6    7 1    
    13    6  132 1    
    14    6  133 1    
    15    7    8 1    
    16    8    9 1    
    17    8  134 1    
    18    8  135 1    
    19    9   10 ar   
    20    9   14 ar   
    21   10   11 ar   
    22   10  136 1    
    23   11   12 ar   
    24   11  126 1    
    25   12   13 ar   
    26   12  137 1    
    27   13   14 ar   
    28   13   15 1    
    29   14  138 1    
    30   15   16 1    
    31   15  139 1    
    32   15  140 1    
    33   16   17 1    
    34   17   18 1    
    35   17  141 1    
    36   17  142 1    
    37   18   19 1    
    38   18   67 1    
    39   18  143 1    
    40   19   20 am   BACKBONE|DICT|INTERRES
    41   19  144 1    
    42   20   21 2    
    43   20   22 1    
    44   22   23 1    
    45   22   24 1    
    46   22  145 1    
    47   23  146 1    
    48   23  147 1    
    49   23  148 1    
    50   24   25 am   BACKBONE|DICT|INTERRES
    51   24  149 1    
    52   25   26 2    
    53   25   27 1    
    54   27   28 1    
    55   27   29 1    
    56   27  150 1    
    57   28  151 1    
    58   28  152 1    
    59   28  153 1    
    60   29   30 am   BACKBONE|DICT|INTERRES
    61   29  154 1    
    62   30   31 2    
    63   30   32 1    
    64   32   33 1    
    65   32   34 1    
    66   32  155 1    
    67   33  156 1    
    68   33  157 1    
    69   33  158 1    
    70   34   35 am   BACKBONE|DICT|INTERRES
    71   34  159 1    
    72   35   36 2    
    73   35   37 1    
    74   37   38 1    
    75   37   39 1    
    76   37  160 1    
    77   38  161 1    
    78   38  162 1    
    79   38  163 1    
    80   39   40 am   BACKBONE|DICT|INTERRES
    81   39  164 1    
    82   40   41 2    
    83   40   42 1    
    84   42   43 1    
    85   42   44 1    
    86   42  165 1    
    87   43  166 1    
    88   43  167 1    
    89   43  168 1    
    90   44   45 am   BACKBONE|DICT|INTERRES
    91   44  169 1    
    92   45   46 2    
    93   45   47 1    
    94   47   48 1    
    95   47   49 1    
    96   47  170 1    
    97   48  171 1    
    98   48  172 1    
    99   48  173 1    
   100   49   50 am   BACKBONE|DICT|INTERRES
   101   49  174 1    
   102   50   51 2    
   103   50   52 1    
   104   52   53 1    
   105   52   54 1    
   106   52  175 1    
   107   53  176 1    
   108   53  177 1    
   109   53  178 1    
   110   54   55 am   BACKBONE|DICT|INTERRES
   111   54  179 1    
   112   55   56 2    
   113   55   57 1    
   114   57   58 1    
   115   57   59 1    
   116   57  180 1    
   117   58  181 1    
   118   58  182 1    
   119   58  183 1    
   120   59   60 am   BACKBONE|DICT|INTERRES
   121   59  184 1    
   122   60   61 2    
   123   60   62 1    
   124   62   63 1    
   125   62   64 1    
   126   62  185 1    
   127   63  186 1    
   128   63  187 1    
   129   63  188 1    
   130   64   65 am   BACKBONE|DICT|INTERRES
   131   64  189 1    
   132   65   66 2    
   133   67   68 2    
   134   67   69 am   BACKBONE|DICT|INTERRES
   135   69   70 1    
   136   69  190 1    
   137   70   71 1    
   138   70   72 1    
   139   70  191 1    
   140   71  192 1    
   141   71  193 1    
   142   71  194 1    
   143   72   73 2    
   144   72   74 am   BACKBONE|DICT|INTERRES
   145   74   75 1    
   146   74  195 1    
   147   75   76 1    
   148   75   77 1    
   149   75  196 1    
   150   76  197 1    
   151   76  198 1    
   152   76  199 1    
   153   77   78 2    
   154   77   79 am   BACKBONE|DICT|INTERRES
   155   79   80 1    
   156   79  200 1    
   157   80   81 1    
   158   80   82 1    
   159   80  201 1    
   160   81  202 1    
   161   81  203 1    
   162   81  204 1    
   163   82   83 2    
   164   82   84 am   BACKBONE|DICT|INTERRES
   165   84   85 1    
   166   84  205 1    
   167   85   86 1    
   168   85   87 1    
   169   85  206 1    
   170   86  207 1    
   171   86  208 1    
   172   86  209 1    
   173   87   88 2    
   174   87   89 am   BACKBONE|DICT|INTERRES
   175   89   90 1    
   176   89  210 1    
   177   90   91 1    
   178   90   92 1    
   179   90  211 1    
   180   91  212 1    
   181   91  213 1    
   182   91  214 1    
   183   92   93 2    
   184   92   94 am   BACKBONE|DICT|INTERRES
   185   94   95 1    
   186   94  215 1    
   187   95   96 1    
   188   95   97 1    
   189   95  216 1    
   190   96  217 1    
   191   96  218 1    
   192   96  219 1    
   193   97   98 2    
   194   97   99 am   BACKBONE|DICT|INTERRES
   195   99  100 1    
   196   99  220 1    
   197  100  101 1    
   198  100  102 1    
   199  100  221 1    
   200  101  222 1    
   201  101  223 1    
   202  101  224 1    
   203  102  103 2    
   204  102  104 am   BACKBONE|DICT|INTERRES
   205  104  105 1    
   206  104  225 1    
   207  105  106 1    
   208  105  107 1    
   209  105  226 1    
   210  106  227 1    
   211  106  228 1    
   212  106  229 1    
   213  107  108 2    
   214  107  109 am   BACKBONE|DICT|INTERRES
   215  109  110 1    
   216  109  230 1    
   217  110  111 1    
   218  110  112 1    
   219  110  231 1    
   220  111  232 1    
   221  111  233 1    
   222  111  234 1    
   223  112  113 2    
   224  112  114 am   BACKBONE|DICT|INTERRES
   225  114  115 1    
   226  114  235 1    
   227  115  116 1    
   228  115  117 1    
   229  115  236 1    
   230  116  237 1    
   231  116  238 1    
   232  116  239 1    
   233  117  118 2    
   234  117  119 am   BACKBONE|DICT|INTERRES
   235  119  120 1    
   236  119  240 1    
   237  120  121 1    
   238  120  124 1    
   239  120  241 1    
   240  121  122 am   BACKBONE|DICT|INTERRES
   241  121  123 2    
   242  122  242 1    
   243  122  243 1    
   244  124  125 1    
   245  124  244 1    
   246  124  245 1    
   247  125  126 1    
   248  126  246 1    
   249  126  247 1    
@<TRIPOS>SUBSTRUCTURE
     1 UNK         1 GROUP             0       ****    0 ROOT    
