@<TRIPOS>MOLECULE
3R540
247   249    1
SMALL
USER_CHARGES


@<TRIPOS>ATOM
      1 CA          5.5561  -18.1313  -48.2348 C.3       0 UNK        -0.1800 
      2 C           4.6071  -17.3199  -49.1030 C.2       0 UNK         0.5000 
      3 O           4.0290  -16.3377  -48.6322 O.2       0 UNK        -0.5000 
      4 N           4.4546  -17.7083  -50.3764 N.am      1 UNK        -0.5000 
      5 CA          3.4966  -17.1450  -51.3419 C.3       1 UNK         0.1400 
      6 C6          3.0567  -18.1645  -52.4279 C.3       23 UNK        -0.0398 
      7 S7          2.5333  -19.7792  -51.7442 S.3       23 UNK        -0.2404 
      8 C8          0.7608  -19.5164  -51.3970 C.3       23 UNK        -0.0205 
      9 C9          0.5207  -18.4015  -50.3882 C.ar      23 UNK        -0.0193 
     10 C10        -0.2324  -17.2785  -50.7410 C.ar      23 UNK        -0.1150 
     11 C11        -0.4445  -16.2447  -49.8239 C.ar      23 UNK        -0.0193 
     12 C12         0.1171  -16.3318  -48.5475 C.ar      23 UNK        -0.1150 
     13 C13         0.8630  -17.4535  -48.1795 C.ar      23 UNK        -0.0193 
     14 C14         1.0628  -18.4831  -49.1034 C.ar      23 UNK        -0.1150 
     15 C15         1.3969  -17.5872  -46.7630 C.3       23 UNK        -0.0205 
     16 S16         0.0650  -17.8696  -45.5471 S.3       23 UNK        -0.2404 
     17 C17        -1.0061  -19.0782  -46.3959 C.3       23 UNK        -0.0398 
     18 CA         -0.3889  -20.4900  -46.4898 C.3       11 UNK         0.1400 
     19 N          -0.0684  -21.0695  -45.1850 N.am      11 UNK        -0.5000 
     20 C           0.7011  -22.1512  -45.0037 C.2       10 UNK         0.5000 
     21 O           1.2574  -22.7533  -45.9212 O.2       10 UNK        -0.5000 
     22 CA          0.8374  -22.6712  -43.5602 C.3       10 UNK         0.1400 
     23 CB          1.9828  -21.9481  -42.8365 C.3       10 UNK        -0.1800 
     24 N          -0.3956  -22.5155  -42.7867 N.am      10 UNK        -0.5000 
     25 C          -1.5460  -23.1539  -43.0472 C.2       9 UNK         0.5000 
     26 O          -1.6696  -24.0061  -43.9268 O.2       9 UNK        -0.5000 
     27 CA         -2.7789  -22.7093  -42.2328 C.3       9 UNK         0.1400 
     28 CB         -2.8780  -23.5052  -40.9233 C.3       9 UNK        -0.1800 
     29 N          -2.7816  -21.2712  -41.9329 N.am      9 UNK        -0.5000 
     30 C          -2.7877  -20.3082  -42.8650 C.2       8 UNK         0.5000 
     31 O          -2.8407  -20.5505  -44.0727 O.2       8 UNK        -0.5000 
     32 CA         -2.6287  -18.8573  -42.3616 C.3       8 UNK         0.1400 
     33 CB         -1.2443  -18.6574  -41.7200 C.3       8 UNK        -0.1800 
     34 N          -2.7712  -17.8661  -43.4287 N.am      8 UNK        -0.5000 
     35 C          -3.9102  -17.5583  -44.0611 C.2       7 UNK         0.5000 
     36 O          -5.0076  -18.0368  -43.7669 O.2       7 UNK        -0.5000 
     37 CA         -3.7789  -16.5237  -45.2009 C.3       7 UNK         0.1400 
     38 CB         -5.1365  -16.1155  -45.8085 C.3       7 UNK        -0.1800 
     39 N          -3.0112  -15.3341  -44.8113 N.am      7 UNK        -0.5000 
     40 C          -3.3016  -14.4725  -43.8258 C.2       6 UNK         0.5000 
     41 O          -4.2487  -14.6065  -43.0486 O.2       6 UNK        -0.5000 
     42 CA         -2.3603  -13.2587  -43.6889 C.3       6 UNK         0.1400 
     43 CB         -2.8979  -12.1974  -42.7111 C.3       6 UNK        -0.1800 
     44 N          -1.0212  -13.6548  -43.2549 N.am      6 UNK        -0.5000 
     45 C          -0.0692  -14.1496  -44.0520 C.2       5 UNK         0.5000 
     46 O          -0.2316  -14.3731  -45.2561 O.2       5 UNK        -0.5000 
     47 CA          1.2885  -14.4295  -43.3924 C.3       5 UNK         0.1400 
     48 CB          1.2751  -15.7258  -42.5640 C.3       5 UNK        -0.1800 
     49 N           2.2896  -14.5140  -44.4454 N.am      5 UNK        -0.5000 
     50 C           3.5730  -14.1565  -44.3420 C.2       4 UNK         0.5000 
     51 O           4.1098  -13.8352  -43.2809 O.2       4 UNK        -0.5000 
     52 CA          4.3958  -14.1289  -45.6472 C.3       4 UNK         0.1400 
     53 CB          5.2444  -15.4028  -45.7699 C.3       4 UNK        -0.1800 
     54 N           3.5859  -13.9694  -46.8614 N.am      4 UNK        -0.5000 
     55 C           2.8690  -12.8744  -47.1624 C.2       3 UNK         0.5000 
     56 O           2.8339  -11.8670  -46.4533 O.2       3 UNK        -0.5000 
     57 CA          2.0675  -12.9282  -48.4782 C.3       3 UNK         0.1400 
     58 CB          1.3140  -11.6210  -48.8001 C.3       3 UNK        -0.1800 
     59 N           2.8947  -13.3583  -49.6080 N.am      3 UNK        -0.5000 
     60 C           3.9703  -12.7418  -50.1289 C.2       2 UNK         0.5000 
     61 O           4.3755  -11.6384  -49.7615 O.2       2 UNK        -0.5000 
     62 CA          4.7332  -13.5113  -51.2301 C.3       2 UNK         0.1400 
     63 CB          6.2477  -13.2414  -51.1891 C.3       2 UNK        -0.1800 
     64 N           4.5049  -14.9426  -51.0593 N.am      2 UNK        -0.5000 
     65 C           3.9273  -15.7788  -51.9244 C.2       1 UNK         0.5000 
     66 O           3.6943  -15.4934  -53.0997 O.2       1 UNK        -0.5000 
     67 C          -1.3173  -21.4126  -47.2937 C.2       11 UNK         0.5000 
     68 O          -1.0901  -21.6073  -48.4856 O.2       11 UNK        -0.5000 
     69 N          -2.3220  -21.9921  -46.6221 N.am      12 UNK        -0.5000 
     70 CA         -3.2290  -22.9791  -47.2055 C.3       12 UNK         0.1400 
     71 CB         -4.3784  -23.2707  -46.2309 C.3       12 UNK        -0.1800 
     72 C          -2.5029  -24.2718  -47.6217 C.2       12 UNK         0.5000 
     73 O          -2.7828  -24.8088  -48.6928 O.2       12 UNK        -0.5000 
     74 N          -1.5440  -24.7209  -46.7989 N.am      13 UNK        -0.5000 
     75 CA         -0.6519  -25.8394  -47.1060 C.3       13 UNK         0.1400 
     76 CB          0.1796  -26.2001  -45.8662 C.3       13 UNK        -0.1800 
     77 C           0.2520  -25.5533  -48.3207 C.2       13 UNK         0.5000 
     78 O           0.3443  -26.3951  -49.2147 O.2       13 UNK        -0.5000 
     79 N           0.8565  -24.3560  -48.3628 N.am      14 UNK        -0.5000 
     80 CA          1.6742  -23.8710  -49.4802 C.3       14 UNK         0.1400 
     81 CB          2.3378  -22.5416  -49.0917 C.3       14 UNK        -0.1800 
     82 C           0.8801  -23.7227  -50.7939 C.2       14 UNK         0.5000 
     83 O           1.4131  -24.0147  -51.8644 O.2       14 UNK        -0.5000 
     84 N          -0.3942  -23.3266  -50.6814 N.am      15 UNK        -0.5000 
     85 CA         -1.3647  -23.2372  -51.7733 C.3       15 UNK         0.1400 
     86 CB         -2.4493  -22.2186  -51.3869 C.3       15 UNK        -0.1800 
     87 C          -1.9863  -24.5964  -52.1695 C.2       15 UNK         0.5000 
     88 O          -2.9025  -24.6131  -52.9916 O.2       15 UNK        -0.5000 
     89 N          -1.4926  -25.7053  -51.5970 N.am      16 UNK        -0.5000 
     90 CA         -1.8745  -27.0943  -51.8700 C.3       16 UNK         0.1400 
     91 CB         -1.5145  -27.4912  -53.3176 C.3       16 UNK        -0.1800 
     92 C          -3.3385  -27.4033  -51.4965 C.2       16 UNK         0.5000 
     93 O          -4.0625  -28.0263  -52.2747 O.2       16 UNK        -0.5000 
     94 N          -3.7333  -26.9580  -50.2963 N.am      17 UNK        -0.5000 
     95 CA         -5.0351  -27.1364  -49.6430 C.3       17 UNK         0.1400 
     96 CB         -5.4406  -28.6226  -49.5480 C.3       17 UNK        -0.1800 
     97 C          -6.1576  -26.2426  -50.2063 C.2       17 UNK         0.5000 
     98 O          -7.3124  -26.4018  -49.8059 O.2       17 UNK        -0.5000 
     99 N          -5.8090  -25.2825  -51.0728 N.am      18 UNK        -0.5000 
    100 CA        -6.6640  -24.1477  -51.4192 C.3       18 UNK         0.1400 
    101 CB        -6.1605  -23.5206  -52.7274 C.3       18 UNK        -0.1800 
    102 C         -6.6486  -23.1123  -50.2787 C.2       18 UNK         0.5000 
    103 O         -5.7292  -23.1150  -49.4571 O.2       18 UNK        -0.5000 
    104 N         -7.6409  -22.2155  -50.2548 N.am      19 UNK        -0.5000 
    105 CA        -7.8104  -21.1685  -49.2398 C.3       19 UNK         0.1400 
    106 CB        -9.2810  -20.7126  -49.2475 C.3       19 UNK        -0.1800 
    107 C         -6.8214  -19.9910  -49.4099 C.2       19 UNK         0.5000 
    108 O         -7.2446  -18.8387  -49.5131 O.2       19 UNK        -0.5000 
    109 N         -5.5212  -20.3093  -49.4777 N.am      20 UNK        -0.5000 
    110 CA        -4.3363  -19.4485  -49.6202 C.3       20 UNK         0.1400 
    111 CB        -4.1937  -18.5135  -48.4067 C.3       20 UNK        -0.1800 
    112 C         -4.2362  -18.6461  -50.9367 C.2       20 UNK         0.5000 
    113 O         -3.1233  -18.3913  -51.3906 O.2       20 UNK        -0.5000 
    114 N         -5.3804  -18.2697  -51.5229 N.am      21 UNK        -0.5000 
    115 CA        -5.5528  -17.3703  -52.6694 C.3       21 UNK         0.1400 
    116 CB        -4.8420  -17.9014  -53.9327 C.3       21 UNK        -0.1800 
    117 C         -5.1928  -15.9084  -52.3238 C.2       21 UNK         0.5000 
    118 O         -4.6947  -15.1690  -53.1747 O.2       21 UNK        -0.5000 
    119 N         -5.4819  -15.5143  -51.0798 N.am      22 UNK        -0.5000 
    120 CA        -5.2985  -14.1712  -50.5188 C.3       22 UNK         0.1400 
    121 C         -6.1836  -13.9720  -49.2573 C.2       22 UNK         0.5000 
    122 N         -6.2706  -12.7563  -48.7339 N.am      22 UNK        -0.7600 
    123 O         -6.8074  -14.9030  -48.7514 O.2       22 UNK        -0.5000 
    124 C124       -3.8068  -13.7938  -50.2874 C.3       23 UNK        -0.0398 
    125 S125       -2.8666  -15.0124  -49.3005 S.3       23 UNK        -0.2404 
    126 C126       -1.2899  -15.0426  -50.2109 C.3       23 UNK        -0.0205 
    127 H127        5.9397  -19.0050  -48.7619 H         1 UNK         0.0600 
    128 H128        5.0390  -18.4748  -47.3389 H         1 UNK         0.0600 
    129 H129        6.4024  -17.5172  -47.9284 H         1 UNK         0.0600 
    130 H130        4.9746  -18.5071  -50.7098 H         1 UNK         0.3000 
    131 H131        2.6041  -16.8907  -50.7744 H         1 UNK         0.0600 
    132 H132        2.2383  -17.7599  -53.0260 H         1 UNK         0.0800 
    133 H133        3.8781  -18.3488  -53.1219 H         1 UNK         0.0800 
    134 H134        0.2357  -19.3180  -52.3326 H         1 UNK         0.0800 
    135 H135        0.3410  -20.4409  -50.9987 H         1 UNK         0.0800 
    136 H136       -0.6671  -17.2155  -51.7287 H         1 UNK         0.1150 
    137 H137       -0.0644  -15.5493  -47.8241 H         1 UNK         0.1150 
    138 H138        1.6452  -19.3503  -48.8290 H         1 UNK         0.1150 
    139 H139        2.1155  -18.4055  -46.6989 H         1 UNK         0.0800 
    140 H140        1.9430  -16.6827  -46.4945 H         1 UNK         0.0800 
    141 H141       -1.2592  -18.7018  -47.3869 H         1 UNK         0.0800 
    142 H142       -1.9555  -19.1089  -45.8676 H         1 UNK         0.0800 
    143 H143        0.5455  -20.4147  -47.0469 H         1 UNK         0.0600 
    144 H144       -0.5370  -20.6609  -44.3907 H         1 UNK         0.3000 
    145 H145        1.0770  -23.7354  -43.6086 H         1 UNK         0.0600 
    146 H146        2.9214  -22.0630  -43.3805 H         1 UNK         0.0600 
    147 H147        1.7885  -20.8790  -42.7396 H         1 UNK         0.0600 
    148 H148        2.1364  -22.3541  -41.8365 H         1 UNK         0.0600 
    149 H149       -0.3819  -21.8376  -42.0395 H         1 UNK         0.3000 
    150 H150       -3.6648  -22.9265  -42.8331 H         1 UNK         0.0600 
    151 H151       -3.7909  -23.2596  -40.3806 H         1 UNK         0.0600 
    152 H152       -2.0313  -23.3070  -40.2650 H         1 UNK         0.0600 
    153 H153       -2.8972  -24.5781  -41.1198 H         1 UNK         0.0600 
    154 H154       -2.7379  -21.0138  -40.9573 H         1 UNK         0.3000 
    155 H155       -3.3998  -18.6714  -41.6114 H         1 UNK         0.0600 
    156 H156       -1.0959  -19.3227  -40.8689 H         1 UNK         0.0600 
    157 H157       -1.1278  -17.6388  -41.3495 H         1 UNK         0.0600 
    158 H158       -0.4386  -18.8471  -42.4308 H         1 UNK         0.0600 
    159 H159       -1.9181  -17.4343  -43.7527 H         1 UNK         0.3000 
    160 H160       -3.2046  -17.0082  -45.9908 H         1 UNK         0.0600 
    161 H161       -5.6840  -16.9863  -46.1701 H         1 UNK         0.0600 
    162 H162       -4.9982  -15.4458  -46.6572 H         1 UNK         0.0600 
    163 H163       -5.7741  -15.6107  -45.0826 H         1 UNK         0.0600 
    164 H164       -2.1674  -15.1531  -45.3460 H         1 UNK         0.3000 
    165 H165       -2.2911  -12.7899  -44.6732 H         1 UNK         0.0600 
    166 H166       -2.2515  -11.3199  -42.6883 H         1 UNK         0.0600 
    167 H167       -3.8910  -11.8588  -43.0091 H         1 UNK         0.0600 
    168 H168       -2.9732  -12.5847  -41.6942 H         1 UNK         0.0600 
    169 H169       -0.8209  -13.5317  -42.2729 H         1 UNK         0.3000 
    170 H170        1.5219  -13.5855  -42.7396 H         1 UNK         0.0600 
    171 H171        2.2346  -15.8867  -42.0725 H         1 UNK         0.0600 
    172 H172        0.5148  -15.6870  -41.7836 H         1 UNK         0.0600 
    173 H173        1.0698  -16.5992  -43.1804 H         1 UNK         0.0600 
    174 H174        1.9031  -14.7071  -45.3603 H         1 UNK         0.3000 
    175 H175        5.0732  -13.2748  -45.5857 H         1 UNK         0.0600 
    176 H176        4.6199  -16.2928  -45.8558 H         1 UNK         0.0600 
    177 H177        5.8937  -15.3596  -46.6443 H         1 UNK         0.0600 
    178 H178        5.8848  -15.5337  -44.8968 H         1 UNK         0.0600 
    179 H179        3.5961  -14.7516  -47.5099 H         1 UNK         0.3000 
    180 H180        1.3150  -13.7034  -48.3376 H         1 UNK         0.0600 
    181 H181        0.7414  -11.7139  -49.7228 H         1 UNK         0.0600 
    182 H182        1.9917  -10.7740  -48.9088 H         1 UNK         0.0600 
    183 H183        0.6092  -11.3746  -48.0051 H         1 UNK         0.0600 
    184 H184        2.6689  -14.2700  -49.9775 H         1 UNK         0.3000 
    185 H185        4.3410  -13.1722  -52.1908 H         1 UNK         0.0600 
    186 H186        6.6767  -13.5102  -50.2230 H         1 UNK         0.0600 
    187 H187        6.7689  -13.8125  -51.9575 H         1 UNK         0.0600 
    188 H188        6.4650  -12.1875  -51.3664 H         1 UNK         0.0600 
    189 H189        4.6169  -15.2910  -50.1109 H         1 UNK         0.3000 
    190 H190       -2.4687  -21.7416  -45.6493 H         1 UNK         0.3000 
    191 H191       -3.6498  -22.5330  -48.1066 H         1 UNK         0.0600 
    192 H192       -4.0199  -23.7179  -45.3038 H         1 UNK         0.0600 
    193 H193       -5.0954  -23.9620  -46.6758 H         1 UNK         0.0600 
    194 H194       -4.9198  -22.3590  -45.9777 H         1 UNK         0.0600 
    195 H195       -1.4171  -24.2648  -45.9012 H         1 UNK         0.3000 
    196 H196       -1.2758  -26.7009  -47.3535 H         1 UNK         0.0600 
    197 H197        0.8191  -27.0613  -46.0635 H         1 UNK         0.0600 
    198 H198       -0.4620  -26.4569  -45.0230 H         1 UNK         0.0600 
    199 H199        0.8241  -25.3781  -45.5562 H         1 UNK         0.0600 
    200 H200        0.7673  -23.7333  -47.5654 H         1 UNK         0.3000 
    201 H201        2.4635  -24.6053  -49.6533 H         1 UNK         0.0600 
    202 H202        2.9435  -22.6489  -48.1919 H         1 UNK         0.0600 
    203 H203        1.5980  -21.7633  -48.9074 H         1 UNK         0.0600 
    204 H204        2.9960  -22.1883  -49.8859 H         1 UNK         0.0600 
    205 H205       -0.7266  -23.0343  -49.7668 H         1 UNK         0.3000 
    206 H206       -0.8504  -22.8544  -52.6569 H         1 UNK         0.0600 
    207 H207       -3.1236  -22.0242  -52.2206 H         1 UNK         0.0600 
    208 H208       -3.0494  -22.5707  -50.5472 H         1 UNK         0.0600 
    209 H209       -2.0070  -21.2620  -51.1095 H         1 UNK         0.0600 
    210 H210       -0.7714  -25.5920  -50.8949 H         1 UNK         0.3000 
    211 H211       -1.2625  -27.7076  -51.2072 H         1 UNK         0.0600 
    212 H212       -2.1215  -26.9582  -54.0498 H         1 UNK         0.0600 
    213 H213       -1.6716  -28.5582  -53.4794 H         1 UNK         0.0600 
    214 H214       -0.4668  -27.2820  -53.5340 H         1 UNK         0.0600 
    215 H215       -3.0969  -26.3545  -49.7801 H         1 UNK         0.3000 
    216 H216       -4.8828  -26.7862  -48.6211 H         1 UNK         0.0600 
    217 H217       -6.2981  -28.7500  -48.8863 H         1 UNK         0.0600 
    218 H218       -4.6296  -29.2292  -49.1450 H         1 UNK         0.0600 
    219 H219       -5.7202  -29.0328  -50.5184 H         1 UNK         0.0600 
    220 H220       -4.8339  -25.2037  -51.3252 H         1 UNK         0.3000 
    221 H221       -7.6880  -24.4970  -51.5669 H         1 UNK         0.0600 
    222 H222       -5.1603  -23.1043  -52.6142 H         1 UNK         0.0600 
    223 H223       -6.1258  -24.2570  -53.5306 H         1 UNK         0.0600 
    224 H224       -6.8157  -22.7126  -53.0547 H         1 UNK         0.0600 
    225 H225       -8.3411  -22.2445  -50.9819 H         1 UNK         0.3000 
    226 H226       -7.6098  -21.6051  -48.2590 H         1 UNK         0.0600 
    227 H227       -9.9543  -21.5491  -49.0595 H         1 UNK         0.0600 
    228 H228       -9.4659  -19.9703  -48.4699 H         1 UNK         0.0600 
    229 H229       -9.5589  -20.2654  -50.2026 H         1 UNK         0.0600 
    230 H230       -5.3225  -21.3062  -49.4310 H         1 UNK         0.3000 
    231 H231       -3.4807  -20.1242  -49.6042 H         1 UNK         0.0600 
    232 H232       -5.0065  -17.7886  -48.3600 H         1 UNK         0.0600 
    233 H233       -4.1826  -19.0744  -47.4720 H         1 UNK         0.0600 
    234 H234       -3.2627  -17.9486  -48.4624 H         1 UNK         0.0600 
    235 H235       -6.2305  -18.4975  -51.0134 H         1 UNK         0.3000 
    236 H236       -6.6227  -17.3685  -52.8817 H         1 UNK         0.0600 
    237 H237       -3.7572  -17.8323  -53.8514 H         1 UNK         0.0600 
    238 H238       -5.1001  -18.9431  -54.1230 H         1 UNK         0.0600 
    239 H239       -5.1363  -17.3280  -54.8124 H         1 UNK         0.0600 
    240 H240       -5.9124  -16.1679  -50.4384 H         1 UNK         0.3000 
    241 H241       -5.7040  -13.4755  -51.2557 H         1 UNK         0.0600 
    242 H242       -6.8483  -12.6199  -47.9192 H         1 UNK         0.3800 
    243 H243       -5.7898  -11.9661  -49.1345 H         1 UNK         0.3800 
    244 H244       -3.3267  -13.6744  -51.2588 H         1 UNK         0.0800 
    245 H245       -3.7169  -12.8192  -49.8065 H         1 UNK         0.0800 
    246 H246       -0.7374  -14.1236  -50.0113 H         1 UNK         0.0800 
    247 H247       -1.4899  -15.0616  -51.2833 H         1 UNK         0.0800 
@<TRIPOS>BOND
     1    1    2 1    
     2    1  127 1    
     3    1  128 1    
     4    1  129 1    
     5    2    3 2    
     6    2    4 am   BACKBONE|DICT|INTERRES
     7    4    5 1    
     8    4  130 1    
     9    5    6 1    
    10    5   65 1    
    11    5  131 1    
    12    6    7 1    
    13    6  132 1    
    14    6  133 1    
    15    7    8 1    
    16    8    9 1    
    17    8  134 1    
    18    8  135 1    
    19    9   10 ar   
    20    9   14 ar   
    21   10   11 ar   
    22   10  136 1    
    23   11   12 ar   
    24   11  126 1    
    25   12   13 ar   
    26   12  137 1    
    27   13   14 ar   
    28   13   15 1    
    29   14  138 1    
    30   15   16 1    
    31   15  139 1    
    32   15  140 1    
    33   16   17 1    
    34   17   18 1    
    35   17  141 1    
    36   17  142 1    
    37   18   19 1    
    38   18   67 1    
    39   18  143 1    
    40   19   20 am   BACKBONE|DICT|INTERRES
    41   19  144 1    
    42   20   21 2    
    43   20   22 1    
    44   22   23 1    
    45   22   24 1    
    46   22  145 1    
    47   23  146 1    
    48   23  147 1    
    49   23  148 1    
    50   24   25 am   BACKBONE|DICT|INTERRES
    51   24  149 1    
    52   25   26 2    
    53   25   27 1    
    54   27   28 1    
    55   27   29 1    
    56   27  150 1    
    57   28  151 1    
    58   28  152 1    
    59   28  153 1    
    60   29   30 am   BACKBONE|DICT|INTERRES
    61   29  154 1    
    62   30   31 2    
    63   30   32 1    
    64   32   33 1    
    65   32   34 1    
    66   32  155 1    
    67   33  156 1    
    68   33  157 1    
    69   33  158 1    
    70   34   35 am   BACKBONE|DICT|INTERRES
    71   34  159 1    
    72   35   36 2    
    73   35   37 1    
    74   37   38 1    
    75   37   39 1    
    76   37  160 1    
    77   38  161 1    
    78   38  162 1    
    79   38  163 1    
    80   39   40 am   BACKBONE|DICT|INTERRES
    81   39  164 1    
    82   40   41 2    
    83   40   42 1    
    84   42   43 1    
    85   42   44 1    
    86   42  165 1    
    87   43  166 1    
    88   43  167 1    
    89   43  168 1    
    90   44   45 am   BACKBONE|DICT|INTERRES
    91   44  169 1    
    92   45   46 2    
    93   45   47 1    
    94   47   48 1    
    95   47   49 1    
    96   47  170 1    
    97   48  171 1    
    98   48  172 1    
    99   48  173 1    
   100   49   50 am   BACKBONE|DICT|INTERRES
   101   49  174 1    
   102   50   51 2    
   103   50   52 1    
   104   52   53 1    
   105   52   54 1    
   106   52  175 1    
   107   53  176 1    
   108   53  177 1    
   109   53  178 1    
   110   54   55 am   BACKBONE|DICT|INTERRES
   111   54  179 1    
   112   55   56 2    
   113   55   57 1    
   114   57   58 1    
   115   57   59 1    
   116   57  180 1    
   117   58  181 1    
   118   58  182 1    
   119   58  183 1    
   120   59   60 am   BACKBONE|DICT|INTERRES
   121   59  184 1    
   122   60   61 2    
   123   60   62 1    
   124   62   63 1    
   125   62   64 1    
   126   62  185 1    
   127   63  186 1    
   128   63  187 1    
   129   63  188 1    
   130   64   65 am   BACKBONE|DICT|INTERRES
   131   64  189 1    
   132   65   66 2    
   133   67   68 2    
   134   67   69 am   BACKBONE|DICT|INTERRES
   135   69   70 1    
   136   69  190 1    
   137   70   71 1    
   138   70   72 1    
   139   70  191 1    
   140   71  192 1    
   141   71  193 1    
   142   71  194 1    
   143   72   73 2    
   144   72   74 am   BACKBONE|DICT|INTERRES
   145   74   75 1    
   146   74  195 1    
   147   75   76 1    
   148   75   77 1    
   149   75  196 1    
   150   76  197 1    
   151   76  198 1    
   152   76  199 1    
   153   77   78 2    
   154   77   79 am   BACKBONE|DICT|INTERRES
   155   79   80 1    
   156   79  200 1    
   157   80   81 1    
   158   80   82 1    
   159   80  201 1    
   160   81  202 1    
   161   81  203 1    
   162   81  204 1    
   163   82   83 2    
   164   82   84 am   BACKBONE|DICT|INTERRES
   165   84   85 1    
   166   84  205 1    
   167   85   86 1    
   168   85   87 1    
   169   85  206 1    
   170   86  207 1    
   171   86  208 1    
   172   86  209 1    
   173   87   88 2    
   174   87   89 am   BACKBONE|DICT|INTERRES
   175   89   90 1    
   176   89  210 1    
   177   90   91 1    
   178   90   92 1    
   179   90  211 1    
   180   91  212 1    
   181   91  213 1    
   182   91  214 1    
   183   92   93 2    
   184   92   94 am   BACKBONE|DICT|INTERRES
   185   94   95 1    
   186   94  215 1    
   187   95   96 1    
   188   95   97 1    
   189   95  216 1    
   190   96  217 1    
   191   96  218 1    
   192   96  219 1    
   193   97   98 2    
   194   97   99 am   BACKBONE|DICT|INTERRES
   195   99  100 1    
   196   99  220 1    
   197  100  101 1    
   198  100  102 1    
   199  100  221 1    
   200  101  222 1    
   201  101  223 1    
   202  101  224 1    
   203  102  103 2    
   204  102  104 am   BACKBONE|DICT|INTERRES
   205  104  105 1    
   206  104  225 1    
   207  105  106 1    
   208  105  107 1    
   209  105  226 1    
   210  106  227 1    
   211  106  228 1    
   212  106  229 1    
   213  107  108 2    
   214  107  109 am   BACKBONE|DICT|INTERRES
   215  109  110 1    
   216  109  230 1    
   217  110  111 1    
   218  110  112 1    
   219  110  231 1    
   220  111  232 1    
   221  111  233 1    
   222  111  234 1    
   223  112  113 2    
   224  112  114 am   BACKBONE|DICT|INTERRES
   225  114  115 1    
   226  114  235 1    
   227  115  116 1    
   228  115  117 1    
   229  115  236 1    
   230  116  237 1    
   231  116  238 1    
   232  116  239 1    
   233  117  118 2    
   234  117  119 am   BACKBONE|DICT|INTERRES
   235  119  120 1    
   236  119  240 1    
   237  120  121 1    
   238  120  124 1    
   239  120  241 1    
   240  121  122 am   BACKBONE|DICT|INTERRES
   241  121  123 2    
   242  122  242 1    
   243  122  243 1    
   244  124  125 1    
   245  124  244 1    
   246  124  245 1    
   247  125  126 1    
   248  126  246 1    
   249  126  247 1    
@<TRIPOS>SUBSTRUCTURE
     1 UNK         1 GROUP             0       ****    0 ROOT    
