@<TRIPOS>MOLECULE
3R540
247   249    1
SMALL
USER_CHARGES


@<TRIPOS>ATOM
      1 CA          4.6670  -11.9659  -48.3517 C.3       0 UNK        -0.1800 
      2 C           3.5957  -12.3516  -47.3416 C.2       0 UNK         0.5000 
      3 O           3.9114  -12.5624  -46.1714 O.2       0 UNK        -0.5000 
      4 N           2.3407  -12.4497  -47.7979 N.am      1 UNK        -0.5000 
      5 CA          1.1576  -12.7867  -46.9999 C.3       1 UNK         0.1400 
      6 C6         -0.0829  -13.0599  -47.8902 C.3       23 UNK        -0.0398 
      7 S7          0.2037  -14.3279  -49.1759 S.3       23 UNK        -0.2404 
      8 C8         -0.8188  -15.7041  -48.5722 C.3       23 UNK        -0.0205 
      9 C9         -0.8756  -16.8410  -49.5834 C.ar      23 UNK        -0.0193 
     10 C10        -2.0099  -17.0288  -50.3808 C.ar      23 UNK        -0.1150 
     11 C11        -2.0599  -18.0743  -51.3087 C.ar      23 UNK        -0.0193 
     12 C12        -0.9628  -18.9305  -51.4373 C.ar      23 UNK        -0.1150 
     13 C13         0.1756  -18.7545  -50.6495 C.ar      23 UNK        -0.0193 
     14 C14         0.2099  -17.7102  -49.7212 C.ar      23 UNK        -0.1150 
     15 C15         1.3775  -19.6711  -50.8356 C.3       23 UNK        -0.0205 
     16 S16         1.1376  -21.3095  -50.0749 S.3       23 UNK        -0.2404 
     17 C17         1.1832  -20.8861  -48.3013 C.3       23 UNK        -0.0398 
     18 CA          0.0327  -21.4881  -47.4592 C.3       11 UNK         0.1400 
     19 N           0.2242  -21.1921  -46.0374 N.am      11 UNK        -0.5000 
     20 C          -0.3583  -21.8548  -45.0283 C.2       10 UNK         0.5000 
     21 O          -1.0903  -22.8300  -45.1887 O.2       10 UNK        -0.5000 
     22 CA         -0.1214  -21.3037  -43.6069 C.3       10 UNK         0.1400 
     23 CB          1.1621  -21.8934  -43.0059 C.3       10 UNK        -0.1800 
     24 N          -0.0438  -19.8411  -43.5800 N.am      10 UNK        -0.5000 
     25 C          -1.0697  -19.0323  -43.8854 C.2       9 UNK         0.5000 
     26 O          -2.2106  -19.4431  -44.0880 O.2       9 UNK        -0.5000 
     27 CA         -0.7729  -17.5309  -44.0672 C.3       9 UNK         0.1400 
     28 CB         -1.3043  -16.7154  -42.8859 C.3       9 UNK        -0.1800 
     29 N           0.6457  -17.2368  -44.3016 N.am      9 UNK        -0.5000 
     30 C           1.2822  -17.5820  -45.4308 C.2       8 UNK         0.5000 
     31 O           0.7230  -18.2149  -46.3270 O.2       8 UNK        -0.5000 
     32 CA          2.7771  -17.2420  -45.6006 C.3       8 UNK         0.1400 
     33 CB          3.0446  -16.4979  -46.9220 C.3       8 UNK        -0.1800 
     34 N           3.4221  -16.5459  -44.4861 N.am      8 UNK        -0.5000 
     35 C           3.1729  -15.3287  -43.9859 C.2       7 UNK         0.5000 
     36 O           2.2152  -14.6243  -44.3106 O.2       7 UNK        -0.5000 
     37 CA          4.1597  -14.8641  -42.8998 C.3       7 UNK         0.1400 
     38 CB          3.7491  -13.5317  -42.2562 C.3       7 UNK        -0.1800 
     39 N           4.2649  -15.8907  -41.8649 N.am      7 UNK        -0.5000 
     40 C           5.2297  -16.8160  -41.7766 C.2       6 UNK         0.5000 
     41 O           6.1934  -16.8651  -42.5410 O.2       6 UNK        -0.5000 
     42 CA          5.0874  -17.8868  -40.6759 C.3       6 UNK         0.1400 
     43 CB          5.9984  -17.5537  -39.4845 C.3       6 UNK        -0.1800 
     44 N           3.7157  -18.0444  -40.1904 N.am      6 UNK        -0.5000 
     45 C           2.7116  -18.6070  -40.8775 C.2       5 UNK         0.5000 
     46 O           2.8266  -19.0959  -42.0020 O.2       5 UNK        -0.5000 
     47 CA          1.3250  -18.5469  -40.2092 C.3       5 UNK         0.1400 
     48 CB          1.1525  -19.6989  -39.2086 C.3       5 UNK        -0.1800 
     49 N           1.0530  -17.2694  -39.5367 N.am      5 UNK        -0.5000 
     50 C           1.0682  -16.0742  -40.1422 C.2       4 UNK         0.5000 
     51 O           1.3789  -15.9180  -41.3242 O.2       4 UNK        -0.5000 
     52 CA          0.7146  -14.8465  -39.2874 C.3       4 UNK         0.1400 
     53 CB          1.9858  -14.2137  -38.7017 C.3       4 UNK        -0.1800 
     54 N           0.0071  -13.8502  -40.0909 N.am      4 UNK        -0.5000 
     55 C          -1.2556  -13.9738  -40.5114 C.2       3 UNK         0.5000 
     56 O          -1.9934  -14.8951  -40.1587 O.2       3 UNK        -0.5000 
     57 CA         -1.8106  -12.9122  -41.4841 C.3       3 UNK         0.1400 
     58 CB         -2.4809  -11.7646  -40.7047 C.3       3 UNK        -0.1800 
     59 N          -0.8851  -12.3813  -42.5003 N.am      3 UNK        -0.5000 
     60 C           0.2061  -11.6204  -42.3353 C.2       2 UNK         0.5000 
     61 O           0.7361  -11.4024  -41.2448 O.2       2 UNK        -0.5000 
     62 CA          0.7661  -10.9713  -43.6123 C.3       2 UNK         0.1400 
     63 CB          2.0405  -10.1355  -43.3774 C.3       2 UNK        -0.1800 
     64 N           0.9757  -11.9531  -44.6803 N.am      2 UNK        -0.5000 
     65 C           0.8604  -11.6639  -45.9835 C.2       1 UNK         0.5000 
     66 O           0.5352  -10.5519  -46.4076 O.2       1 UNK        -0.5000 
     67 C          -1.3744  -21.0508  -47.9262 C.2       11 UNK         0.5000 
     68 O          -2.0008  -21.7662  -48.7107 O.2       11 UNK        -0.5000 
     69 N          -1.8768  -19.9314  -47.3811 N.am      12 UNK        -0.5000 
     70 CA         -3.2492  -19.4639  -47.5881 C.3       12 UNK         0.1400 
     71 CB         -3.4232  -18.0486  -47.0184 C.3       12 UNK        -0.1800 
     72 C          -4.2866  -20.4239  -46.9776 C.2       12 UNK         0.5000 
     73 O          -5.2700  -20.7542  -47.6384 O.2       12 UNK        -0.5000 
     74 N          -4.0274  -20.8937  -45.7481 N.am      13 UNK        -0.5000 
     75 CA         -4.8411  -21.8834  -45.0357 C.3       13 UNK         0.1400 
     76 CB         -4.3323  -22.0214  -43.5932 C.3       13 UNK        -0.1800 
     77 C          -4.8711  -23.2552  -45.7369 C.2       13 UNK         0.5000 
     78 O          -5.9124  -23.9118  -45.7464 O.2       13 UNK        -0.5000 
     79 N          -3.7442  -23.6381  -46.3523 N.am      14 UNK        -0.5000 
     80 CA         -3.6104  -24.8157  -47.2126 C.3       14 UNK         0.1400 
     81 CB         -2.1217  -25.1852  -47.3175 C.3       14 UNK        -0.1800 
     82 C          -4.2146  -24.6227  -48.6201 C.2       14 UNK         0.5000 
     83 O          -4.2048  -25.5714  -49.4053 O.2       14 UNK        -0.5000 
     84 N          -4.6912  -23.4079  -48.9344 N.am      15 UNK        -0.5000 
     85 CA         -5.2686  -22.9705  -50.2080 C.3       15 UNK         0.1400 
     86 CB         -6.6494  -23.6214  -50.4259 C.3       15 UNK        -0.1800 
     87 C          -4.3102  -23.1804  -51.3964 C.2       15 UNK         0.5000 
     88 O          -4.7281  -23.6640  -52.4501 O.2       15 UNK        -0.5000 
     89 N          -3.0227  -22.8674  -51.1820 N.am      16 UNK        -0.5000 
     90 CA         -1.9012  -23.0694  -52.1086 C.3       16 UNK         0.1400 
     91 CB         -2.0758  -22.1892  -53.3652 C.3       16 UNK        -0.1800 
     92 C          -1.6742  -24.5496  -52.4891 C.2       16 UNK         0.5000 
     93 O          -1.0991  -24.8198  -53.5430 O.2       16 UNK        -0.5000 
     94 N          -2.1911  -25.4850  -51.6747 N.am      17 UNK        -0.5000 
     95 CA         -2.3053  -26.9237  -51.9473 C.3       17 UNK         0.1400 
     96 CB         -0.9142  -27.5905  -51.9569 C.3       17 UNK        -0.1800 
     97 C          -3.1302  -27.2310  -53.2205 C.2       17 UNK         0.5000 
     98 O          -2.9024  -28.2543  -53.8673 O.2       17 UNK        -0.5000 
     99 N          -4.0533  -26.3182  -53.5678 N.am      18 UNK        -0.5000 
    100 CA        -4.8804  -26.2797  -54.7775 C.3       18 UNK         0.1400 
    101 CB        -5.8279  -27.4955  -54.8431 C.3       18 UNK        -0.1800 
    102 C         -4.0822  -26.0734  -56.0855 C.2       18 UNK         0.5000 
    103 O         -4.6305  -26.2960  -57.1663 O.2       18 UNK        -0.5000 
    104 N         -2.8188  -25.6296  -55.9886 N.am      19 UNK        -0.5000 
    105 CA        -1.9507  -25.3498  -57.1373 C.3       19 UNK         0.1400 
    106 CB        -0.4824  -25.4481  -56.6953 C.3       19 UNK        -0.1800 
    107 C         -2.2269  -23.9781  -57.7862 C.2       19 UNK         0.5000 
    108 O         -1.7383  -23.7240  -58.8882 O.2       19 UNK        -0.5000 
    109 N         -2.9934  -23.1213  -57.1033 N.am      20 UNK        -0.5000 
    110 CA        -3.4182  -21.8026  -57.5554 C.3       20 UNK         0.1400 
    111 CB        -2.4342  -20.7427  -57.0306 C.3       20 UNK        -0.1800 
    112 C         -4.8378  -21.5388  -57.0367 C.2       20 UNK         0.5000 
    113 O         -5.2748  -22.1880  -56.0809 O.2       20 UNK        -0.5000 
    114 N         -5.5229  -20.5665  -57.6511 N.am      21 UNK        -0.5000 
    115 CA        -6.8697  -20.1095  -57.2947 C.3       21 UNK         0.1400 
    116 CB        -7.4948  -19.4146  -58.5181 C.3       21 UNK        -0.1800 
    117 C         -6.8590  -19.2102  -56.0385 C.2       21 UNK         0.5000 
    118 O         -7.2358  -18.0383  -56.1008 O.2       21 UNK        -0.5000 
    119 N         -6.3832  -19.7774  -54.9271 N.am      22 UNK        -0.5000 
    120 CA        -6.2873  -19.1526  -53.6038 C.3       22 UNK         0.1400 
    121 C         -7.6786  -18.8489  -52.9782 C.2       22 UNK         0.5000 
    122 N         -7.8272  -17.7263  -52.2887 N.am      22 UNK        -0.7600 
    123 O         -8.6140  -19.6393  -53.0852 O.2       22 UNK        -0.5000 
    124 C124       -5.4216  -20.0404  -52.6765 C.3       23 UNK        -0.0398 
    125 S125       -4.6181  -19.1347  -51.3130 S.3       23 UNK        -0.2404 
    126 C126       -3.2819  -18.2666  -52.1936 C.3       23 UNK        -0.0205 
    127 H127        5.1554  -11.0408  -48.0455 H         1 UNK         0.0600 
    128 H128        4.2511  -11.8174  -49.3486 H         1 UNK         0.0600 
    129 H129        5.4235  -12.7484  -48.4123 H         1 UNK         0.0600 
    130 H130        2.1563  -12.2590  -48.7720 H         1 UNK         0.3000 
    131 H131        1.3713  -13.7024  -46.4538 H         1 UNK         0.0600 
    132 H132       -0.3931  -12.1475  -48.4030 H         1 UNK         0.0800 
    133 H133       -0.9310  -13.3569  -47.2710 H         1 UNK         0.0800 
    134 H134       -1.8249  -15.3383  -48.3622 H         1 UNK         0.0800 
    135 H135       -0.4142  -16.0693  -47.6275 H         1 UNK         0.0800 
    136 H136       -2.8548  -16.3619  -50.2821 H         1 UNK         0.1150 
    137 H137       -0.9811  -19.7316  -52.1593 H         1 UNK         0.1150 
    138 H138        1.0865  -17.5614  -49.1104 H         1 UNK         0.1150 
    139 H139        1.5619  -19.8057  -51.9024 H         1 UNK         0.0800 
    140 H140        2.2800  -19.2111  -50.4297 H         1 UNK         0.0800 
    141 H141        2.1386  -21.2409  -47.9128 H         1 UNK         0.0800 
    142 H142        1.2083  -19.8050  -48.1891 H         1 UNK         0.0800 
    143 H143        0.0823  -22.5726  -47.5768 H         1 UNK         0.0600 
    144 H144        0.7491  -20.3535  -45.8283 H         1 UNK         0.3000 
    145 H145       -0.9636  -21.6124  -42.9842 H         1 UNK         0.0600 
    146 H146        1.2920  -21.5796  -41.9707 H         1 UNK         0.0600 
    147 H147        1.1322  -22.9838  -43.0128 H         1 UNK         0.0600 
    148 H148        2.0478  -21.5840  -43.5624 H         1 UNK         0.0600 
    149 H149        0.8665  -19.4330  -43.4135 H         1 UNK         0.3000 
    150 H150       -1.3183  -17.2014  -44.9537 H         1 UNK         0.0600 
    151 H151       -0.9397  -17.0968  -41.9343 H         1 UNK         0.0600 
    152 H152       -2.3936  -16.7533  -42.8483 H         1 UNK         0.0600 
    153 H153       -1.0165  -15.6676  -42.9691 H         1 UNK         0.0600 
    154 H154        1.1363  -16.7027  -43.5941 H         1 UNK         0.3000 
    155 H155        3.2868  -18.2042  -45.6644 H         1 UNK         0.0600 
    156 H156        2.8188  -17.1332  -47.7771 H         1 UNK         0.0600 
    157 H157        4.0910  -16.2058  -47.0108 H         1 UNK         0.0600 
    158 H158        2.4381  -15.5988  -47.0120 H         1 UNK         0.0600 
    159 H159        4.2037  -17.0418  -44.0798 H         1 UNK         0.3000 
    160 H160        5.1272  -14.7122  -43.3826 H         1 UNK         0.0600 
    161 H161        2.7345  -13.5647  -41.8587 H         1 UNK         0.0600 
    162 H162        3.7891  -12.7386  -43.0008 H         1 UNK         0.0600 
    163 H163        4.4235  -13.2540  -41.4463 H         1 UNK         0.0600 
    164 H164        3.4438  -15.9892  -41.2804 H         1 UNK         0.3000 
    165 H165        5.4116  -18.8393  -41.1005 H         1 UNK         0.0600 
    166 H166        5.9618  -18.3378  -38.7280 H         1 UNK         0.0600 
    167 H167        7.0379  -17.4588  -39.8015 H         1 UNK         0.0600 
    168 H168        5.7129  -16.6140  -39.0099 H         1 UNK         0.0600 
    169 H169        3.5133  -17.6608  -39.2789 H         1 UNK         0.3000 
    170 H170        0.5794  -18.6716  -40.9957 H         1 UNK         0.0600 
    171 H171        1.3449  -20.6624  -39.6818 H         1 UNK         0.0600 
    172 H172        1.8369  -19.6064  -38.3644 H         1 UNK         0.0600 
    173 H173        0.1362  -19.7300  -38.8153 H         1 UNK         0.0600 
    174 H174        0.7980  -17.3212  -38.5607 H         1 UNK         0.3000 
    175 H175        0.0676  -15.1585  -38.4651 H         1 UNK         0.0600 
    176 H176        2.6705  -13.8809  -39.4817 H         1 UNK         0.0600 
    177 H177        1.7446  -13.3510  -38.0805 H         1 UNK         0.0600 
    178 H178        2.5244  -14.9249  -38.0743 H         1 UNK         0.0600 
    179 H179        0.5388  -13.0534  -40.4305 H         1 UNK         0.3000 
    180 H180       -2.5956  -13.4132  -42.0530 H         1 UNK         0.0600 
    181 H181       -1.7616  -11.2060  -40.1050 H         1 UNK         0.0600 
    182 H182       -3.2426  -12.1478  -40.0243 H         1 UNK         0.0600 
    183 H183       -2.9726  -11.0634  -41.3791 H         1 UNK         0.0600 
    184 H184       -1.1849  -12.5328  -43.4531 H         1 UNK         0.3000 
    185 H185       -0.0143  -10.2759  -43.9290 H         1 UNK         0.0600 
    186 H186        2.8635  -10.7410  -43.0051 H         1 UNK         0.0600 
    187 H187        2.3721   -9.6490  -44.2948 H         1 UNK         0.0600 
    188 H188        1.8594   -9.3487  -42.6443 H         1 UNK         0.0600 
    189 H189        1.2992  -12.8781  -44.4021 H         1 UNK         0.3000 
    190 H190       -1.2879  -19.3852  -46.7680 H         1 UNK         0.3000 
    191 H191       -3.4170  -19.4184  -48.6650 H         1 UNK         0.0600 
    192 H192       -3.4273  -18.0400  -45.9292 H         1 UNK         0.0600 
    193 H193       -2.6293  -17.3862  -47.3526 H         1 UNK         0.0600 
    194 H194       -4.3688  -17.6170  -47.3482 H         1 UNK         0.0600 
    195 H195       -3.2336  -20.5119  -45.2398 H         1 UNK         0.3000 
    196 H196       -5.8655  -21.5070  -45.0011 H         1 UNK         0.0600 
    197 H197       -4.3666  -21.0659  -43.0695 H         1 UNK         0.0600 
    198 H198       -3.3045  -22.3832  -43.5621 H         1 UNK         0.0600 
    199 H199       -4.9453  -22.7246  -43.0283 H         1 UNK         0.0600 
    200 H200       -2.9113  -23.0730  -46.2318 H         1 UNK         0.3000 
    201 H201       -4.1362  -25.6505  -46.7451 H         1 UNK         0.0600 
    202 H202       -1.9816  -26.0976  -47.8986 H         1 UNK         0.0600 
    203 H203       -1.6877  -25.3597  -46.3329 H         1 UNK         0.0600 
    204 H204       -1.5465  -24.3966  -47.8027 H         1 UNK         0.0600 
    205 H205       -4.6331  -22.6820  -48.2305 H         1 UNK         0.3000 
    206 H206       -5.4187  -21.8945  -50.1207 H         1 UNK         0.0600 
    207 H207       -7.3096  -23.4345  -49.5790 H         1 UNK         0.0600 
    208 H208       -6.5716  -24.7010  -50.5594 H         1 UNK         0.0600 
    209 H209       -7.1373  -23.2156  -51.3129 H         1 UNK         0.0600 
    210 H210       -2.7652  -22.4880  -50.2717 H         1 UNK         0.3000 
    211 H211       -1.0060  -22.7388  -51.5825 H         1 UNK         0.0600 
    212 H212       -2.3493  -21.1706  -53.1026 H         1 UNK         0.0600 
    213 H213       -1.1517  -22.1422  -53.9423 H         1 UNK         0.0600 
    214 H214       -2.8526  -22.5752  -54.0261 H         1 UNK         0.0600 
    215 H215       -2.6964  -25.1729  -50.8535 H         1 UNK         0.3000 
    216 H216       -2.8683  -27.3472  -51.1146 H         1 UNK         0.0600 
    217 H217       -0.3175  -27.2735  -52.8126 H         1 UNK         0.0600 
    218 H218       -0.3566  -27.3513  -51.0514 H         1 UNK         0.0600 
    219 H219       -1.0015  -28.6764  -52.0050 H         1 UNK         0.0600 
    220 H220       -4.1544  -25.4981  -52.9761 H         1 UNK         0.3000 
    221 H221       -5.5028  -25.3895  -54.6739 H         1 UNK         0.0600 
    222 H222       -5.2875  -28.4227  -55.0349 H         1 UNK         0.0600 
    223 H223       -6.3816  -27.6147  -53.9119 H         1 UNK         0.0600 
    224 H224       -6.5617  -27.3769  -55.6411 H         1 UNK         0.0600 
    225 H225       -2.4158  -25.4660  -55.0724 H         1 UNK         0.3000 
    226 H226       -2.1216  -26.1136  -57.8988 H         1 UNK         0.0600 
    227 H227       -0.2796  -26.3961  -56.1965 H         1 UNK         0.0600 
    228 H228        0.1872  -25.3817  -57.5537 H         1 UNK         0.0600 
    229 H229       -0.2131  -24.6428  -56.0114 H         1 UNK         0.0600 
    230 H230       -3.4202  -23.4264  -56.2385 H         1 UNK         0.3000 
    231 H231       -3.4437  -21.7732  -58.6469 H         1 UNK         0.0600 
    232 H232       -2.7099  -19.7449  -57.3735 H         1 UNK         0.0600 
    233 H233       -1.4208  -20.9373  -57.3822 H         1 UNK         0.0600 
    234 H234       -2.4110  -20.7201  -55.9405 H         1 UNK         0.0600 
    235 H235       -5.0740  -20.0603  -58.4009 H         1 UNK         0.3000 
    236 H236       -7.4851  -20.9811  -57.0609 H         1 UNK         0.0600 
    237 H237       -7.5463  -20.0908  -59.3716 H         1 UNK         0.0600 
    238 H238       -8.5131  -19.0872  -58.3042 H         1 UNK         0.0600 
    239 H239       -6.9228  -18.5362  -58.8198 H         1 UNK         0.0600 
    240 H240       -6.0882  -20.7462  -54.9945 H         1 UNK         0.3000 
    241 H241       -5.7711  -18.2029  -53.7560 H         1 UNK         0.0600 
    242 H242       -7.0652  -17.0774  -52.1670 H         1 UNK         0.3800 
    243 H243       -8.7208  -17.5238  -51.8681 H         1 UNK         0.3800 
    244 H244       -6.0208  -20.8506  -52.2591 H         1 UNK         0.0800 
    245 H245       -4.6338  -20.5332  -53.2473 H         1 UNK         0.0800 
    246 H246       -3.6481  -17.2966  -52.5325 H         1 UNK         0.0800 
    247 H247       -3.0035  -18.8154  -53.0942 H         1 UNK         0.0800 
@<TRIPOS>BOND
     1    1    2 1    
     2    1  127 1    
     3    1  128 1    
     4    1  129 1    
     5    2    3 2    
     6    2    4 am   BACKBONE|DICT|INTERRES
     7    4    5 1    
     8    4  130 1    
     9    5    6 1    
    10    5   65 1    
    11    5  131 1    
    12    6    7 1    
    13    6  132 1    
    14    6  133 1    
    15    7    8 1    
    16    8    9 1    
    17    8  134 1    
    18    8  135 1    
    19    9   10 ar   
    20    9   14 ar   
    21   10   11 ar   
    22   10  136 1    
    23   11   12 ar   
    24   11  126 1    
    25   12   13 ar   
    26   12  137 1    
    27   13   14 ar   
    28   13   15 1    
    29   14  138 1    
    30   15   16 1    
    31   15  139 1    
    32   15  140 1    
    33   16   17 1    
    34   17   18 1    
    35   17  141 1    
    36   17  142 1    
    37   18   19 1    
    38   18   67 1    
    39   18  143 1    
    40   19   20 am   BACKBONE|DICT|INTERRES
    41   19  144 1    
    42   20   21 2    
    43   20   22 1    
    44   22   23 1    
    45   22   24 1    
    46   22  145 1    
    47   23  146 1    
    48   23  147 1    
    49   23  148 1    
    50   24   25 am   BACKBONE|DICT|INTERRES
    51   24  149 1    
    52   25   26 2    
    53   25   27 1    
    54   27   28 1    
    55   27   29 1    
    56   27  150 1    
    57   28  151 1    
    58   28  152 1    
    59   28  153 1    
    60   29   30 am   BACKBONE|DICT|INTERRES
    61   29  154 1    
    62   30   31 2    
    63   30   32 1    
    64   32   33 1    
    65   32   34 1    
    66   32  155 1    
    67   33  156 1    
    68   33  157 1    
    69   33  158 1    
    70   34   35 am   BACKBONE|DICT|INTERRES
    71   34  159 1    
    72   35   36 2    
    73   35   37 1    
    74   37   38 1    
    75   37   39 1    
    76   37  160 1    
    77   38  161 1    
    78   38  162 1    
    79   38  163 1    
    80   39   40 am   BACKBONE|DICT|INTERRES
    81   39  164 1    
    82   40   41 2    
    83   40   42 1    
    84   42   43 1    
    85   42   44 1    
    86   42  165 1    
    87   43  166 1    
    88   43  167 1    
    89   43  168 1    
    90   44   45 am   BACKBONE|DICT|INTERRES
    91   44  169 1    
    92   45   46 2    
    93   45   47 1    
    94   47   48 1    
    95   47   49 1    
    96   47  170 1    
    97   48  171 1    
    98   48  172 1    
    99   48  173 1    
   100   49   50 am   BACKBONE|DICT|INTERRES
   101   49  174 1    
   102   50   51 2    
   103   50   52 1    
   104   52   53 1    
   105   52   54 1    
   106   52  175 1    
   107   53  176 1    
   108   53  177 1    
   109   53  178 1    
   110   54   55 am   BACKBONE|DICT|INTERRES
   111   54  179 1    
   112   55   56 2    
   113   55   57 1    
   114   57   58 1    
   115   57   59 1    
   116   57  180 1    
   117   58  181 1    
   118   58  182 1    
   119   58  183 1    
   120   59   60 am   BACKBONE|DICT|INTERRES
   121   59  184 1    
   122   60   61 2    
   123   60   62 1    
   124   62   63 1    
   125   62   64 1    
   126   62  185 1    
   127   63  186 1    
   128   63  187 1    
   129   63  188 1    
   130   64   65 am   BACKBONE|DICT|INTERRES
   131   64  189 1    
   132   65   66 2    
   133   67   68 2    
   134   67   69 am   BACKBONE|DICT|INTERRES
   135   69   70 1    
   136   69  190 1    
   137   70   71 1    
   138   70   72 1    
   139   70  191 1    
   140   71  192 1    
   141   71  193 1    
   142   71  194 1    
   143   72   73 2    
   144   72   74 am   BACKBONE|DICT|INTERRES
   145   74   75 1    
   146   74  195 1    
   147   75   76 1    
   148   75   77 1    
   149   75  196 1    
   150   76  197 1    
   151   76  198 1    
   152   76  199 1    
   153   77   78 2    
   154   77   79 am   BACKBONE|DICT|INTERRES
   155   79   80 1    
   156   79  200 1    
   157   80   81 1    
   158   80   82 1    
   159   80  201 1    
   160   81  202 1    
   161   81  203 1    
   162   81  204 1    
   163   82   83 2    
   164   82   84 am   BACKBONE|DICT|INTERRES
   165   84   85 1    
   166   84  205 1    
   167   85   86 1    
   168   85   87 1    
   169   85  206 1    
   170   86  207 1    
   171   86  208 1    
   172   86  209 1    
   173   87   88 2    
   174   87   89 am   BACKBONE|DICT|INTERRES
   175   89   90 1    
   176   89  210 1    
   177   90   91 1    
   178   90   92 1    
   179   90  211 1    
   180   91  212 1    
   181   91  213 1    
   182   91  214 1    
   183   92   93 2    
   184   92   94 am   BACKBONE|DICT|INTERRES
   185   94   95 1    
   186   94  215 1    
   187   95   96 1    
   188   95   97 1    
   189   95  216 1    
   190   96  217 1    
   191   96  218 1    
   192   96  219 1    
   193   97   98 2    
   194   97   99 am   BACKBONE|DICT|INTERRES
   195   99  100 1    
   196   99  220 1    
   197  100  101 1    
   198  100  102 1    
   199  100  221 1    
   200  101  222 1    
   201  101  223 1    
   202  101  224 1    
   203  102  103 2    
   204  102  104 am   BACKBONE|DICT|INTERRES
   205  104  105 1    
   206  104  225 1    
   207  105  106 1    
   208  105  107 1    
   209  105  226 1    
   210  106  227 1    
   211  106  228 1    
   212  106  229 1    
   213  107  108 2    
   214  107  109 am   BACKBONE|DICT|INTERRES
   215  109  110 1    
   216  109  230 1    
   217  110  111 1    
   218  110  112 1    
   219  110  231 1    
   220  111  232 1    
   221  111  233 1    
   222  111  234 1    
   223  112  113 2    
   224  112  114 am   BACKBONE|DICT|INTERRES
   225  114  115 1    
   226  114  235 1    
   227  115  116 1    
   228  115  117 1    
   229  115  236 1    
   230  116  237 1    
   231  116  238 1    
   232  116  239 1    
   233  117  118 2    
   234  117  119 am   BACKBONE|DICT|INTERRES
   235  119  120 1    
   236  119  240 1    
   237  120  121 1    
   238  120  124 1    
   239  120  241 1    
   240  121  122 am   BACKBONE|DICT|INTERRES
   241  121  123 2    
   242  122  242 1    
   243  122  243 1    
   244  124  125 1    
   245  124  244 1    
   246  124  245 1    
   247  125  126 1    
   248  126  246 1    
   249  126  247 1    
@<TRIPOS>SUBSTRUCTURE
     1 UNK         1 GROUP             0       ****    0 ROOT    
