@<TRIPOS>MOLECULE
3R540
247   249    1
SMALL
USER_CHARGES


@<TRIPOS>ATOM
      1 CA         -4.6149  -14.4157  -46.2598 C.3       0 UNK        -0.1800 
      2 C          -3.4512  -13.4512  -46.4403 C.2       0 UNK         0.5000 
      3 O          -3.6479  -12.2355  -46.4143 O.2       0 UNK        -0.5000 
      4 N          -2.2386  -13.9875  -46.6203 N.am      1 UNK        -0.5000 
      5 CA         -0.9856  -13.2489  -46.8171 C.3       1 UNK         0.1400 
      6 C6          0.0985  -14.1237  -47.5059 C.3       23 UNK        -0.0398 
      7 S7         -0.4749  -14.9007  -49.0517 S.3       23 UNK        -0.2404 
      8 C8          1.0758  -15.6437  -49.6435 C.3       23 UNK        -0.0205 
      9 C9          0.7949  -16.7827  -50.6096 C.ar      23 UNK        -0.0193 
     10 C10         0.4406  -16.5128  -51.9369 C.ar      23 UNK        -0.1150 
     11 C11         0.1479  -17.5599  -52.8157 C.ar      23 UNK        -0.0193 
     12 C12         0.2305  -18.8762  -52.3632 C.ar      23 UNK        -0.1150 
     13 C13         0.5849  -19.1597  -51.0446 C.ar      23 UNK        -0.0193 
     14 C14         0.8682  -18.1088  -50.1687 C.ar      23 UNK        -0.1150 
     15 C15         0.6250  -20.6028  -50.5762 C.3       23 UNK        -0.0205 
     16 S16        -0.9811  -21.0831  -49.8741 S.3       23 UNK        -0.2404 
     17 C17        -0.7217  -20.8030  -48.0889 C.3       23 UNK        -0.0398 
     18 CA         -0.9200  -22.1129  -47.2911 C.3       11 UNK         0.1400 
     19 N          -0.1681  -22.1251  -46.0347 N.am      11 UNK        -0.5000 
     20 C           0.0010  -23.2050  -45.2586 C.2       10 UNK         0.5000 
     21 O          -0.4755  -24.3103  -45.5178 O.2       10 UNK        -0.5000 
     22 CA          0.7857  -23.0031  -43.9502 C.3       10 UNK         0.1400 
     23 CB          2.2950  -22.9058  -44.2174 C.3       10 UNK        -0.1800 
     24 N           0.3308  -21.8195  -43.2211 N.am      10 UNK        -0.5000 
     25 C          -0.8845  -21.7049  -42.6665 C.2       9 UNK         0.5000 
     26 O          -1.7096  -22.6185  -42.6372 O.2       9 UNK        -0.5000 
     27 CA         -1.2578  -20.3306  -42.0812 C.3       9 UNK         0.1400 
     28 CB         -0.7295  -20.1904  -40.6460 C.3       9 UNK        -0.1800 
     29 N          -0.7746  -19.2110  -42.8914 N.am      9 UNK        -0.5000 
     30 C          -1.1554  -18.9557  -44.1517 C.2       8 UNK         0.5000 
     31 O          -1.9792  -19.6275  -44.7696 O.2       8 UNK        -0.5000 
     32 CA         -0.4562  -17.7833  -44.8616 C.3       8 UNK         0.1400 
     33 CB         -1.0284  -16.4433  -44.3784 C.3       8 UNK        -0.1800 
     34 N           0.9954  -17.8087  -44.6718 N.am      8 UNK        -0.5000 
     35 C           1.7949  -18.8056  -45.0799 C.2       7 UNK         0.5000 
     36 O           1.4003  -19.7791  -45.7189 O.2       7 UNK        -0.5000 
     37 CA          3.2694  -18.7375  -44.6550 C.3       7 UNK         0.1400 
     38 CB          4.0892  -17.8948  -45.6442 C.3       7 UNK        -0.1800 
     39 N           3.4083  -18.2053  -43.3001 N.am      7 UNK        -0.5000 
     40 C           3.0933  -18.8867  -42.1891 C.2       6 UNK         0.5000 
     41 O           2.7059  -20.0557  -42.1935 O.2       6 UNK        -0.5000 
     42 CA          3.1894  -18.1213  -40.8546 C.3       6 UNK         0.1400 
     43 CB          4.6278  -18.1491  -40.3172 C.3       6 UNK        -0.1800 
     44 N           2.7392  -16.7318  -40.9642 N.am      6 UNK        -0.5000 
     45 C           1.4720  -16.3682  -41.2055 C.2       5 UNK         0.5000 
     46 O           0.5439  -17.1704  -41.3009 O.2       5 UNK        -0.5000 
     47 CA          1.1968  -14.8665  -41.4256 C.3       5 UNK         0.1400 
     48 CB          0.8245  -14.1856  -40.1009 C.3       5 UNK        -0.1800 
     49 N           2.2883  -14.1197  -42.0602 N.am      5 UNK        -0.5000 
     50 C           2.8580  -14.4233  -43.2346 C.2       4 UNK         0.5000 
     51 O           2.5953  -15.4416  -43.8756 O.2       4 UNK        -0.5000 
     52 CA          3.8396  -13.3839  -43.7935 C.3       4 UNK         0.1400 
     53 CB          4.5404  -13.8480  -45.0840 C.3       4 UNK        -0.1800 
     54 N           3.0846  -12.1665  -44.0621 N.am      4 UNK        -0.5000 
     55 C           3.4921  -10.9151  -43.8205 C.2       3 UNK         0.5000 
     56 O           4.5990  -10.6385  -43.3565 O.2       3 UNK        -0.5000 
     57 CA          2.5061   -9.7715  -44.1489 C.3       3 UNK         0.1400 
     58 CB          2.9004   -9.0888  -45.4678 C.3       3 UNK        -0.1800 
     59 N           1.1085  -10.2016  -44.2437 N.am      3 UNK        -0.5000 
     60 C           0.3607  -10.6236  -43.2149 C.2       2 UNK         0.5000 
     61 O           0.7472  -10.6168  -42.0456 O.2       2 UNK        -0.5000 
     62 CA         -1.0435  -11.1760  -43.5429 C.3       2 UNK         0.1400 
     63 CB         -2.1114  -10.0991  -43.2994 C.3       2 UNK        -0.1800 
     64 N          -1.2228  -11.7211  -44.8965 N.am      2 UNK        -0.5000 
     65 C          -0.4825  -12.6783  -45.4717 C.2       1 UNK         0.5000 
     66 O           0.5400  -13.1306  -44.9611 O.2       1 UNK        -0.5000 
     67 C          -2.4156  -22.4356  -47.0948 C.2       11 UNK         0.5000 
     68 O          -3.0032  -23.1071  -47.9437 O.2       11 UNK        -0.5000 
     69 N          -3.0040  -21.9886  -45.9766 N.am      12 UNK        -0.5000 
     70 CA         -4.3789  -22.2911  -45.5706 C.3       12 UNK         0.1400 
     71 CB         -4.7287  -21.5065  -44.2982 C.3       12 UNK        -0.1800 
     72 C          -4.6434  -23.7961  -45.3781 C.2       12 UNK         0.5000 
     73 O          -5.7514  -24.2516  -45.6601 O.2       12 UNK        -0.5000 
     74 N          -3.6214  -24.5422  -44.9410 N.am      13 UNK        -0.5000 
     75 CA         -3.6562  -25.9990  -44.8535 C.3       13 UNK         0.1400 
     76 CB         -2.6923  -26.4655  -43.7509 C.3       13 UNK        -0.1800 
     77 C          -3.3086  -26.6574  -46.2011 C.2       13 UNK         0.5000 
     78 O          -3.9824  -27.6069  -46.6021 O.2       13 UNK        -0.5000 
     79 N          -2.2519  -26.1623  -46.8605 N.am      14 UNK        -0.5000 
     80 CA         -1.6579  -26.7800  -48.0464 C.3       14 UNK         0.1400 
     81 CB         -0.2390  -26.2267  -48.2499 C.3       14 UNK        -0.1800 
     82 C          -2.4814  -26.6229  -49.3376 C.2       14 UNK         0.5000 
     83 O          -2.5825  -27.5871  -50.0979 O.2       14 UNK        -0.5000 
     84 N          -3.0168  -25.4206  -49.5865 N.am      15 UNK        -0.5000 
     85 CA         -3.6363  -25.0462  -50.8642 C.3       15 UNK         0.1400 
     86 CB         -2.6120  -24.2538  -51.6940 C.3       15 UNK        -0.1800 
     87 C          -4.9476  -24.2568  -50.7022 C.2       15 UNK         0.5000 
     88 O          -5.5278  -23.8564  -51.7111 O.2       15 UNK        -0.5000 
     89 N          -5.3952  -24.0596  -49.4539 N.am      16 UNK        -0.5000 
     90 CA         -6.5566  -23.2634  -49.0424 C.3       16 UNK         0.1400 
     91 CB         -7.8656  -23.7801  -49.6792 C.3       16 UNK        -0.1800 
     92 C          -6.3415  -21.7441  -49.2185 C.2       16 UNK         0.5000 
     93 O          -7.2971  -21.0273  -49.5163 O.2       16 UNK        -0.5000 
     94 N          -5.0998  -21.2928  -48.9724 N.am      17 UNK        -0.5000 
     95 CA         -4.6140  -19.9068  -48.9676 C.3       17 UNK         0.1400 
     96 CB         -5.3105  -19.0677  -47.8770 C.3       17 UNK        -0.1800 
     97 C          -4.7019  -19.2621  -50.3618 C.2       17 UNK         0.5000 
     98 O          -5.7351  -18.6934  -50.7183 O.2       17 UNK        -0.5000 
     99 N          -3.6113  -19.3997  -51.1296 N.am      18 UNK        -0.5000 
    100 CA        -3.5220  -19.1687  -52.5730 C.3       18 UNK         0.1400 
    101 CB        -3.8017  -17.6973  -52.9563 C.3       18 UNK        -0.1800 
    102 C         -4.3913  -20.2155  -53.2887 C.2       18 UNK         0.5000 
    103 O         -4.0987  -21.4010  -53.1337 O.2       18 UNK        -0.5000 
    104 N         -5.4357  -19.7823  -54.0098 N.am      19 UNK        -0.5000 
    105 CA        -6.4655  -20.5959  -54.6653 C.3       19 UNK         0.1400 
    106 CB        -7.3871  -21.2488  -53.6124 C.3       19 UNK        -0.1800 
    107 C         -5.8840  -21.6094  -55.6718 C.2       19 UNK         0.5000 
    108 O         -5.7635  -21.2846  -56.8537 O.2       19 UNK        -0.5000 
    109 N         -5.5317  -22.8084  -55.1896 N.am      20 UNK        -0.5000 
    110 CA        -4.8367  -23.8422  -55.9545 C.3       20 UNK         0.1400 
    111 CB        -4.9648  -25.1811  -55.2115 C.3       20 UNK        -0.1800 
    112 C         -3.3540  -23.5024  -56.2118 C.2       20 UNK         0.5000 
    113 O         -2.7981  -23.9634  -57.2098 O.2       20 UNK        -0.5000 
    114 N         -2.7422  -22.7147  -55.3180 N.am      21 UNK        -0.5000 
    115 CA        -1.3753  -22.2146  -55.4405 C.3       21 UNK         0.1400 
    116 CB        -0.7412  -22.1624  -54.0426 C.3       21 UNK        -0.1800 
    117 C         -1.3568  -20.8305  -56.1165 C.2       21 UNK         0.5000 
    118 O         -2.3250  -20.0740  -56.0062 O.2       21 UNK        -0.5000 
    119 N         -0.2365  -20.5299  -56.7861 N.am      22 UNK        -0.5000 
    120 CA        -0.0141  -19.3654  -57.6664 C.3       22 UNK         0.1400 
    121 C         -0.8416  -19.4314  -58.9899 C.2       22 UNK         0.5000 
    122 N         -0.8254  -18.3880  -59.8098 N.am      22 UNK        -0.7600 
    123 O         -1.4679  -20.4376  -59.3168 O.2       22 UNK        -0.5000 
    124 C124       -0.1287  -17.9852  -56.9507 C.3       23 UNK        -0.0398 
    125 S125        0.9202  -17.8445  -55.4619 S.3       23 UNK        -0.2404 
    126 C126       -0.3096  -17.2936  -54.2397 C.3       23 UNK        -0.0205 
    127 H127       -5.0884  -14.2544  -45.2914 H         1 UNK         0.0600 
    128 H128       -4.2922  -15.4560  -46.3116 H         1 UNK         0.0600 
    129 H129       -5.3612  -14.2525  -47.0372 H         1 UNK         0.0600 
    130 H130       -2.1480  -14.9919  -46.6470 H         1 UNK         0.3000 
    131 H131       -1.1868  -12.3998  -47.4738 H         1 UNK         0.0600 
    132 H132        0.9798  -13.5197  -47.7294 H         1 UNK         0.0800 
    133 H133        0.4366  -14.9232  -46.8443 H         1 UNK         0.0800 
    134 H134        1.6832  -14.8798  -50.1309 H         1 UNK         0.0800 
    135 H135        1.6580  -16.0083  -48.7954 H         1 UNK         0.0800 
    136 H136        0.3693  -15.4884  -52.2743 H         1 UNK         0.1150 
    137 H137        0.0017  -19.6802  -53.0441 H         1 UNK         0.1150 
    138 H138        1.1295  -18.3230  -49.1418 H         1 UNK         0.1150 
    139 H139        0.8439  -21.2600  -51.4192 H         1 UNK         0.0800 
    140 H140        1.4345  -20.7567  -49.8615 H         1 UNK         0.0800 
    141 H141       -1.3763  -20.0061  -47.7324 H         1 UNK         0.0800 
    142 H142        0.2912  -20.4304  -47.9435 H         1 UNK         0.0800 
    143 H143       -0.5005  -22.9269  -47.8844 H         1 UNK         0.0600 
    144 H144        0.2848  -21.2531  -45.7695 H         1 UNK         0.3000 
    145 H145        0.6113  -23.8771  -43.3191 H         1 UNK         0.0600 
    146 H146        2.8540  -22.8118  -43.2861 H         1 UNK         0.0600 
    147 H147        2.6580  -23.7992  -44.7268 H         1 UNK         0.0600 
    148 H148        2.5437  -22.0487  -44.8427 H         1 UNK         0.0600 
    149 H149        0.9725  -21.0380  -43.1642 H         1 UNK         0.3000 
    150 H150       -2.3476  -20.2705  -42.0505 H         1 UNK         0.0600 
    151 H151       -1.0850  -21.0069  -40.0162 H         1 UNK         0.0600 
    152 H152       -1.0669  -19.2587  -40.1918 H         1 UNK         0.0600 
    153 H153        0.3605  -20.2009  -40.6157 H         1 UNK         0.0600 
    154 H154       -0.1285  -18.5709  -42.4376 H         1 UNK         0.3000 
    155 H155       -0.6476  -17.8707  -45.9332 H         1 UNK         0.0600 
    156 H156       -1.0064  -16.3580  -43.2930 H         1 UNK         0.0600 
    157 H157       -2.0678  -16.3316  -44.6881 H         1 UNK         0.0600 
    158 H158       -0.4678  -15.6047  -44.7846 H         1 UNK         0.0600 
    159 H159        1.4192  -17.0186  -44.1953 H         1 UNK         0.3000 
    160 H160        3.6705  -19.7532  -44.6677 H         1 UNK         0.0600 
    161 H161        3.7066  -16.8783  -45.7327 H         1 UNK         0.0600 
    162 H162        4.0636  -18.3373  -46.6407 H         1 UNK         0.0600 
    163 H163        5.1346  -17.8354  -45.3415 H         1 UNK         0.0600 
    164 H164        3.6146  -17.2177  -43.2272 H         1 UNK         0.3000 
    165 H165        2.5466  -18.6308  -40.1335 H         1 UNK         0.0600 
    166 H166        4.6913  -17.6782  -39.3361 H         1 UNK         0.0600 
    167 H167        4.9833  -19.1746  -40.2080 H         1 UNK         0.0600 
    168 H168        5.3184  -17.6315  -40.9842 H         1 UNK         0.0600 
    169 H169        3.4439  -16.0120  -40.9019 H         1 UNK         0.3000 
    170 H170        0.3369  -14.7914  -42.0935 H         1 UNK         0.0600 
    171 H171       -0.0066  -14.7000  -39.6164 H         1 UNK         0.0600 
    172 H172        1.6617  -14.1816  -39.4019 H         1 UNK         0.0600 
    173 H173        0.5154  -13.1524  -40.2622 H         1 UNK         0.0600 
    174 H174        2.5443  -13.2476  -41.6199 H         1 UNK         0.3000 
    175 H175        4.5966  -13.2056  -43.0271 H         1 UNK         0.0600 
    176 H176        3.8230  -14.0414  -45.8828 H         1 UNK         0.0600 
    177 H177        5.2442  -13.0964  -45.4414 H         1 UNK         0.0600 
    178 H178        5.1026  -14.7670  -44.9146 H         1 UNK         0.0600 
    179 H179        2.1396  -12.3252  -44.4068 H         1 UNK         0.3000 
    180 H180        2.5812   -9.0351  -43.3461 H         1 UNK         0.0600 
    181 H181        2.8306   -9.7758  -46.3122 H         1 UNK         0.0600 
    182 H182        3.9269   -8.7221  -45.4272 H         1 UNK         0.0600 
    183 H183        2.2593   -8.2321  -45.6765 H         1 UNK         0.0600 
    184 H184        0.7092  -10.2454  -45.1694 H         1 UNK         0.3000 
    185 H185       -1.2262  -11.9969  -42.8466 H         1 UNK         0.0600 
    186 H186       -2.0364   -9.6919  -42.2901 H         1 UNK         0.0600 
    187 H187       -2.0081   -9.2680  -43.9982 H         1 UNK         0.0600 
    188 H188       -3.1162  -10.5075  -43.4094 H         1 UNK         0.0600 
    189 H189       -2.0800  -11.4612  -45.3738 H         1 UNK         0.3000 
    190 H190       -2.4822  -21.3612  -45.3698 H         1 UNK         0.3000 
    191 H191       -5.0438  -21.9466  -46.3616 H         1 UNK         0.0600 
    192 H192       -4.6202  -20.4331  -44.4536 H         1 UNK         0.0600 
    193 H193       -5.7620  -21.6878  -43.9998 H         1 UNK         0.0600 
    194 H194       -4.0918  -21.7903  -43.4611 H         1 UNK         0.0600 
    195 H195       -2.7386  -24.0914  -44.7390 H         1 UNK         0.3000 
    196 H196       -4.6612  -26.3206  -44.5712 H         1 UNK         0.0600 
    197 H197       -2.7148  -27.5510  -43.6475 H         1 UNK         0.0600 
    198 H198       -2.9660  -26.0407  -42.7849 H         1 UNK         0.0600 
    199 H199       -1.6619  -26.1774  -43.9609 H         1 UNK         0.0600 
    200 H200       -1.7244  -25.4049  -46.4348 H         1 UNK         0.3000 
    201 H201       -1.5653  -27.8503  -47.8490 H         1 UNK         0.0600 
    202 H202        0.3810  -26.3934  -47.3688 H         1 UNK         0.0600 
    203 H203       -0.2498  -25.1567  -48.4547 H         1 UNK         0.0600 
    204 H204        0.2538  -26.7153  -49.0914 H         1 UNK         0.0600 
    205 H205       -2.8883  -24.6680  -48.9135 H         1 UNK         0.3000 
    206 H206       -3.9062  -25.9414  -51.4276 H         1 UNK         0.0600 
    207 H207       -1.6998  -24.8284  -51.8539 H         1 UNK         0.0600 
    208 H208       -3.0101  -23.9987  -52.6760 H         1 UNK         0.0600 
    209 H209       -2.3408  -23.3202  -51.2027 H         1 UNK         0.0600 
    210 H210       -4.8345  -24.4295  -48.6991 H         1 UNK         0.3000 
    211 H211       -6.6529  -23.4186  -47.9686 H         1 UNK         0.0600 
    212 H212       -7.9185  -23.5574  -50.7451 H         1 UNK         0.0600 
    213 H213       -8.7338  -23.3160  -49.2103 H         1 UNK         0.0600 
    214 H214       -7.9679  -24.8579  -49.5537 H         1 UNK         0.0600 
    215 H215       -4.3936  -21.9936  -48.7697 H         1 UNK         0.3000 
    216 H216       -3.5606  -19.9547  -48.6951 H         1 UNK         0.0600 
    217 H217       -4.9056  -18.0554  -47.8519 H         1 UNK         0.0600 
    218 H218       -5.1581  -19.5008  -46.8888 H         1 UNK         0.0600 
    219 H219       -6.3842  -18.9827  -48.0449 H         1 UNK         0.0600 
    220 H220       -2.8248  -19.9064  -50.7436 H         1 UNK         0.3000 
    221 H221       -2.4942  -19.3899  -52.8578 H         1 UNK         0.0600 
    222 H222       -4.8170  -17.3812  -52.7191 H         1 UNK         0.0600 
    223 H223       -3.1177  -17.0272  -52.4350 H         1 UNK         0.0600 
    224 H224       -3.6522  -17.5403  -54.0251 H         1 UNK         0.0600 
    225 H225       -5.5668  -18.7838  -54.0821 H         1 UNK         0.3000 
    226 H226       -7.0787  -19.9047  -55.2455 H         1 UNK         0.0600 
    227 H227       -7.9115  -20.4898  -53.0317 H         1 UNK         0.0600 
    228 H228       -8.1439  -21.8754  -54.0859 H         1 UNK         0.0600 
    229 H229       -6.8370  -21.8711  -52.9069 H         1 UNK         0.0600 
    230 H230       -5.5999  -22.9542  -54.1892 H         1 UNK         0.3000 
    231 H231       -5.3270  -23.9429  -56.9250 H         1 UNK         0.0600 
    232 H232       -4.5156  -25.1357  -54.2190 H         1 UNK         0.0600 
    233 H233       -4.4693  -25.9826  -55.7609 H         1 UNK         0.0600 
    234 H234       -6.0100  -25.4666  -55.0919 H         1 UNK         0.0600 
    235 H235       -3.2912  -22.3251  -54.5549 H         1 UNK         0.3000 
    236 H236       -0.7864  -22.9031  -56.0503 H         1 UNK         0.0600 
    237 H237       -0.6644  -23.1606  -53.6126 H         1 UNK         0.0600 
    238 H238        0.2690  -21.7542  -54.0840 H         1 UNK         0.0600 
    239 H239       -1.3255  -21.5509  -53.3550 H         1 UNK         0.0600 
    240 H240        0.5010  -21.2189  -56.8093 H         1 UNK         0.3000 
    241 H241        1.0215  -19.4685  -57.9918 H         1 UNK         0.0600 
    242 H242       -1.3466  -18.4413  -60.6716 H         1 UNK         0.3800 
    243 H243       -0.2964  -17.5543  -59.6076 H         1 UNK         0.3800 
    244 H244        0.1815  -17.1819  -57.6195 H         1 UNK         0.0800 
    245 H245       -1.1699  -17.7753  -56.7034 H         1 UNK         0.0800 
    246 H246       -1.2452  -17.8285  -54.4027 H         1 UNK         0.0800 
    247 H247       -0.5239  -16.2348  -54.3924 H         1 UNK         0.0800 
@<TRIPOS>BOND
     1    1    2 1    
     2    1  127 1    
     3    1  128 1    
     4    1  129 1    
     5    2    3 2    
     6    2    4 am   BACKBONE|DICT|INTERRES
     7    4    5 1    
     8    4  130 1    
     9    5    6 1    
    10    5   65 1    
    11    5  131 1    
    12    6    7 1    
    13    6  132 1    
    14    6  133 1    
    15    7    8 1    
    16    8    9 1    
    17    8  134 1    
    18    8  135 1    
    19    9   10 ar   
    20    9   14 ar   
    21   10   11 ar   
    22   10  136 1    
    23   11   12 ar   
    24   11  126 1    
    25   12   13 ar   
    26   12  137 1    
    27   13   14 ar   
    28   13   15 1    
    29   14  138 1    
    30   15   16 1    
    31   15  139 1    
    32   15  140 1    
    33   16   17 1    
    34   17   18 1    
    35   17  141 1    
    36   17  142 1    
    37   18   19 1    
    38   18   67 1    
    39   18  143 1    
    40   19   20 am   BACKBONE|DICT|INTERRES
    41   19  144 1    
    42   20   21 2    
    43   20   22 1    
    44   22   23 1    
    45   22   24 1    
    46   22  145 1    
    47   23  146 1    
    48   23  147 1    
    49   23  148 1    
    50   24   25 am   BACKBONE|DICT|INTERRES
    51   24  149 1    
    52   25   26 2    
    53   25   27 1    
    54   27   28 1    
    55   27   29 1    
    56   27  150 1    
    57   28  151 1    
    58   28  152 1    
    59   28  153 1    
    60   29   30 am   BACKBONE|DICT|INTERRES
    61   29  154 1    
    62   30   31 2    
    63   30   32 1    
    64   32   33 1    
    65   32   34 1    
    66   32  155 1    
    67   33  156 1    
    68   33  157 1    
    69   33  158 1    
    70   34   35 am   BACKBONE|DICT|INTERRES
    71   34  159 1    
    72   35   36 2    
    73   35   37 1    
    74   37   38 1    
    75   37   39 1    
    76   37  160 1    
    77   38  161 1    
    78   38  162 1    
    79   38  163 1    
    80   39   40 am   BACKBONE|DICT|INTERRES
    81   39  164 1    
    82   40   41 2    
    83   40   42 1    
    84   42   43 1    
    85   42   44 1    
    86   42  165 1    
    87   43  166 1    
    88   43  167 1    
    89   43  168 1    
    90   44   45 am   BACKBONE|DICT|INTERRES
    91   44  169 1    
    92   45   46 2    
    93   45   47 1    
    94   47   48 1    
    95   47   49 1    
    96   47  170 1    
    97   48  171 1    
    98   48  172 1    
    99   48  173 1    
   100   49   50 am   BACKBONE|DICT|INTERRES
   101   49  174 1    
   102   50   51 2    
   103   50   52 1    
   104   52   53 1    
   105   52   54 1    
   106   52  175 1    
   107   53  176 1    
   108   53  177 1    
   109   53  178 1    
   110   54   55 am   BACKBONE|DICT|INTERRES
   111   54  179 1    
   112   55   56 2    
   113   55   57 1    
   114   57   58 1    
   115   57   59 1    
   116   57  180 1    
   117   58  181 1    
   118   58  182 1    
   119   58  183 1    
   120   59   60 am   BACKBONE|DICT|INTERRES
   121   59  184 1    
   122   60   61 2    
   123   60   62 1    
   124   62   63 1    
   125   62   64 1    
   126   62  185 1    
   127   63  186 1    
   128   63  187 1    
   129   63  188 1    
   130   64   65 am   BACKBONE|DICT|INTERRES
   131   64  189 1    
   132   65   66 2    
   133   67   68 2    
   134   67   69 am   BACKBONE|DICT|INTERRES
   135   69   70 1    
   136   69  190 1    
   137   70   71 1    
   138   70   72 1    
   139   70  191 1    
   140   71  192 1    
   141   71  193 1    
   142   71  194 1    
   143   72   73 2    
   144   72   74 am   BACKBONE|DICT|INTERRES
   145   74   75 1    
   146   74  195 1    
   147   75   76 1    
   148   75   77 1    
   149   75  196 1    
   150   76  197 1    
   151   76  198 1    
   152   76  199 1    
   153   77   78 2    
   154   77   79 am   BACKBONE|DICT|INTERRES
   155   79   80 1    
   156   79  200 1    
   157   80   81 1    
   158   80   82 1    
   159   80  201 1    
   160   81  202 1    
   161   81  203 1    
   162   81  204 1    
   163   82   83 2    
   164   82   84 am   BACKBONE|DICT|INTERRES
   165   84   85 1    
   166   84  205 1    
   167   85   86 1    
   168   85   87 1    
   169   85  206 1    
   170   86  207 1    
   171   86  208 1    
   172   86  209 1    
   173   87   88 2    
   174   87   89 am   BACKBONE|DICT|INTERRES
   175   89   90 1    
   176   89  210 1    
   177   90   91 1    
   178   90   92 1    
   179   90  211 1    
   180   91  212 1    
   181   91  213 1    
   182   91  214 1    
   183   92   93 2    
   184   92   94 am   BACKBONE|DICT|INTERRES
   185   94   95 1    
   186   94  215 1    
   187   95   96 1    
   188   95   97 1    
   189   95  216 1    
   190   96  217 1    
   191   96  218 1    
   192   96  219 1    
   193   97   98 2    
   194   97   99 am   BACKBONE|DICT|INTERRES
   195   99  100 1    
   196   99  220 1    
   197  100  101 1    
   198  100  102 1    
   199  100  221 1    
   200  101  222 1    
   201  101  223 1    
   202  101  224 1    
   203  102  103 2    
   204  102  104 am   BACKBONE|DICT|INTERRES
   205  104  105 1    
   206  104  225 1    
   207  105  106 1    
   208  105  107 1    
   209  105  226 1    
   210  106  227 1    
   211  106  228 1    
   212  106  229 1    
   213  107  108 2    
   214  107  109 am   BACKBONE|DICT|INTERRES
   215  109  110 1    
   216  109  230 1    
   217  110  111 1    
   218  110  112 1    
   219  110  231 1    
   220  111  232 1    
   221  111  233 1    
   222  111  234 1    
   223  112  113 2    
   224  112  114 am   BACKBONE|DICT|INTERRES
   225  114  115 1    
   226  114  235 1    
   227  115  116 1    
   228  115  117 1    
   229  115  236 1    
   230  116  237 1    
   231  116  238 1    
   232  116  239 1    
   233  117  118 2    
   234  117  119 am   BACKBONE|DICT|INTERRES
   235  119  120 1    
   236  119  240 1    
   237  120  121 1    
   238  120  124 1    
   239  120  241 1    
   240  121  122 am   BACKBONE|DICT|INTERRES
   241  121  123 2    
   242  122  242 1    
   243  122  243 1    
   244  124  125 1    
   245  124  244 1    
   246  124  245 1    
   247  125  126 1    
   248  126  246 1    
   249  126  247 1    
@<TRIPOS>SUBSTRUCTURE
     1 UNK         1 GROUP             0       ****    0 ROOT    
