@<TRIPOS>MOLECULE
3R540
247   249    1
SMALL
USER_CHARGES


@<TRIPOS>ATOM
      1 CA          2.3396  -15.6977  -42.1860 C.3       0 UNK        -0.1800 
      2 C           1.2355  -16.7386  -42.3042 C.2       0 UNK         0.5000 
      3 O           0.6344  -17.1066  -41.2950 O.2       0 UNK        -0.5000 
      4 N           0.9798  -17.2240  -43.5258 N.am      1 UNK        -0.5000 
      5 CA         -0.0771  -18.1825  -43.8564 C.3       1 UNK         0.1400 
      6 C6          0.0271  -18.6824  -45.3213 C.3       23 UNK        -0.0398 
      7 S7         -0.2723  -17.4051  -46.5975 S.3       23 UNK        -0.2404 
      8 C8         -1.2125  -18.3354  -47.8438 C.3       23 UNK        -0.0205 
      9 C9         -0.2844  -19.1234  -48.7514 C.ar      23 UNK        -0.0193 
     10 C10         0.1207  -18.5936  -49.9791 C.ar      23 UNK        -0.1150 
     11 C11         1.0091  -19.2962  -50.7989 C.ar      23 UNK        -0.0193 
     12 C12         1.4923  -20.5408  -50.3828 C.ar      23 UNK        -0.1150 
     13 C13         1.0840  -21.0832  -49.1608 C.ar      23 UNK        -0.0193 
     14 C14         0.1895  -20.3751  -48.3556 C.ar      23 UNK        -0.1150 
     15 C15         1.5925  -22.4359  -48.6991 C.3       23 UNK        -0.0205 
     16 S16         2.8099  -22.2746  -47.3529 S.3       23 UNK        -0.2404 
     17 C17         2.5986  -23.8956  -46.5329 C.3       23 UNK        -0.0398 
     18 CA          2.1120  -23.8288  -45.0612 C.3       11 UNK         0.1400 
     19 N           3.1225  -23.2650  -44.1637 N.am      11 UNK        -0.5000 
     20 C           3.9272  -23.9866  -43.3709 C.2       10 UNK         0.5000 
     21 O           3.9264  -25.2179  -43.3408 O.2       10 UNK        -0.5000 
     22 CA          4.8910  -23.2231  -42.4371 C.3       10 UNK         0.1400 
     23 CB          6.3159  -23.2406  -43.0122 C.3       10 UNK        -0.1800 
     24 N           4.5137  -21.8337  -42.1731 N.am      10 UNK        -0.5000 
     25 C           3.3734  -21.4143  -41.6078 C.2       9 UNK         0.5000 
     26 O           2.4990  -22.1776  -41.1985 O.2       9 UNK        -0.5000 
     27 CA          3.1522  -19.8892  -41.5202 C.3       9 UNK         0.1400 
     28 CB          3.2779  -19.4073  -40.0675 C.3       9 UNK        -0.1800 
     29 N           4.0544  -19.0973  -42.3637 N.am      9 UNK        -0.5000 
     30 C           4.0821  -19.1219  -43.7030 C.2       8 UNK         0.5000 
     31 O           3.3600  -19.8503  -44.3877 O.2       8 UNK        -0.5000 
     32 CA          5.1534  -18.2308  -44.3604 C.3       8 UNK         0.1400 
     33 CB          6.5226  -18.9285  -44.3104 C.3       8 UNK        -0.1800 
     34 N           4.8557  -17.8952  -45.7518 N.am      8 UNK        -0.5000 
     35 C           3.8243  -17.1486  -46.1605 C.2       7 UNK         0.5000 
     36 O           3.0032  -16.6320  -45.3972 O.2       7 UNK        -0.5000 
     37 CA          3.7044  -16.9360  -47.6766 C.3       7 UNK         0.1400 
     38 CB          3.4436  -18.2614  -48.4074 C.3       7 UNK        -0.1800 
     39 N           2.5975  -16.0231  -47.9294 N.am      7 UNK        -0.5000 
     40 C           2.5993  -14.9842  -48.7686 C.2       6 UNK         0.5000 
     41 O           3.5305  -14.7174  -49.5294 O.2       6 UNK        -0.5000 
     42 CA          1.3520  -14.0796  -48.7497 C.3       6 UNK         0.1400 
     43 CB          0.4271  -14.4049  -49.9328 C.3       6 UNK        -0.1800 
     44 N           0.5799  -14.1985  -47.5119 N.am      6 UNK        -0.5000 
     45 C           0.8680  -13.5965  -46.3496 C.2       5 UNK         0.5000 
     46 O           1.8433  -12.8607  -46.1914 O.2       5 UNK        -0.5000 
     47 CA         -0.0974  -13.8721  -45.1710 C.3       5 UNK         0.1400 
     48 CB         -0.1719  -12.7058  -44.1650 C.3       5 UNK        -0.1800 
     49 N          -1.4417  -14.2990  -45.5911 N.am      5 UNK        -0.5000 
     50 C          -2.3095  -13.6044  -46.3423 C.2       4 UNK         0.5000 
     51 O          -2.1279  -12.4323  -46.6736 O.2       4 UNK        -0.5000 
     52 CA         -3.5559  -14.3272  -46.8835 C.3       4 UNK         0.1400 
     53 CB         -3.3628  -14.6118  -48.3896 C.3       4 UNK        -0.1800 
     54 N          -3.9215  -15.5724  -46.1910 N.am      4 UNK        -0.5000 
     55 C          -5.1487  -16.1109  -46.2876 C.2       3 UNK         0.5000 
     56 O          -6.0904  -15.5500  -46.8507 O.2       3 UNK        -0.5000 
     57 CA         -5.3887  -17.5174  -45.7073 C.3       3 UNK         0.1400 
     58 CB         -5.2812  -18.5725  -46.8167 C.3       3 UNK        -0.1800 
     59 N          -4.4914  -17.8848  -44.6162 N.am      3 UNK        -0.5000 
     60 C          -4.6257  -17.4568  -43.3548 C.2       2 UNK         0.5000 
     61 O          -5.5029  -16.6734  -42.9891 O.2       2 UNK        -0.5000 
     62 CA         -3.6173  -17.9982  -42.3203 C.3       2 UNK         0.1400 
     63 CB         -4.2296  -19.1725  -41.5411 C.3       2 UNK        -0.1800 
     64 N          -2.3235  -18.4218  -42.8688 N.am      2 UNK        -0.5000 
     65 C          -1.4753  -17.6158  -43.5200 C.2       1 UNK         0.5000 
     66 O          -1.7642  -16.4672  -43.8599 O.2       1 UNK        -0.5000 
     67 C           0.7359  -23.1590  -44.8437 C.2       11 UNK         0.5000 
     68 O          -0.0719  -23.0863  -45.7703 O.2       11 UNK        -0.5000 
     69 N           0.4589  -22.7235  -43.6021 N.am      12 UNK        -0.5000 
     70 CA         -0.7932  -22.0787  -43.1788 C.3       12 UNK         0.1400 
     71 CB         -0.6601  -21.6170  -41.7185 C.3       12 UNK        -0.1800 
     72 C          -2.0737  -22.9229  -43.3504 C.2       12 UNK         0.5000 
     73 O          -3.1679  -22.3634  -43.2907 O.2       12 UNK        -0.5000 
     74 N          -1.9234  -24.2358  -43.5676 N.am      13 UNK        -0.5000 
     75 CA         -3.0051  -25.1711  -43.8779 C.3       13 UNK         0.1400 
     76 CB         -2.4679  -26.6041  -43.7350 C.3       13 UNK        -0.1800 
     77 C          -3.6318  -24.9657  -45.2749 C.2       13 UNK         0.5000 
     78 O          -4.7195  -25.4906  -45.5194 O.2       13 UNK        -0.5000 
     79 N          -2.9480  -24.2342  -46.1690 N.am      14 UNK        -0.5000 
     80 CA         -3.4319  -23.8805  -47.5044 C.3       14 UNK         0.1400 
     81 CB         -2.3034  -23.1822  -48.2756 C.3       14 UNK        -0.1800 
     82 C          -4.6851  -22.9844  -47.4609 C.2       14 UNK         0.5000 
     83 O          -4.7750  -22.0908  -46.6169 O.2       14 UNK        -0.5000 
     84 N          -5.6188  -23.2389  -48.3840 N.am      15 UNK        -0.5000 
     85 CA         -6.8502  -22.4710  -48.5641 C.3       15 UNK         0.1400 
     86 CB         -7.8540  -23.3491  -49.3304 C.3       15 UNK        -0.1800 
     87 C          -6.6033  -21.1571  -49.3281 C.2       15 UNK         0.5000 
     88 O          -5.5529  -20.9859  -49.9503 O.2       15 UNK        -0.5000 
     89 N          -7.6121  -20.2753  -49.3334 N.am      16 UNK        -0.5000 
     90 CA         -7.6138  -19.0174  -50.0890 C.3       16 UNK         0.1400 
     91 CB         -8.8771  -18.2163  -49.7438 C.3       16 UNK        -0.1800 
     92 C          -7.4907  -19.2152  -51.6122 C.2       16 UNK         0.5000 
     93 O          -6.8458  -18.4058  -52.2768 O.2       16 UNK        -0.5000 
     94 N          -8.0629  -20.3112  -52.1306 N.am      17 UNK        -0.5000 
     95 CA         -7.9336  -20.7250  -53.5289 C.3       17 UNK         0.1400 
     96 CB         -8.9151  -21.8717  -53.8133 C.3       17 UNK        -0.1800 
     97 C          -6.4944  -21.1389  -53.8895 C.2       17 UNK         0.5000 
     98 O          -6.0147  -20.7946  -54.9692 O.2       17 UNK        -0.5000 
     99 N          -5.8197  -21.8359  -52.9642 N.am      18 UNK        -0.5000 
    100 CA        -4.4173  -22.2316  -53.0930 C.3       18 UNK         0.1400 
    101 CB        -4.0830  -23.3117  -52.0530 C.3       18 UNK        -0.1800 
    102 C         -3.4684  -21.0266  -52.9735 C.2       18 UNK         0.5000 
    103 O         -2.4962  -20.9519  -53.7218 O.2       18 UNK        -0.5000 
    104 N         -3.7952  -20.0864  -52.0753 N.am      19 UNK        -0.5000 
    105 CA        -3.0905  -18.8150  -51.9113 C.3       19 UNK         0.1400 
    106 CB        -3.6110  -18.0967  -50.6576 C.3       19 UNK        -0.1800 
    107 C         -3.2080  -17.9079  -53.1509 C.2       19 UNK         0.5000 
    108 O         -2.2215  -17.2867  -53.5439 O.2       19 UNK        -0.5000 
    109 N         -4.3986  -17.8690  -53.7669 N.am      20 UNK        -0.5000 
    110 CA        -4.6591  -17.1597  -55.0213 C.3       20 UNK         0.1400 
    111 CB        -6.1710  -17.1222  -55.2886 C.3       20 UNK        -0.1800 
    112 C         -3.9083  -17.7754  -56.2169 C.2       20 UNK         0.5000 
    113 O         -3.4004  -17.0367  -57.0629 O.2       20 UNK        -0.5000 
    114 N         -3.8077  -19.1129  -56.2435 N.am      21 UNK        -0.5000 
    115 CA        -3.0873  -19.8858  -57.2600 C.3       21 UNK         0.1400 
    116 CB        -3.4049  -21.3801  -57.0932 C.3       21 UNK        -0.1800 
    117 C         -1.5627  -19.6429  -57.2877 C.2       21 UNK         0.5000 
    118 O         -0.9251  -19.9873  -58.2842 O.2       21 UNK        -0.5000 
    119 N         -1.0061  -19.0300  -56.2330 N.am      22 UNK        -0.5000 
    120 CA         0.3737  -18.5162  -56.2002 C.3       22 UNK         0.1400 
    121 C          0.6298  -17.3206  -57.1684 C.2       22 UNK         0.5000 
    122 N         -0.3901  -16.6283  -57.6666 N.am      22 UNK        -0.7600 
    123 O          1.7796  -17.0170  -57.4750 O.2       22 UNK        -0.5000 
    124 C124        0.8317  -18.1299  -54.7700 C.3       23 UNK        -0.0398 
    125 S125        0.6265  -19.4548  -53.5349 S.3       23 UNK        -0.2404 
    126 C126        1.4692  -18.6920  -52.1156 C.3       23 UNK        -0.0205 
    127 H127        3.2267  -16.1411  -41.7344 H         1 UNK         0.0600 
    128 H128        2.0105  -14.8711  -41.5563 H         1 UNK         0.0600 
    129 H129        2.6159  -15.2875  -43.1571 H         1 UNK         0.0600 
    130 H130        1.5608  -16.9228  -44.3059 H         1 UNK         0.3000 
    131 H131        0.0944  -19.0450  -43.2117 H         1 UNK         0.0600 
    132 H132        1.0175  -19.1044  -45.4983 H         1 UNK         0.0800 
    133 H133       -0.6693  -19.5075  -45.4702 H         1 UNK         0.0800 
    134 H134       -1.9321  -19.0013  -47.3670 H         1 UNK         0.0800 
    135 H135       -1.7949  -17.6263  -48.4301 H         1 UNK         0.0800 
    136 H136       -0.2484  -17.6294  -50.2943 H         1 UNK         0.1150 
    137 H137        2.1851  -21.0830  -51.0105 H         1 UNK         0.1150 
    138 H138       -0.1152  -20.7949  -47.4078 H         1 UNK         0.1150 
    139 H139        0.7383  -23.0217  -48.3616 H         1 UNK         0.0800 
    140 H140        2.0396  -22.9893  -49.5260 H         1 UNK         0.0800 
    141 H141        3.5587  -24.4116  -46.5711 H         1 UNK         0.0800 
    142 H142        1.9199  -24.5222  -47.1129 H         1 UNK         0.0800 
    143 H143        1.9265  -24.8632  -44.7654 H         1 UNK         0.0600 
    144 H144        3.1957  -22.2545  -44.1574 H         1 UNK         0.3000 
    145 H145        4.8985  -23.7493  -41.4805 H         1 UNK         0.0600 
    146 H146        7.0268  -22.7856  -42.3221 H         1 UNK         0.0600 
    147 H147        6.6525  -24.2619  -43.1952 H         1 UNK         0.0600 
    148 H148        6.3730  -22.7015  -43.9588 H         1 UNK         0.0600 
    149 H149        5.1656  -21.1294  -42.4830 H         1 UNK         0.3000 
    150 H150        2.1336  -19.6936  -41.8569 H         1 UNK         0.0600 
    151 H151        4.2863  -19.5559  -39.6796 H         1 UNK         0.0600 
    152 H152        2.5912  -19.9485  -39.4151 H         1 UNK         0.0600 
    153 H153        3.0351  -18.3480  -39.9807 H         1 UNK         0.0600 
    154 H154        4.7029  -18.4974  -41.8742 H         1 UNK         0.3000 
    155 H155        5.2131  -17.2964  -43.7981 H         1 UNK         0.0600 
    156 H156        6.5145  -19.8690  -44.8633 H         1 UNK         0.0600 
    157 H157        6.8161  -19.1538  -43.2843 H         1 UNK         0.0600 
    158 H158        7.3032  -18.2968  -44.7349 H         1 UNK         0.0600 
    159 H159        5.4596  -18.3088  -46.4462 H         1 UNK         0.3000 
    160 H160        4.6419  -16.5018  -48.0295 H         1 UNK         0.0600 
    161 H161        2.5567  -18.7594  -48.0159 H         1 UNK         0.0600 
    162 H162        4.2798  -18.9523  -48.2984 H         1 UNK         0.0600 
    163 H163        3.2965  -18.0989  -49.4747 H         1 UNK         0.0600 
    164 H164        1.8170  -16.1313  -47.2948 H         1 UNK         0.3000 
    165 H165        1.6919  -13.0472  -48.8554 H         1 UNK         0.0600 
    166 H166        0.9635  -14.3442  -50.8807 H         1 UNK         0.0600 
    167 H167        0.0122  -15.4089  -49.8522 H         1 UNK         0.0600 
    168 H168       -0.4057  -13.7032  -49.9851 H         1 UNK         0.0600 
    169 H169       -0.2286  -14.8015  -47.5401 H         1 UNK         0.3000 
    170 H170        0.3294  -14.7241  -44.6424 H         1 UNK         0.0600 
    171 H171       -0.8452  -12.9418  -43.3410 H         1 UNK         0.0600 
    172 H172       -0.5217  -11.7859  -44.6338 H         1 UNK         0.0600 
    173 H173        0.8076  -12.5000  -43.7321 H         1 UNK         0.0600 
    174 H174       -1.6841  -15.2289  -45.2643 H         1 UNK         0.3000 
    175 H175       -4.3776  -13.6166  -46.7698 H         1 UNK         0.0600 
    176 H176       -4.2726  -14.9968  -48.8500 H         1 UNK         0.0600 
    177 H177       -3.0936  -13.7048  -48.9324 H         1 UNK         0.0600 
    178 H178       -2.5696  -15.3397  -48.5591 H         1 UNK         0.0600 
    179 H179       -3.2097  -16.0529  -45.6585 H         1 UNK         0.3000 
    180 H180       -6.4137  -17.5400  -45.3305 H         1 UNK         0.0600 
    181 H181       -4.2761  -18.6274  -47.2334 H         1 UNK         0.0600 
    182 H182       -5.9623  -18.3418  -47.6342 H         1 UNK         0.0600 
    183 H183       -5.5494  -19.5609  -46.4457 H         1 UNK         0.0600 
    184 H184       -3.7529  -18.5384  -44.8274 H         1 UNK         0.3000 
    185 H185       -3.4208  -17.1885  -41.6144 H         1 UNK         0.0600 
    186 H186       -5.1839  -18.8914  -41.0936 H         1 UNK         0.0600 
    187 H187       -4.4113  -20.0319  -42.1879 H         1 UNK         0.0600 
    188 H188       -3.5759  -19.4939  -40.7301 H         1 UNK         0.0600 
    189 H189       -2.0321  -19.3548  -42.6239 H         1 UNK         0.3000 
    190 H190        1.1658  -22.8334  -42.8844 H         1 UNK         0.3000 
    191 H191       -0.9277  -21.1976  -43.8058 H         1 UNK         0.0600 
    192 H192        0.1238  -20.8708  -41.6051 H         1 UNK         0.0600 
    193 H193       -1.5845  -21.1669  -41.3544 H         1 UNK         0.0600 
    194 H194       -0.4238  -22.4516  -41.0574 H         1 UNK         0.0600 
    195 H195       -0.9859  -24.6071  -43.5913 H         1 UNK         0.3000 
    196 H196       -3.7991  -25.0281  -43.1419 H         1 UNK         0.0600 
    197 H197       -3.2537  -27.3374  -43.9213 H         1 UNK         0.0600 
    198 H198       -2.0891  -26.7859  -42.7290 H         1 UNK         0.0600 
    199 H199       -1.6601  -26.8025  -44.4405 H         1 UNK         0.0600 
    200 H200       -2.0610  -23.8287  -45.8933 H         1 UNK         0.3000 
    201 H201       -3.6811  -24.8080  -48.0240 H         1 UNK         0.0600 
    202 H202       -1.4453  -23.8430  -48.3930 H         1 UNK         0.0600 
    203 H203       -2.6253  -22.8855  -49.2738 H         1 UNK         0.0600 
    204 H204       -1.9702  -22.2814  -47.7601 H         1 UNK         0.0600 
    205 H205       -5.4514  -23.9717  -49.0566 H         1 UNK         0.3000 
    206 H206       -7.2660  -22.2284  -47.5839 H         1 UNK         0.0600 
    207 H207       -8.0442  -24.2823  -48.7997 H         1 UNK         0.0600 
    208 H208       -8.8152  -22.8471  -49.4465 H         1 UNK         0.0600 
    209 H209       -7.4920  -23.6006  -50.3283 H         1 UNK         0.0600 
    210 H210       -8.4491  -20.4837  -48.8082 H         1 UNK         0.3000 
    211 H211       -6.7477  -18.4347  -49.7736 H         1 UNK         0.0600 
    212 H212       -9.7848  -18.7608  -50.0068 H         1 UNK         0.0600 
    213 H213       -8.8958  -17.2669  -50.2808 H         1 UNK         0.0600 
    214 H214       -8.9183  -17.9857  -48.6791 H         1 UNK         0.0600 
    215 H215       -8.5851  -20.9194  -51.5180 H         1 UNK         0.3000 
    216 H216       -8.2051  -19.8774  -54.1619 H         1 UNK         0.0600 
    217 H217       -8.8500  -22.1910  -54.8544 H         1 UNK         0.0600 
    218 H218       -9.9449  -21.5626  -53.6334 H         1 UNK         0.0600 
    219 H219       -8.7116  -22.7428  -53.1892 H         1 UNK         0.0600 
    220 H220       -6.2625  -22.0225  -52.0775 H         1 UNK         0.3000 
    221 H221       -4.2767  -22.6676  -54.0844 H         1 UNK         0.0600 
    222 H222       -4.2241  -22.9507  -51.0356 H         1 UNK         0.0600 
    223 H223       -4.7090  -24.1941  -52.1859 H         1 UNK         0.0600 
    224 H224       -3.0444  -23.6320  -52.1450 H         1 UNK         0.0600 
    225 H225       -4.5706  -20.2683  -51.4446 H         1 UNK         0.3000 
    226 H226       -2.0334  -19.0427  -51.7640 H         1 UNK         0.0600 
    227 H227       -3.0367  -17.1901  -50.4649 H         1 UNK         0.0600 
    228 H228       -4.6543  -17.8025  -50.7649 H         1 UNK         0.0600 
    229 H229       -3.5330  -18.7343  -49.7770 H         1 UNK         0.0600 
    230 H230       -5.1887  -18.3402  -53.3370 H         1 UNK         0.3000 
    231 H231       -4.3101  -16.1316  -54.9046 H         1 UNK         0.0600 
    232 H232       -6.5890  -18.1245  -55.3843 H         1 UNK         0.0600 
    233 H233       -6.3917  -16.5840  -56.2112 H         1 UNK         0.0600 
    234 H234       -6.7008  -16.6152  -54.4819 H         1 UNK         0.0600 
    235 H235       -4.2873  -19.6480  -55.5289 H         1 UNK         0.3000 
    236 H236       -3.4717  -19.5729  -58.2328 H         1 UNK         0.0600 
    237 H237       -2.9392  -21.9684  -57.8847 H         1 UNK         0.0600 
    238 H238       -3.0395  -21.7676  -56.1433 H         1 UNK         0.0600 
    239 H239       -4.4779  -21.5650  -57.1427 H         1 UNK         0.0600 
    240 H240       -1.5832  -18.8105  -55.4324 H         1 UNK         0.3000 
    241 H241        1.0213  -19.3266  -56.5399 H         1 UNK         0.0600 
    242 H242       -1.3476  -16.8546  -57.4222 H         1 UNK         0.3800 
    243 H243       -0.2063  -15.8607  -58.2931 H         1 UNK         0.3800 
    244 H244        0.2825  -17.2535  -54.4222 H         1 UNK         0.0800 
    245 H245        1.8853  -17.8443  -54.7799 H         1 UNK         0.0800 
    246 H246        1.2835  -17.6165  -52.1139 H         1 UNK         0.0800 
    247 H247        2.5474  -18.8172  -52.2241 H         1 UNK         0.0800 
@<TRIPOS>BOND
     1    1    2 1    
     2    1  127 1    
     3    1  128 1    
     4    1  129 1    
     5    2    3 2    
     6    2    4 am   BACKBONE|DICT|INTERRES
     7    4    5 1    
     8    4  130 1    
     9    5    6 1    
    10    5   65 1    
    11    5  131 1    
    12    6    7 1    
    13    6  132 1    
    14    6  133 1    
    15    7    8 1    
    16    8    9 1    
    17    8  134 1    
    18    8  135 1    
    19    9   10 ar   
    20    9   14 ar   
    21   10   11 ar   
    22   10  136 1    
    23   11   12 ar   
    24   11  126 1    
    25   12   13 ar   
    26   12  137 1    
    27   13   14 ar   
    28   13   15 1    
    29   14  138 1    
    30   15   16 1    
    31   15  139 1    
    32   15  140 1    
    33   16   17 1    
    34   17   18 1    
    35   17  141 1    
    36   17  142 1    
    37   18   19 1    
    38   18   67 1    
    39   18  143 1    
    40   19   20 am   BACKBONE|DICT|INTERRES
    41   19  144 1    
    42   20   21 2    
    43   20   22 1    
    44   22   23 1    
    45   22   24 1    
    46   22  145 1    
    47   23  146 1    
    48   23  147 1    
    49   23  148 1    
    50   24   25 am   BACKBONE|DICT|INTERRES
    51   24  149 1    
    52   25   26 2    
    53   25   27 1    
    54   27   28 1    
    55   27   29 1    
    56   27  150 1    
    57   28  151 1    
    58   28  152 1    
    59   28  153 1    
    60   29   30 am   BACKBONE|DICT|INTERRES
    61   29  154 1    
    62   30   31 2    
    63   30   32 1    
    64   32   33 1    
    65   32   34 1    
    66   32  155 1    
    67   33  156 1    
    68   33  157 1    
    69   33  158 1    
    70   34   35 am   BACKBONE|DICT|INTERRES
    71   34  159 1    
    72   35   36 2    
    73   35   37 1    
    74   37   38 1    
    75   37   39 1    
    76   37  160 1    
    77   38  161 1    
    78   38  162 1    
    79   38  163 1    
    80   39   40 am   BACKBONE|DICT|INTERRES
    81   39  164 1    
    82   40   41 2    
    83   40   42 1    
    84   42   43 1    
    85   42   44 1    
    86   42  165 1    
    87   43  166 1    
    88   43  167 1    
    89   43  168 1    
    90   44   45 am   BACKBONE|DICT|INTERRES
    91   44  169 1    
    92   45   46 2    
    93   45   47 1    
    94   47   48 1    
    95   47   49 1    
    96   47  170 1    
    97   48  171 1    
    98   48  172 1    
    99   48  173 1    
   100   49   50 am   BACKBONE|DICT|INTERRES
   101   49  174 1    
   102   50   51 2    
   103   50   52 1    
   104   52   53 1    
   105   52   54 1    
   106   52  175 1    
   107   53  176 1    
   108   53  177 1    
   109   53  178 1    
   110   54   55 am   BACKBONE|DICT|INTERRES
   111   54  179 1    
   112   55   56 2    
   113   55   57 1    
   114   57   58 1    
   115   57   59 1    
   116   57  180 1    
   117   58  181 1    
   118   58  182 1    
   119   58  183 1    
   120   59   60 am   BACKBONE|DICT|INTERRES
   121   59  184 1    
   122   60   61 2    
   123   60   62 1    
   124   62   63 1    
   125   62   64 1    
   126   62  185 1    
   127   63  186 1    
   128   63  187 1    
   129   63  188 1    
   130   64   65 am   BACKBONE|DICT|INTERRES
   131   64  189 1    
   132   65   66 2    
   133   67   68 2    
   134   67   69 am   BACKBONE|DICT|INTERRES
   135   69   70 1    
   136   69  190 1    
   137   70   71 1    
   138   70   72 1    
   139   70  191 1    
   140   71  192 1    
   141   71  193 1    
   142   71  194 1    
   143   72   73 2    
   144   72   74 am   BACKBONE|DICT|INTERRES
   145   74   75 1    
   146   74  195 1    
   147   75   76 1    
   148   75   77 1    
   149   75  196 1    
   150   76  197 1    
   151   76  198 1    
   152   76  199 1    
   153   77   78 2    
   154   77   79 am   BACKBONE|DICT|INTERRES
   155   79   80 1    
   156   79  200 1    
   157   80   81 1    
   158   80   82 1    
   159   80  201 1    
   160   81  202 1    
   161   81  203 1    
   162   81  204 1    
   163   82   83 2    
   164   82   84 am   BACKBONE|DICT|INTERRES
   165   84   85 1    
   166   84  205 1    
   167   85   86 1    
   168   85   87 1    
   169   85  206 1    
   170   86  207 1    
   171   86  208 1    
   172   86  209 1    
   173   87   88 2    
   174   87   89 am   BACKBONE|DICT|INTERRES
   175   89   90 1    
   176   89  210 1    
   177   90   91 1    
   178   90   92 1    
   179   90  211 1    
   180   91  212 1    
   181   91  213 1    
   182   91  214 1    
   183   92   93 2    
   184   92   94 am   BACKBONE|DICT|INTERRES
   185   94   95 1    
   186   94  215 1    
   187   95   96 1    
   188   95   97 1    
   189   95  216 1    
   190   96  217 1    
   191   96  218 1    
   192   96  219 1    
   193   97   98 2    
   194   97   99 am   BACKBONE|DICT|INTERRES
   195   99  100 1    
   196   99  220 1    
   197  100  101 1    
   198  100  102 1    
   199  100  221 1    
   200  101  222 1    
   201  101  223 1    
   202  101  224 1    
   203  102  103 2    
   204  102  104 am   BACKBONE|DICT|INTERRES
   205  104  105 1    
   206  104  225 1    
   207  105  106 1    
   208  105  107 1    
   209  105  226 1    
   210  106  227 1    
   211  106  228 1    
   212  106  229 1    
   213  107  108 2    
   214  107  109 am   BACKBONE|DICT|INTERRES
   215  109  110 1    
   216  109  230 1    
   217  110  111 1    
   218  110  112 1    
   219  110  231 1    
   220  111  232 1    
   221  111  233 1    
   222  111  234 1    
   223  112  113 2    
   224  112  114 am   BACKBONE|DICT|INTERRES
   225  114  115 1    
   226  114  235 1    
   227  115  116 1    
   228  115  117 1    
   229  115  236 1    
   230  116  237 1    
   231  116  238 1    
   232  116  239 1    
   233  117  118 2    
   234  117  119 am   BACKBONE|DICT|INTERRES
   235  119  120 1    
   236  119  240 1    
   237  120  121 1    
   238  120  124 1    
   239  120  241 1    
   240  121  122 am   BACKBONE|DICT|INTERRES
   241  121  123 2    
   242  122  242 1    
   243  122  243 1    
   244  124  125 1    
   245  124  244 1    
   246  124  245 1    
   247  125  126 1    
   248  126  246 1    
   249  126  247 1    
@<TRIPOS>SUBSTRUCTURE
     1 UNK         1 GROUP             0       ****    0 ROOT    
