@<TRIPOS>MOLECULE
3R540
247   249    1
SMALL
USER_CHARGES


@<TRIPOS>ATOM
      1 CA          2.5901  -10.7565  -48.5982 C.3       0 UNK        -0.1800 
      2 C           1.8457  -11.5778  -47.5568 C.2       0 UNK         0.5000 
      3 O           2.1853  -11.5192  -46.3748 O.2       0 UNK        -0.5000 
      4 N           0.8183  -12.3261  -47.9821 N.am      1 UNK        -0.5000 
      5 CA          0.0168  -13.2340  -47.1471 C.3       1 UNK         0.1400 
      6 C6         -0.9861  -14.0657  -47.9858 C.3       23 UNK        -0.0398 
      7 S7         -0.1562  -15.1863  -49.1649 S.3       23 UNK        -0.2404 
      8 C8         -0.9460  -16.7749  -48.7519 C.3       23 UNK        -0.0205 
      9 C9         -0.3170  -17.9340  -49.5103 C.ar      23 UNK        -0.0193 
     10 C10        -0.9896  -18.5248  -50.5828 C.ar      23 UNK        -0.1150 
     11 C11        -0.4189  -19.5933  -51.2795 C.ar      23 UNK        -0.0193 
     12 C12         0.8425  -20.0671  -50.9002 C.ar      23 UNK        -0.1150 
     13 C13         1.5295  -19.4817  -49.8303 C.ar      23 UNK        -0.0193 
     14 C14         0.9382  -18.4217  -49.1353 C.ar      23 UNK        -0.1150 
     15 C15         2.9358  -19.9447  -49.4643 C.3       23 UNK        -0.0205 
     16 S16         2.9847  -21.5685  -48.6371 S.3       23 UNK        -0.2404 
     17 C17         2.2028  -21.2136  -47.0239 C.3       23 UNK        -0.0398 
     18 CA          1.2190  -22.3196  -46.5704 C.3       11 UNK         0.1400 
     19 N           0.7897  -22.1392  -45.1792 N.am      11 UNK        -0.5000 
     20 C           0.0108  -22.9916  -44.4949 C.2       10 UNK         0.5000 
     21 O          -0.3792  -24.0708  -44.9358 O.2       10 UNK        -0.5000 
     22 CA         -0.4753  -22.5320  -43.1104 C.3       10 UNK         0.1400 
     23 CB          0.5933  -22.7654  -42.0318 C.3       10 UNK        -0.1800 
     24 N          -0.8785  -21.1270  -43.1267 N.am      10 UNK        -0.5000 
     25 C          -1.9607  -20.6658  -43.7712 C.2       9 UNK         0.5000 
     26 O          -2.7713  -21.3892  -44.3518 O.2       9 UNK        -0.5000 
     27 CA         -2.1385  -19.1366  -43.8107 C.3       9 UNK         0.1400 
     28 CB         -2.8953  -18.6493  -42.5672 C.3       9 UNK        -0.1800 
     29 N          -0.8588  -18.4297  -43.9305 N.am      9 UNK        -0.5000 
     30 C          -0.0956  -18.4802  -45.0331 C.2       8 UNK         0.5000 
     31 O          -0.4274  -19.0805  -46.0529 O.2       8 UNK        -0.5000 
     32 CA          1.2865  -17.8063  -44.9935 C.3       8 UNK         0.1400 
     33 CB          1.2170  -16.3529  -45.4708 C.3       8 UNK        -0.1800 
     34 N           1.9289  -17.8581  -43.6843 N.am      8 UNK        -0.5000 
     35 C           2.3733  -18.9806  -43.1055 C.2       7 UNK         0.5000 
     36 O           2.1954  -20.1017  -43.5828 O.2       7 UNK        -0.5000 
     37 CA          3.1398  -18.8263  -41.7826 C.3       7 UNK         0.1400 
     38 CB          4.6156  -18.5025  -42.0606 C.3       7 UNK        -0.1800 
     39 N           2.5643  -17.7599  -40.9641 N.am      7 UNK        -0.5000 
     40 C           1.8358  -17.9545  -39.8576 C.2       6 UNK         0.5000 
     41 O           1.6355  -19.0601  -39.3530 O.2       6 UNK        -0.5000 
     42 CA          1.2047  -16.7055  -39.2062 C.3       6 UNK         0.1400 
     43 CB          2.1344  -16.1390  -38.1224 C.3       6 UNK        -0.1800 
     44 N           0.8682  -15.6364  -40.1511 N.am      6 UNK        -0.5000 
     45 C           0.0194  -15.7586  -41.1809 C.2       5 UNK         0.5000 
     46 O          -0.5728  -16.8000  -41.4605 O.2       5 UNK        -0.5000 
     47 CA         -0.1682  -14.5294  -42.0871 C.3       5 UNK         0.1400 
     48 CB         -1.2484  -13.6028  -41.5090 C.3       5 UNK        -0.1800 
     49 N           1.0341  -13.7362  -42.3729 N.am      5 UNK        -0.5000 
     50 C           2.2630  -14.1680  -42.6943 C.2       4 UNK         0.5000 
     51 O           2.6088  -15.3493  -42.6391 O.2       4 UNK        -0.5000 
     52 CA          3.2767  -13.1121  -43.1822 C.3       4 UNK         0.1400 
     53 CB          4.0876  -13.6275  -44.3840 C.3       4 UNK        -0.1800 
     54 N           2.6472  -11.8464  -43.5650 N.am      4 UNK        -0.5000 
     55 C           2.4153  -10.8132  -42.7461 C.2       3 UNK         0.5000 
     56 O           2.6669  -10.8255  -41.5413 O.2       3 UNK        -0.5000 
     57 CA          1.7698   -9.5712  -43.3791 C.3       3 UNK         0.1400 
     58 CB          2.8196   -8.7438  -44.1377 C.3       3 UNK        -0.1800 
     59 N           0.6932   -9.9401  -44.2986 N.am      3 UNK        -0.5000 
     60 C          -0.5994  -10.0346  -43.9577 C.2       2 UNK         0.5000 
     61 O          -1.0206   -9.8359  -42.8180 O.2       2 UNK        -0.5000 
     62 CA         -1.5965  -10.4013  -45.0753 C.3       2 UNK         0.1400 
     63 CB         -2.1763   -9.1295  -45.7130 C.3       2 UNK        -0.1800 
     64 N          -1.0009  -11.2296  -46.1244 N.am      2 UNK        -0.5000 
     65 C          -0.7163  -12.5313  -45.9835 C.2       1 UNK         0.5000 
     66 O          -0.9964  -13.1792  -44.9769 O.2       1 UNK        -0.5000 
     67 C           0.0150  -22.4498  -47.5263 C.2       11 UNK         0.5000 
     68 O          -0.0343  -23.4055  -48.3003 O.2       11 UNK        -0.5000 
     69 N          -0.9510  -21.5268  -47.4105 N.am      12 UNK        -0.5000 
     70 CA         -2.1799  -21.5016  -48.2019 C.3       12 UNK         0.1400 
     71 CB         -3.0130  -20.2677  -47.8271 C.3       12 UNK        -0.1800 
     72 C          -3.0152  -22.7884  -48.0717 C.2       12 UNK         0.5000 
     73 O          -3.4832  -23.3211  -49.0791 O.2       12 UNK        -0.5000 
     74 N          -3.1531  -23.2783  -46.8322 N.am      13 UNK        -0.5000 
     75 CA         -3.8352  -24.5291  -46.5109 C.3       13 UNK         0.1400 
     76 CB         -4.0704  -24.5995  -44.9942 C.3       13 UNK        -0.1800 
     77 C          -3.0733  -25.7744  -47.0034 C.2       13 UNK         0.5000 
     78 O          -3.7006  -26.6990  -47.5216 O.2       13 UNK        -0.5000 
     79 N          -1.7464  -25.7876  -46.8165 N.am      14 UNK        -0.5000 
     80 CA         -0.8742  -26.9110  -47.1562 C.3       14 UNK         0.1400 
     81 CB          0.4841  -26.7405  -46.4580 C.3       14 UNK        -0.1800 
     82 C          -0.6788  -27.1000  -48.6694 C.2       14 UNK         0.5000 
     83 O          -0.7177  -28.2377  -49.1403 O.2       14 UNK        -0.5000 
     84 N          -0.4460  -25.9990  -49.3969 N.am      15 UNK        -0.5000 
     85 CA         -0.1896  -26.0088  -50.8361 C.3       15 UNK         0.1400 
     86 CB          0.4516  -24.6780  -51.2622 C.3       15 UNK        -0.1800 
     87 C          -1.4611  -26.3161  -51.6436 C.2       15 UNK         0.5000 
     88 O          -1.4906  -27.3146  -52.3656 O.2       15 UNK        -0.5000 
     89 N          -2.4852  -25.4647  -51.4808 N.am      16 UNK        -0.5000 
     90 CA         -3.7900  -25.5147  -52.1496 C.3       16 UNK         0.1400 
     91 CB         -4.6226  -26.6859  -51.5834 C.3       16 UNK        -0.1800 
     92 C          -3.6947  -25.5161  -53.6987 C.2       16 UNK         0.5000 
     93 O          -2.7031  -25.0383  -54.2545 O.2       16 UNK        -0.5000 
     94 N          -4.7346  -26.0378  -54.3653 N.am      17 UNK        -0.5000 
     95 CA         -4.8670  -26.1949  -55.8190 C.3       17 UNK         0.1400 
     96 CB         -3.7804  -27.1387  -56.3796 C.3       17 UNK        -0.1800 
     97 C          -4.9819  -24.8613  -56.5923 C.2       17 UNK         0.5000 
     98 O          -4.4158  -24.7312  -57.6797 O.2       17 UNK        -0.5000 
     99 N          -5.7707  -23.9282  -56.0384 N.am      18 UNK        -0.5000 
    100 CA        -6.1809  -22.6342  -56.6024 C.3       18 UNK         0.1400 
    101 CB        -6.8457  -22.8105  -57.9866 C.3       18 UNK        -0.1800 
    102 C         -5.0678  -21.5639  -56.6143 C.2       18 UNK         0.5000 
    103 O         -3.9338  -21.8392  -56.2218 O.2       18 UNK        -0.5000 
    104 N         -5.4489  -20.3554  -57.0581 N.am      19 UNK        -0.5000 
    105 CA        -4.6975  -19.0946  -57.0907 C.3       19 UNK         0.1400 
    106 CB        -3.3097  -19.2396  -57.7482 C.3       19 UNK        -0.1800 
    107 C         -4.6227  -18.4391  -55.6988 C.2       19 UNK         0.5000 
    108 O         -3.8698  -18.8913  -54.8361 O.2       19 UNK        -0.5000 
    109 N         -5.4117  -17.3715  -55.5102 N.am      20 UNK        -0.5000 
    110 CA        -5.5466  -16.5861  -54.2774 C.3       20 UNK         0.1400 
    111 CB        -4.2404  -15.8149  -53.9746 C.3       20 UNK        -0.1800 
    112 C         -6.0621  -17.4492  -53.1048 C.2       20 UNK         0.5000 
    113 O         -7.0157  -18.2086  -53.2932 O.2       20 UNK        -0.5000 
    114 N         -5.4319  -17.3407  -51.9261 N.am      21 UNK        -0.5000 
    115 CA        -5.7881  -18.0740  -50.7052 C.3       21 UNK         0.1400 
    116 CB        -4.9520  -17.5394  -49.5340 C.3       21 UNK        -0.1800 
    117 C         -5.6408  -19.6058  -50.8185 C.2       21 UNK         0.5000 
    118 O         -6.2663  -20.3266  -50.0407 O.2       21 UNK        -0.5000 
    119 N         -4.8503  -20.0730  -51.7935 N.am      22 UNK        -0.5000 
    120 CA        -4.7741  -21.4837  -52.1973 C.3       22 UNK         0.1400 
    121 C         -6.0339  -21.9928  -52.9623 C.2       22 UNK         0.5000 
    122 N         -6.9713  -21.1445  -53.3731 N.am      22 UNK        -0.7600 
    123 O         -6.1746  -23.1935  -53.1788 O.2       22 UNK        -0.5000 
    124 C124       -3.4780  -21.7731  -52.9949 C.3       23 UNK        -0.0398 
    125 S125       -1.9941  -21.7566  -51.9434 S.3       23 UNK        -0.2404 
    126 C126       -1.1677  -20.2183  -52.4476 C.3       23 UNK        -0.0205 
    127 H127        2.5383   -9.6973  -48.3463 H         1 UNK         0.0600 
    128 H128        2.1721  -10.8914  -49.5960 H         1 UNK         0.0600 
    129 H129        3.6392  -11.0507  -48.6250 H         1 UNK         0.0600 
    130 H130        0.5934  -12.3362  -48.9670 H         1 UNK         0.3000 
    131 H131        0.7234  -13.9212  -46.6814 H         1 UNK         0.0600 
    132 H132       -1.6268  -14.6606  -47.3317 H         1 UNK         0.0800 
    133 H133       -1.6554  -13.4094  -48.5448 H         1 UNK         0.0800 
    134 H134       -0.8818  -16.9679  -47.6822 H         1 UNK         0.0800 
    135 H135       -2.0088  -16.7002  -48.9779 H         1 UNK         0.0800 
    136 H136       -1.9585  -18.1523  -50.8808 H         1 UNK         0.1150 
    137 H137        1.2921  -20.8876  -51.4416 H         1 UNK         0.1150 
    138 H138        1.4621  -17.9584  -48.3119 H         1 UNK         0.1150 
    139 H139        3.5323  -20.0040  -50.3757 H         1 UNK         0.0800 
    140 H140        3.4316  -19.2081  -48.8301 H         1 UNK         0.0800 
    141 H141        1.6975  -20.2505  -47.0660 H         1 UNK         0.0800 
    142 H142        3.0005  -21.1031  -46.2881 H         1 UNK         0.0800 
    143 H143        1.7561  -23.2700  -46.6014 H         1 UNK         0.0600 
    144 H144        1.1050  -21.2959  -44.7100 H         1 UNK         0.3000 
    145 H145       -1.3500  -23.1317  -42.8491 H         1 UNK         0.0600 
    146 H146        0.2322  -22.4656  -41.0479 H         1 UNK         0.0600 
    147 H147        0.8576  -23.8219  -41.9728 H         1 UNK         0.0600 
    148 H148        1.5098  -22.2126  -42.2344 H         1 UNK         0.0600 
    149 H149       -0.2419  -20.4632  -42.7110 H         1 UNK         0.3000 
    150 H150       -2.7427  -18.8949  -44.6877 H         1 UNK         0.0600 
    151 H151       -3.8703  -19.1321  -42.4902 H         1 UNK         0.0600 
    152 H152       -3.0671  -17.5735  -42.6065 H         1 UNK         0.0600 
    153 H153       -2.3472  -18.8688  -41.6501 H         1 UNK         0.0600 
    154 H154       -0.5435  -17.9123  -43.1155 H         1 UNK         0.3000 
    155 H155        1.9333  -18.3446  -45.6884 H         1 UNK         0.0600 
    156 H156        0.5101  -15.7649  -44.8876 H         1 UNK         0.0600 
    157 H157        0.9108  -16.3042  -46.5129 H         1 UNK         0.0600 
    158 H158        2.1923  -15.8720  -45.4087 H         1 UNK         0.0600 
    159 H159        2.1383  -16.9626  -43.2494 H         1 UNK         0.3000 
    160 H160        3.0951  -19.7845  -41.2609 H         1 UNK         0.0600 
    161 H161        4.7290  -17.5518  -42.5837 H         1 UNK         0.0600 
    162 H162        5.0763  -19.2755  -42.6770 H         1 UNK         0.0600 
    163 H163        5.1852  -18.4433  -41.1331 H         1 UNK         0.0600 
    164 H164        2.6457  -16.8163  -41.3298 H         1 UNK         0.3000 
    165 H165        0.2761  -17.0236  -38.7280 H         1 UNK         0.0600 
    166 H166        1.6615  -15.3156  -37.5869 H         1 UNK         0.0600 
    167 H167        2.3861  -16.9023  -37.3849 H         1 UNK         0.0600 
    168 H168        3.0695  -15.7719  -38.5475 H         1 UNK         0.0600 
    169 H169        1.3309  -14.7493  -40.0175 H         1 UNK         0.3000 
    170 H170       -0.5342  -14.9047  -43.0425 H         1 UNK         0.0600 
    171 H171       -2.1683  -14.1520  -41.3036 H         1 UNK         0.0600 
    172 H172       -0.9241  -13.1405  -40.5760 H         1 UNK         0.0600 
    173 H173       -1.4993  -12.8050  -42.2086 H         1 UNK         0.0600 
    174 H174        0.8795  -12.7428  -42.4572 H         1 UNK         0.3000 
    175 H175        3.9725  -12.9374  -42.3593 H         1 UNK         0.0600 
    176 H176        3.4473  -13.8253  -45.2441 H         1 UNK         0.0600 
    177 H177        4.8381  -12.8991  -44.6911 H         1 UNK         0.0600 
    178 H178        4.6154  -14.5514  -44.1438 H         1 UNK         0.0600 
    179 H179        2.4170  -11.7462  -44.5516 H         1 UNK         0.3000 
    180 H180        1.3732   -8.9492  -42.5736 H         1 UNK         0.0600 
    181 H181        3.2566   -9.3027  -44.9662 H         1 UNK         0.0600 
    182 H182        3.6343   -8.4462  -43.4762 H         1 UNK         0.0600 
    183 H183        2.3818   -7.8320  -44.5442 H         1 UNK         0.0600 
    184 H184        0.9714  -10.1925  -45.2385 H         1 UNK         0.3000 
    185 H185       -2.4183  -10.9561  -44.6170 H         1 UNK         0.0600 
    186 H186       -2.6521   -8.4980  -44.9615 H         1 UNK         0.0600 
    187 H187       -1.4030   -8.5341  -46.2002 H         1 UNK         0.0600 
    188 H188       -2.9338   -9.3721  -46.4584 H         1 UNK         0.0600 
    189 H189       -0.7438  -10.7684  -46.9849 H         1 UNK         0.3000 
    190 H190       -0.8071  -20.7411  -46.7805 H         1 UNK         0.3000 
    191 H191       -1.8774  -21.3982  -49.2406 H         1 UNK         0.0600 
    192 H192       -2.4592  -19.3472  -48.0075 H         1 UNK         0.0600 
    193 H193       -3.9247  -20.2229  -48.4218 H         1 UNK         0.0600 
    194 H194       -3.3066  -20.2812  -46.7779 H         1 UNK         0.0600 
    195 H195       -2.7538  -22.7614  -46.0572 H         1 UNK         0.3000 
    196 H196       -4.8093  -24.5185  -47.0043 H         1 UNK         0.0600 
    197 H197       -4.5965  -25.5153  -44.7219 H         1 UNK         0.0600 
    198 H198       -4.6761  -23.7607  -44.6504 H         1 UNK         0.0600 
    199 H199       -3.1315  -24.5811  -44.4395 H         1 UNK         0.0600 
    200 H200       -1.3068  -25.0036  -46.3421 H         1 UNK         0.3000 
    201 H201       -1.3345  -27.8219  -46.7676 H         1 UNK         0.0600 
    202 H202        0.3693  -26.7172  -45.3742 H         1 UNK         0.0600 
    203 H203        0.9792  -25.8175  -46.7624 H         1 UNK         0.0600 
    204 H204        1.1541  -27.5678  -46.6954 H         1 UNK         0.0600 
    205 H205       -0.4101  -25.0928  -48.9326 H         1 UNK         0.3000 
    206 H206        0.5334  -26.7997  -51.0475 H         1 UNK         0.0600 
    207 H207        1.4222  -24.5397  -50.7855 H         1 UNK         0.0600 
    208 H208        0.6077  -24.6438  -52.3410 H         1 UNK         0.0600 
    209 H209       -0.1698  -23.8252  -50.9920 H         1 UNK         0.0600 
    210 H210       -2.3523  -24.6773  -50.8596 H         1 UNK         0.3000 
    211 H211       -4.2937  -24.5894  -51.8711 H         1 UNK         0.0600 
    212 H212       -4.2402  -27.6517  -51.9161 H         1 UNK         0.0600 
    213 H213       -5.6679  -26.6170  -51.8855 H         1 UNK         0.0600 
    214 H214       -4.6093  -26.6825  -50.4929 H         1 UNK         0.0600 
    215 H215       -5.5155  -26.3779  -53.8220 H         1 UNK         0.3000 
    216 H216       -5.8239  -26.6965  -55.9702 H         1 UNK         0.0600 
    217 H217       -3.9799  -27.3875  -57.4225 H         1 UNK         0.0600 
    218 H218       -3.7471  -28.0763  -55.8247 H         1 UNK         0.0600 
    219 H219       -2.7884  -26.6885  -56.3376 H         1 UNK         0.0600 
    220 H220       -6.0920  -24.0895  -55.0901 H         1 UNK         0.3000 
    221 H221       -6.9514  -22.2638  -55.9267 H         1 UNK         0.0600 
    222 H222       -6.1155  -23.0401  -58.7631 H         1 UNK         0.0600 
    223 H223       -7.5829  -23.6134  -57.9716 H         1 UNK         0.0600 
    224 H224       -7.3693  -21.9054  -58.2945 H         1 UNK         0.0600 
    225 H225       -6.4143  -20.2610  -57.3404 H         1 UNK         0.3000 
    226 H226       -5.2755  -18.4334  -57.7384 H         1 UNK         0.0600 
    227 H227       -3.3810  -19.7271  -58.7204 H         1 UNK         0.0600 
    228 H228       -2.8565  -18.2605  -57.9063 H         1 UNK         0.0600 
    229 H229       -2.6183  -19.8149  -57.1322 H         1 UNK         0.0600 
    230 H230       -6.0245  -17.0919  -56.2632 H         1 UNK         0.3000 
    231 H231       -6.3260  -15.8474  -54.4695 H         1 UNK         0.0600 
    232 H232       -3.4169  -16.4815  -53.7153 H         1 UNK         0.0600 
    233 H233       -4.3757  -15.1137  -53.1504 H         1 UNK         0.0600 
    234 H234       -3.9273  -15.2288  -54.8387 H         1 UNK         0.0600 
    235 H235       -4.6528  -16.7026  -51.8570 H         1 UNK         0.3000 
    236 H236       -6.8391  -17.8657  -50.4944 H         1 UNK         0.0600 
    237 H237       -5.0507  -16.4587  -49.4304 H         1 UNK         0.0600 
    238 H238       -5.2714  -17.9861  -48.5916 H         1 UNK         0.0600 
    239 H239       -3.8978  -17.7751  -49.6637 H         1 UNK         0.0600 
    240 H240       -4.3972  -19.4130  -52.4098 H         1 UNK         0.3000 
    241 H241       -4.7380  -22.0830  -51.2854 H         1 UNK         0.0600 
    242 H242       -6.8893  -20.1439  -53.2210 H         1 UNK         0.3800 
    243 H243       -7.7983  -21.5063  -53.8183 H         1 UNK         0.3800 
    244 H244       -3.5204  -22.7499  -53.4674 H         1 UNK         0.0800 
    245 H245       -3.3562  -21.0721  -53.8158 H         1 UNK         0.0800 
    246 H246       -1.9001  -19.5107  -52.8392 H         1 UNK         0.0800 
    247 H247       -0.4786  -20.4309  -53.2659 H         1 UNK         0.0800 
@<TRIPOS>BOND
     1    1    2 1    
     2    1  127 1    
     3    1  128 1    
     4    1  129 1    
     5    2    3 2    
     6    2    4 am   BACKBONE|DICT|INTERRES
     7    4    5 1    
     8    4  130 1    
     9    5    6 1    
    10    5   65 1    
    11    5  131 1    
    12    6    7 1    
    13    6  132 1    
    14    6  133 1    
    15    7    8 1    
    16    8    9 1    
    17    8  134 1    
    18    8  135 1    
    19    9   10 ar   
    20    9   14 ar   
    21   10   11 ar   
    22   10  136 1    
    23   11   12 ar   
    24   11  126 1    
    25   12   13 ar   
    26   12  137 1    
    27   13   14 ar   
    28   13   15 1    
    29   14  138 1    
    30   15   16 1    
    31   15  139 1    
    32   15  140 1    
    33   16   17 1    
    34   17   18 1    
    35   17  141 1    
    36   17  142 1    
    37   18   19 1    
    38   18   67 1    
    39   18  143 1    
    40   19   20 am   BACKBONE|DICT|INTERRES
    41   19  144 1    
    42   20   21 2    
    43   20   22 1    
    44   22   23 1    
    45   22   24 1    
    46   22  145 1    
    47   23  146 1    
    48   23  147 1    
    49   23  148 1    
    50   24   25 am   BACKBONE|DICT|INTERRES
    51   24  149 1    
    52   25   26 2    
    53   25   27 1    
    54   27   28 1    
    55   27   29 1    
    56   27  150 1    
    57   28  151 1    
    58   28  152 1    
    59   28  153 1    
    60   29   30 am   BACKBONE|DICT|INTERRES
    61   29  154 1    
    62   30   31 2    
    63   30   32 1    
    64   32   33 1    
    65   32   34 1    
    66   32  155 1    
    67   33  156 1    
    68   33  157 1    
    69   33  158 1    
    70   34   35 am   BACKBONE|DICT|INTERRES
    71   34  159 1    
    72   35   36 2    
    73   35   37 1    
    74   37   38 1    
    75   37   39 1    
    76   37  160 1    
    77   38  161 1    
    78   38  162 1    
    79   38  163 1    
    80   39   40 am   BACKBONE|DICT|INTERRES
    81   39  164 1    
    82   40   41 2    
    83   40   42 1    
    84   42   43 1    
    85   42   44 1    
    86   42  165 1    
    87   43  166 1    
    88   43  167 1    
    89   43  168 1    
    90   44   45 am   BACKBONE|DICT|INTERRES
    91   44  169 1    
    92   45   46 2    
    93   45   47 1    
    94   47   48 1    
    95   47   49 1    
    96   47  170 1    
    97   48  171 1    
    98   48  172 1    
    99   48  173 1    
   100   49   50 am   BACKBONE|DICT|INTERRES
   101   49  174 1    
   102   50   51 2    
   103   50   52 1    
   104   52   53 1    
   105   52   54 1    
   106   52  175 1    
   107   53  176 1    
   108   53  177 1    
   109   53  178 1    
   110   54   55 am   BACKBONE|DICT|INTERRES
   111   54  179 1    
   112   55   56 2    
   113   55   57 1    
   114   57   58 1    
   115   57   59 1    
   116   57  180 1    
   117   58  181 1    
   118   58  182 1    
   119   58  183 1    
   120   59   60 am   BACKBONE|DICT|INTERRES
   121   59  184 1    
   122   60   61 2    
   123   60   62 1    
   124   62   63 1    
   125   62   64 1    
   126   62  185 1    
   127   63  186 1    
   128   63  187 1    
   129   63  188 1    
   130   64   65 am   BACKBONE|DICT|INTERRES
   131   64  189 1    
   132   65   66 2    
   133   67   68 2    
   134   67   69 am   BACKBONE|DICT|INTERRES
   135   69   70 1    
   136   69  190 1    
   137   70   71 1    
   138   70   72 1    
   139   70  191 1    
   140   71  192 1    
   141   71  193 1    
   142   71  194 1    
   143   72   73 2    
   144   72   74 am   BACKBONE|DICT|INTERRES
   145   74   75 1    
   146   74  195 1    
   147   75   76 1    
   148   75   77 1    
   149   75  196 1    
   150   76  197 1    
   151   76  198 1    
   152   76  199 1    
   153   77   78 2    
   154   77   79 am   BACKBONE|DICT|INTERRES
   155   79   80 1    
   156   79  200 1    
   157   80   81 1    
   158   80   82 1    
   159   80  201 1    
   160   81  202 1    
   161   81  203 1    
   162   81  204 1    
   163   82   83 2    
   164   82   84 am   BACKBONE|DICT|INTERRES
   165   84   85 1    
   166   84  205 1    
   167   85   86 1    
   168   85   87 1    
   169   85  206 1    
   170   86  207 1    
   171   86  208 1    
   172   86  209 1    
   173   87   88 2    
   174   87   89 am   BACKBONE|DICT|INTERRES
   175   89   90 1    
   176   89  210 1    
   177   90   91 1    
   178   90   92 1    
   179   90  211 1    
   180   91  212 1    
   181   91  213 1    
   182   91  214 1    
   183   92   93 2    
   184   92   94 am   BACKBONE|DICT|INTERRES
   185   94   95 1    
   186   94  215 1    
   187   95   96 1    
   188   95   97 1    
   189   95  216 1    
   190   96  217 1    
   191   96  218 1    
   192   96  219 1    
   193   97   98 2    
   194   97   99 am   BACKBONE|DICT|INTERRES
   195   99  100 1    
   196   99  220 1    
   197  100  101 1    
   198  100  102 1    
   199  100  221 1    
   200  101  222 1    
   201  101  223 1    
   202  101  224 1    
   203  102  103 2    
   204  102  104 am   BACKBONE|DICT|INTERRES
   205  104  105 1    
   206  104  225 1    
   207  105  106 1    
   208  105  107 1    
   209  105  226 1    
   210  106  227 1    
   211  106  228 1    
   212  106  229 1    
   213  107  108 2    
   214  107  109 am   BACKBONE|DICT|INTERRES
   215  109  110 1    
   216  109  230 1    
   217  110  111 1    
   218  110  112 1    
   219  110  231 1    
   220  111  232 1    
   221  111  233 1    
   222  111  234 1    
   223  112  113 2    
   224  112  114 am   BACKBONE|DICT|INTERRES
   225  114  115 1    
   226  114  235 1    
   227  115  116 1    
   228  115  117 1    
   229  115  236 1    
   230  116  237 1    
   231  116  238 1    
   232  116  239 1    
   233  117  118 2    
   234  117  119 am   BACKBONE|DICT|INTERRES
   235  119  120 1    
   236  119  240 1    
   237  120  121 1    
   238  120  124 1    
   239  120  241 1    
   240  121  122 am   BACKBONE|DICT|INTERRES
   241  121  123 2    
   242  122  242 1    
   243  122  243 1    
   244  124  125 1    
   245  124  244 1    
   246  124  245 1    
   247  125  126 1    
   248  126  246 1    
   249  126  247 1    
@<TRIPOS>SUBSTRUCTURE
     1 UNK         1 GROUP             0       ****    0 ROOT    
