@<TRIPOS>MOLECULE
3R540
247   249    1
SMALL
USER_CHARGES


@<TRIPOS>ATOM
      1 CA          6.1476  -11.5979  -44.9677 C.3       0 UNK        -0.1800 
      2 C           4.9312  -12.5114  -44.9292 C.2       0 UNK         0.5000 
      3 O           4.5489  -12.9933  -43.8610 O.2       0 UNK        -0.5000 
      4 N           4.3298  -12.7664  -46.0963 N.am      1 UNK        -0.5000 
      5 CA          3.1819  -13.6596  -46.2789 C.3       1 UNK         0.1400 
      6 C6          2.9734  -13.9983  -47.7772 C.3       23 UNK        -0.0398 
      7 S7          2.3317  -15.6808  -48.0246 S.3       23 UNK        -0.2404 
      8 C8          1.6377  -15.5395  -49.7031 C.3       23 UNK        -0.0205 
      9 C9          0.8083  -16.7600  -50.0775 C.ar      23 UNK        -0.0193 
     10 C10        -0.5431  -16.6239  -50.4100 C.ar      23 UNK        -0.1150 
     11 C11        -1.3058  -17.7437  -50.7563 C.ar      23 UNK        -0.0193 
     12 C12        -0.7168  -19.0110  -50.7351 C.ar      23 UNK        -0.1150 
     13 C13         0.6347  -19.1612  -50.4109 C.ar      23 UNK        -0.0193 
     14 C14         1.3954  -18.0276  -50.1064 C.ar      23 UNK        -0.1150 
     15 C15         1.2598  -20.5519  -50.3902 C.3       23 UNK        -0.0205 
     16 S16         2.2776  -20.8861  -48.9090 S.3       23 UNK        -0.2404 
     17 C17         1.1775  -20.3889  -47.5383 C.3       23 UNK        -0.0398 
     18 CA          0.3773  -21.5628  -46.9344 C.3       11 UNK         0.1400 
     19 N          -0.0714  -21.2491  -45.5793 N.am      11 UNK        -0.5000 
     20 C          -0.6572  -22.1111  -44.7390 C.2       10 UNK         0.5000 
     21 O          -0.8366  -23.3026  -44.9899 O.2       10 UNK        -0.5000 
     22 CA         -1.1725  -21.5221  -43.4159 C.3       10 UNK         0.1400 
     23 CB         -0.0367  -21.4090  -42.3885 C.3       10 UNK        -0.1800 
     24 N          -1.7906  -20.2099  -43.6144 N.am      10 UNK        -0.5000 
     25 C          -2.9642  -20.0184  -44.2328 C.2       9 UNK         0.5000 
     26 O          -3.6610  -20.9334  -44.6726 O.2       9 UNK        -0.5000 
     27 CA         -3.4168  -18.5582  -44.4204 C.3       9 UNK         0.1400 
     28 CB         -4.0427  -18.0131  -43.1280 C.3       9 UNK        -0.1800 
     29 N          -2.3304  -17.6726  -44.8458 N.am      9 UNK        -0.5000 
     30 C          -1.7100  -17.7569  -46.0313 C.2       8 UNK         0.5000 
     31 O          -1.9907  -18.5900  -46.8885 O.2       8 UNK        -0.5000 
     32 CA         -0.5550  -16.7749  -46.2936 C.3       8 UNK         0.1400 
     33 CB         -1.1120  -15.4386  -46.8112 C.3       8 UNK        -0.1800 
     34 N           0.3059  -16.5279  -45.1318 N.am      8 UNK        -0.5000 
     35 C           0.9045  -17.4668  -44.3861 C.2       7 UNK         0.5000 
     36 O           0.7997  -18.6777  -44.5911 O.2       7 UNK        -0.5000 
     37 CA          1.6977  -16.9488  -43.1735 C.3       7 UNK         0.1400 
     38 CB          1.6599  -17.9311  -41.9860 C.3       7 UNK        -0.1800 
     39 N           3.0810  -16.5654  -43.4727 N.am      7 UNK        -0.5000 
     40 C           4.0704  -17.3333  -43.9593 C.2       6 UNK         0.5000 
     41 O           3.9226  -18.4859  -44.3634 O.2       6 UNK        -0.5000 
     42 CA          5.4916  -16.7314  -43.9345 C.3       6 UNK         0.1400 
     43 CB          5.9689  -16.3205  -45.3365 C.3       6 UNK        -0.1800 
     44 N           5.5905  -15.5881  -43.0203 N.am      6 UNK        -0.5000 
     45 C           5.9553  -15.6812  -41.7329 C.2       5 UNK         0.5000 
     46 O           6.3503  -16.7193  -41.2012 O.2       5 UNK        -0.5000 
     47 CA          5.8025  -14.4065  -40.8874 C.3       5 UNK         0.1400 
     48 CB          6.8592  -13.3538  -41.2568 C.3       5 UNK        -0.1800 
     49 N           4.4628  -13.8464  -41.0587 N.am      5 UNK        -0.5000 
     50 C           3.3849  -14.2448  -40.3683 C.2       4 UNK         0.5000 
     51 O           3.4337  -15.0677  -39.4531 O.2       4 UNK        -0.5000 
     52 CA          2.0203  -13.6624  -40.7928 C.3       4 UNK         0.1400 
     53 CB          1.0293  -13.5210  -39.6182 C.3       4 UNK        -0.1800 
     54 N           2.1208  -12.4265  -41.5740 N.am      4 UNK        -0.5000 
     55 C           2.4903  -11.2111  -41.1424 C.2       3 UNK         0.5000 
     56 O           2.7964  -10.9590  -39.9767 O.2       3 UNK        -0.5000 
     57 CA          2.5555  -10.0844  -42.1943 C.3       3 UNK         0.1400 
     58 CB          3.9974   -9.5711  -42.3320 C.3       3 UNK        -0.1800 
     59 N           2.0721  -10.4967  -43.5161 N.am      3 UNK        -0.5000 
     60 C           0.7828  -10.5871  -43.8740 C.2       2 UNK         0.5000 
     61 O          -0.1526  -10.3036  -43.1258 O.2       2 UNK        -0.5000 
     62 CA          0.4863  -11.0903  -45.3009 C.3       2 UNK         0.1400 
     63 CB          0.1284   -9.9138  -46.2217 C.3       2 UNK        -0.1800 
     64 N           1.6059  -11.8291  -45.8907 N.am      2 UNK        -0.5000 
     65 C           1.9123  -13.1020  -45.6052 C.2       1 UNK         0.5000 
     66 O           1.2817  -13.8000  -44.8075 O.2       1 UNK        -0.5000 
     67 C          -0.8006  -21.9898  -47.8359 C.2       11 UNK         0.5000 
     68 O          -0.6981  -23.0056  -48.5223 O.2       11 UNK        -0.5000 
     69 N          -1.9171  -21.2479  -47.7779 N.am      12 UNK        -0.5000 
     70 CA         -3.1676  -21.5743  -48.4602 C.3       12 UNK         0.1400 
     71 CB         -4.1886  -20.4425  -48.2776 C.3       12 UNK        -0.1800 
     72 C          -3.7565  -22.9131  -47.9926 C.2       12 UNK         0.5000 
     73 O          -4.1380  -23.7202  -48.8373 O.2       12 UNK        -0.5000 
     74 N          -3.7839  -23.1510  -46.6732 N.am      13 UNK        -0.5000 
     75 CA         -4.2331  -24.4095  -46.0720 C.3       13 UNK         0.1400 
     76 CB         -4.2476  -24.2845  -44.5416 C.3       13 UNK        -0.1800 
     77 C          -3.3945  -25.6210  -46.5231 C.2       13 UNK         0.5000 
     78 O          -3.9667  -26.6501  -46.8850 O.2       13 UNK        -0.5000 
     79 N          -2.0639  -25.4563  -46.5581 N.am      14 UNK        -0.5000 
     80 CA         -1.1132  -26.4401  -47.0853 C.3       14 UNK         0.1400 
     81 CB          0.3199  -25.9830  -46.7744 C.3       14 UNK        -0.1800 
     82 C          -1.2893  -26.7040  -48.5951 C.2       14 UNK         0.5000 
     83 O          -1.1028  -27.8361  -49.0410 O.2       14 UNK        -0.5000 
     84 N          -1.6979  -25.6707  -49.3420 N.am      15 UNK        -0.5000 
     85 CA         -2.0493  -25.7115  -50.7627 C.3       15 UNK         0.1400 
     86 CB         -1.7388  -24.3383  -51.3857 C.3       15 UNK        -0.1800 
     87 C          -3.5129  -26.1420  -51.0186 C.2       15 UNK         0.5000 
     88 O          -4.0521  -25.8324  -52.0823 O.2       15 UNK        -0.5000 
     89 N          -4.1340  -26.8360  -50.0515 N.am      16 UNK        -0.5000 
     90 CA         -5.4868  -27.4031  -50.0839 C.3       16 UNK         0.1400 
     91 CB         -5.5756  -28.5384  -51.1251 C.3       16 UNK        -0.1800 
     92 C          -6.5813  -26.3298  -50.2528 C.2       16 UNK         0.5000 
     93 O          -7.4492  -26.4531  -51.1186 O.2       16 UNK        -0.5000 
     94 N          -6.4931  -25.2876  -49.4147 N.am      17 UNK        -0.5000 
     95 CA         -7.3106  -24.0686  -49.4117 C.3       17 UNK         0.1400 
     96 CB         -8.7963  -24.3820  -49.1356 C.3       17 UNK        -0.1800 
     97 C          -7.0798  -23.2209  -50.6800 C.2       17 UNK         0.5000 
     98 O          -8.0318  -22.6862  -51.2508 O.2       17 UNK        -0.5000 
     99 N          -5.8022  -23.1292  -51.0811 N.am      18 UNK        -0.5000 
    100 CA        -5.2707  -22.4684  -52.2751 C.3       18 UNK         0.1400 
    101 CB        -5.3433  -20.9359  -52.1227 C.3       18 UNK        -0.1800 
    102 C         -5.9358  -22.9908  -53.5637 C.2       18 UNK         0.5000 
    103 O         -6.5880  -22.2328  -54.2831 O.2       18 UNK        -0.5000 
    104 N         -5.7872  -24.2999  -53.8076 N.am      19 UNK        -0.5000 
    105 CA        -6.3497  -25.0168  -54.9516 C.3       19 UNK         0.1400 
    106 CB        -6.0209  -26.5122  -54.8206 C.3       19 UNK        -0.1800 
    107 C         -5.8548  -24.4407  -56.2930 C.2       19 UNK         0.5000 
    108 O         -4.6935  -24.6422  -56.6542 O.2       19 UNK        -0.5000 
    109 N         -6.7471  -23.7067  -56.9741 N.am      20 UNK        -0.5000 
    110 CA        -6.5253  -22.9628  -58.2191 C.3       20 UNK         0.1400 
    111 CB        -6.2587  -23.9290  -59.3932 C.3       20 UNK        -0.1800 
    112 C         -5.4556  -21.8538  -58.0905 C.2       20 UNK         0.5000 
    113 O         -4.7137  -21.6037  -59.0431 O.2       20 UNK        -0.5000 
    114 N         -5.3944  -21.2033  -56.9217 N.am      21 UNK        -0.5000 
    115 CA        -4.4547  -20.1305  -56.6068 C.3       21 UNK         0.1400 
    116 CB        -3.2484  -20.7304  -55.8620 C.3       21 UNK        -0.1800 
    117 C         -5.1414  -19.0502  -55.7571 C.2       21 UNK         0.5000 
    118 O         -6.1934  -19.3018  -55.1675 O.2       21 UNK        -0.5000 
    119 N         -4.5107  -17.8712  -55.6913 N.am      22 UNK        -0.5000 
    120 CA        -4.8502  -16.7531  -54.7870 C.3       22 UNK         0.1400 
    121 C         -6.2421  -16.0887  -55.0273 C.2       22 UNK         0.5000 
    122 N         -6.8713  -16.2744  -56.1811 N.am      22 UNK        -0.7600 
    123 O         -6.7466  -15.3623  -54.1749 O.2       22 UNK        -0.5000 
    124 C124       -4.5943  -17.1019  -53.2909 C.3       23 UNK        -0.0398 
    125 S125       -2.8615  -17.6002  -53.0064 S.3       23 UNK        -0.2404 
    126 C126       -2.7535  -17.5822  -51.1919 C.3       23 UNK        -0.0205 
    127 H127        6.9923  -12.0741  -44.4712 H         1 UNK         0.0600 
    128 H128        5.9371  -10.6568  -44.4626 H         1 UNK         0.0600 
    129 H129        6.4470  -11.3706  -45.9910 H         1 UNK         0.0600 
    130 H130        4.6948  -12.3389  -46.9357 H         1 UNK         0.3000 
    131 H131        3.4160  -14.5838  -45.7501 H         1 UNK         0.0600 
    132 H132        2.3277  -13.2690  -48.2697 H         1 UNK         0.0800 
    133 H133        3.9241  -13.9591  -48.3112 H         1 UNK         0.0800 
    134 H134        1.0290  -14.6363  -49.7654 H         1 UNK         0.0800 
    135 H135        2.4496  -15.4209  -50.4218 H         1 UNK         0.0800 
    136 H136       -0.9993  -15.6441  -50.4171 H         1 UNK         0.1150 
    137 H137       -1.3101  -19.8773  -50.9922 H         1 UNK         0.1150 
    138 H138        2.4425  -18.1338  -49.8600 H         1 UNK         0.1150 
    139 H139        0.4886  -21.3202  -50.4617 H         1 UNK         0.0800 
    140 H140        1.8851  -20.6657  -51.2764 H         1 UNK         0.0800 
    141 H141        0.5184  -19.5699  -47.8254 H         1 UNK         0.0800 
    142 H142        1.8337  -19.9681  -46.7747 H         1 UNK         0.0800 
    143 H143        1.0473  -22.4207  -46.8455 H         1 UNK         0.0600 
    144 H144        0.0791  -20.2941  -45.2627 H         1 UNK         0.3000 
    145 H145       -1.9278  -22.2012  -43.0150 H         1 UNK         0.0600 
    146 H146       -0.3970  -21.0056  -41.4421 H         1 UNK         0.0600 
    147 H147        0.3974  -22.3879  -42.1814 H         1 UNK         0.0600 
    148 H148        0.7670  -20.7649  -42.7454 H         1 UNK         0.0600 
    149 H149       -1.2468  -19.4047  -43.3419 H         1 UNK         0.3000 
    150 H150       -4.1830  -18.5479  -45.1986 H         1 UNK         0.0600 
    151 H151       -4.8659  -18.6473  -42.7960 H         1 UNK         0.0600 
    152 H152       -4.4460  -17.0115  -43.2775 H         1 UNK         0.0600 
    153 H153       -3.3167  -17.9652  -42.3153 H         1 UNK         0.0600 
    154 H154       -2.0364  -16.9590  -44.1958 H         1 UNK         0.3000 
    155 H155        0.0662  -17.2171  -47.0737 H         1 UNK         0.0600 
    156 H156       -1.7383  -15.5922  -47.6910 H         1 UNK         0.0600 
    157 H157       -0.3140  -14.7566  -47.1010 H         1 UNK         0.0600 
    158 H158       -1.7192  -14.9366  -46.0572 H         1 UNK         0.0600 
    159 H159        0.4901  -15.5518  -44.9162 H         1 UNK         0.3000 
    160 H160        1.1877  -16.0434  -42.8495 H         1 UNK         0.0600 
    161 H161        2.1961  -18.8548  -42.2052 H         1 UNK         0.0600 
    162 H162        0.6342  -18.2002  -41.7312 H         1 UNK         0.0600 
    163 H163        2.1101  -17.4887  -41.0970 H         1 UNK         0.0600 
    164 H164        3.3316  -15.6249  -43.2092 H         1 UNK         0.3000 
    165 H165        6.1575  -17.5274  -43.5944 H         1 UNK         0.0600 
    166 H166        7.0262  -16.0558  -45.3231 H         1 UNK         0.0600 
    167 H167        5.8498  -17.1394  -46.0473 H         1 UNK         0.0600 
    168 H168        5.4240  -15.4662  -45.7280 H         1 UNK         0.0600 
    169 H169        5.2849  -14.6853  -43.3718 H         1 UNK         0.3000 
    170 H170        5.9540  -14.6732  -39.8391 H         1 UNK         0.0600 
    171 H171        6.7759  -13.0373  -42.2954 H         1 UNK         0.0600 
    172 H172        6.7643  -12.4668  -40.6302 H         1 UNK         0.0600 
    173 H173        7.8662  -13.7474  -41.1141 H         1 UNK         0.0600 
    174 H174        4.3372  -13.2082  -41.8365 H         1 UNK         0.3000 
    175 H175        1.5903  -14.3918  -41.4741 H         1 UNK         0.0600 
    176 H176        0.0815  -13.0970  -39.9498 H         1 UNK         0.0600 
    177 H177        1.4239  -12.8857  -38.8251 H         1 UNK         0.0600 
    178 H178        0.8102  -14.4927  -39.1742 H         1 UNK         0.0600 
    179 H179        1.9136  -12.5192  -42.5590 H         1 UNK         0.3000 
    180 H180        1.9333   -9.2618  -41.8358 H         1 UNK         0.0600 
    181 H181        4.0853   -8.8267  -43.1235 H         1 UNK         0.0600 
    182 H182        4.6908  -10.3837  -42.5469 H         1 UNK         0.0600 
    183 H183        4.3312   -9.1004  -41.4064 H         1 UNK         0.0600 
    184 H184        2.7740  -10.7616  -44.1903 H         1 UNK         0.3000 
    185 H185       -0.3799  -11.7533  -45.2429 H         1 UNK         0.0600 
    186 H186       -0.7235   -9.3560  -45.8305 H         1 UNK         0.0600 
    187 H187        0.9593   -9.2146  -46.3244 H         1 UNK         0.0600 
    188 H188       -0.1436  -10.2620  -47.2184 H         1 UNK         0.0600 
    189 H189        2.1901  -11.3200  -46.5383 H         1 UNK         0.3000 
    190 H190       -1.9136  -20.3815  -47.2436 H         1 UNK         0.3000 
    191 H191       -2.9489  -21.6602  -49.5262 H         1 UNK         0.0600 
    192 H192       -5.1300  -20.6786  -48.7752 H         1 UNK         0.0600 
    193 H193       -4.4101  -20.2641  -47.2254 H         1 UNK         0.0600 
    194 H194       -3.8208  -19.5090  -48.7021 H         1 UNK         0.0600 
    195 H195       -3.4913  -22.4184  -46.0343 H         1 UNK         0.3000 
    196 H196       -5.2597  -24.5800  -46.4025 H         1 UNK         0.0600 
    197 H197       -4.6143  -25.2016  -44.0790 H         1 UNK         0.0600 
    198 H198       -4.9011  -23.4738  -44.2191 H         1 UNK         0.0600 
    199 H199       -3.2530  -24.0907  -44.1411 H         1 UNK         0.0600 
    200 H200       -1.6705  -24.5886  -46.2037 H         1 UNK         0.3000 
    201 H201       -1.2890  -27.3832  -46.5639 H         1 UNK         0.0600 
    202 H202        0.4703  -25.8603  -45.7016 H         1 UNK         0.0600 
    203 H203        0.5533  -25.0325  -47.2544 H         1 UNK         0.0600 
    204 H204        1.0484  -26.7154  -47.1242 H         1 UNK         0.0600 
    205 H205       -1.7815  -24.7645  -48.8944 H         1 UNK         0.3000 
    206 H206       -1.4164  -26.4494  -51.2592 H         1 UNK         0.0600 
    207 H207       -0.6953  -24.0636  -51.2306 H         1 UNK         0.0600 
    208 H208       -1.9146  -24.3394  -52.4621 H         1 UNK         0.0600 
    209 H209       -2.3556  -23.5532  -50.9501 H         1 UNK         0.0600 
    210 H210       -3.6271  -26.9856  -49.1891 H         1 UNK         0.3000 
    211 H211       -5.6524  -27.8496  -49.1023 H         1 UNK         0.0600 
    212 H212       -5.4233  -28.1732  -52.1404 H         1 UNK         0.0600 
    213 H213       -6.5525  -29.0223  -51.0943 H         1 UNK         0.0600 
    214 H214       -4.8276  -29.3072  -50.9318 H         1 UNK         0.0600 
    215 H215       -5.6767  -25.2484  -48.8167 H         1 UNK         0.3000 
    216 H216       -6.9493  -23.4652  -48.5778 H         1 UNK         0.0600 
    217 H217       -9.3645  -23.4637  -48.9840 H         1 UNK         0.0600 
    218 H218       -8.9112  -24.9864  -48.2359 H         1 UNK         0.0600 
    219 H219       -9.2621  -24.9180  -49.9628 H         1 UNK         0.0600 
    220 H220       -5.1143  -23.5954  -50.4973 H         1 UNK         0.3000 
    221 H221       -4.2167  -22.7403  -52.3396 H         1 UNK         0.0600 
    222 H222       -6.3724  -20.5806  -52.0639 H         1 UNK         0.0600 
    223 H223       -4.8192  -20.6018  -51.2285 H         1 UNK         0.0600 
    224 H224       -4.8745  -20.4396  -52.9721 H         1 UNK         0.0600 
    225 H225       -5.2236  -24.8548  -53.1666 H         1 UNK         0.3000 
    226 H226       -7.4355  -24.9122  -54.9041 H         1 UNK         0.0600 
    227 H227       -6.4741  -26.9326  -53.9229 H         1 UNK         0.0600 
    228 H228       -6.4041  -27.0743  -55.6730 H         1 UNK         0.0600 
    229 H229       -4.9454  -26.6858  -54.7655 H         1 UNK         0.0600 
    230 H230       -7.6547  -23.5674  -56.5516 H         1 UNK         0.3000 
    231 H231       -7.4622  -22.4459  -58.4314 H         1 UNK         0.0600 
    232 H232       -5.3012  -24.4400  -59.2889 H         1 UNK         0.0600 
    233 H233       -6.2412  -23.3946  -60.3438 H         1 UNK         0.0600 
    234 H234       -7.0380  -24.6877  -59.4646 H         1 UNK         0.0600 
    235 H235       -6.0425  -21.4353  -56.1736 H         1 UNK         0.3000 
    236 H236       -4.1086  -19.6527  -57.5257 H         1 UNK         0.0600 
    237 H237       -2.7308  -21.4645  -56.4797 H         1 UNK         0.0600 
    238 H238       -2.5229  -19.9609  -55.5954 H         1 UNK         0.0600 
    239 H239       -3.5534  -21.2276  -54.9407 H         1 UNK         0.0600 
    240 H240       -3.6614  -17.7470  -56.2233 H         1 UNK         0.3000 
    241 H241       -4.1453  -15.9621  -55.0455 H         1 UNK         0.0600 
    242 H242       -6.4721  -16.8676  -56.8909 H         1 UNK         0.3800 
    243 H243       -7.7650  -15.8350  -56.3372 H         1 UNK         0.3800 
    244 H244       -4.8024  -16.2397  -52.6554 H         1 UNK         0.0800 
    245 H245       -5.2590  -17.8998  -52.9574 H         1 UNK         0.0800 
    246 H246       -3.1648  -16.6489  -50.8042 H         1 UNK         0.0800 
    247 H247       -3.3631  -18.3887  -50.7835 H         1 UNK         0.0800 
@<TRIPOS>BOND
     1    1    2 1    
     2    1  127 1    
     3    1  128 1    
     4    1  129 1    
     5    2    3 2    
     6    2    4 am   BACKBONE|DICT|INTERRES
     7    4    5 1    
     8    4  130 1    
     9    5    6 1    
    10    5   65 1    
    11    5  131 1    
    12    6    7 1    
    13    6  132 1    
    14    6  133 1    
    15    7    8 1    
    16    8    9 1    
    17    8  134 1    
    18    8  135 1    
    19    9   10 ar   
    20    9   14 ar   
    21   10   11 ar   
    22   10  136 1    
    23   11   12 ar   
    24   11  126 1    
    25   12   13 ar   
    26   12  137 1    
    27   13   14 ar   
    28   13   15 1    
    29   14  138 1    
    30   15   16 1    
    31   15  139 1    
    32   15  140 1    
    33   16   17 1    
    34   17   18 1    
    35   17  141 1    
    36   17  142 1    
    37   18   19 1    
    38   18   67 1    
    39   18  143 1    
    40   19   20 am   BACKBONE|DICT|INTERRES
    41   19  144 1    
    42   20   21 2    
    43   20   22 1    
    44   22   23 1    
    45   22   24 1    
    46   22  145 1    
    47   23  146 1    
    48   23  147 1    
    49   23  148 1    
    50   24   25 am   BACKBONE|DICT|INTERRES
    51   24  149 1    
    52   25   26 2    
    53   25   27 1    
    54   27   28 1    
    55   27   29 1    
    56   27  150 1    
    57   28  151 1    
    58   28  152 1    
    59   28  153 1    
    60   29   30 am   BACKBONE|DICT|INTERRES
    61   29  154 1    
    62   30   31 2    
    63   30   32 1    
    64   32   33 1    
    65   32   34 1    
    66   32  155 1    
    67   33  156 1    
    68   33  157 1    
    69   33  158 1    
    70   34   35 am   BACKBONE|DICT|INTERRES
    71   34  159 1    
    72   35   36 2    
    73   35   37 1    
    74   37   38 1    
    75   37   39 1    
    76   37  160 1    
    77   38  161 1    
    78   38  162 1    
    79   38  163 1    
    80   39   40 am   BACKBONE|DICT|INTERRES
    81   39  164 1    
    82   40   41 2    
    83   40   42 1    
    84   42   43 1    
    85   42   44 1    
    86   42  165 1    
    87   43  166 1    
    88   43  167 1    
    89   43  168 1    
    90   44   45 am   BACKBONE|DICT|INTERRES
    91   44  169 1    
    92   45   46 2    
    93   45   47 1    
    94   47   48 1    
    95   47   49 1    
    96   47  170 1    
    97   48  171 1    
    98   48  172 1    
    99   48  173 1    
   100   49   50 am   BACKBONE|DICT|INTERRES
   101   49  174 1    
   102   50   51 2    
   103   50   52 1    
   104   52   53 1    
   105   52   54 1    
   106   52  175 1    
   107   53  176 1    
   108   53  177 1    
   109   53  178 1    
   110   54   55 am   BACKBONE|DICT|INTERRES
   111   54  179 1    
   112   55   56 2    
   113   55   57 1    
   114   57   58 1    
   115   57   59 1    
   116   57  180 1    
   117   58  181 1    
   118   58  182 1    
   119   58  183 1    
   120   59   60 am   BACKBONE|DICT|INTERRES
   121   59  184 1    
   122   60   61 2    
   123   60   62 1    
   124   62   63 1    
   125   62   64 1    
   126   62  185 1    
   127   63  186 1    
   128   63  187 1    
   129   63  188 1    
   130   64   65 am   BACKBONE|DICT|INTERRES
   131   64  189 1    
   132   65   66 2    
   133   67   68 2    
   134   67   69 am   BACKBONE|DICT|INTERRES
   135   69   70 1    
   136   69  190 1    
   137   70   71 1    
   138   70   72 1    
   139   70  191 1    
   140   71  192 1    
   141   71  193 1    
   142   71  194 1    
   143   72   73 2    
   144   72   74 am   BACKBONE|DICT|INTERRES
   145   74   75 1    
   146   74  195 1    
   147   75   76 1    
   148   75   77 1    
   149   75  196 1    
   150   76  197 1    
   151   76  198 1    
   152   76  199 1    
   153   77   78 2    
   154   77   79 am   BACKBONE|DICT|INTERRES
   155   79   80 1    
   156   79  200 1    
   157   80   81 1    
   158   80   82 1    
   159   80  201 1    
   160   81  202 1    
   161   81  203 1    
   162   81  204 1    
   163   82   83 2    
   164   82   84 am   BACKBONE|DICT|INTERRES
   165   84   85 1    
   166   84  205 1    
   167   85   86 1    
   168   85   87 1    
   169   85  206 1    
   170   86  207 1    
   171   86  208 1    
   172   86  209 1    
   173   87   88 2    
   174   87   89 am   BACKBONE|DICT|INTERRES
   175   89   90 1    
   176   89  210 1    
   177   90   91 1    
   178   90   92 1    
   179   90  211 1    
   180   91  212 1    
   181   91  213 1    
   182   91  214 1    
   183   92   93 2    
   184   92   94 am   BACKBONE|DICT|INTERRES
   185   94   95 1    
   186   94  215 1    
   187   95   96 1    
   188   95   97 1    
   189   95  216 1    
   190   96  217 1    
   191   96  218 1    
   192   96  219 1    
   193   97   98 2    
   194   97   99 am   BACKBONE|DICT|INTERRES
   195   99  100 1    
   196   99  220 1    
   197  100  101 1    
   198  100  102 1    
   199  100  221 1    
   200  101  222 1    
   201  101  223 1    
   202  101  224 1    
   203  102  103 2    
   204  102  104 am   BACKBONE|DICT|INTERRES
   205  104  105 1    
   206  104  225 1    
   207  105  106 1    
   208  105  107 1    
   209  105  226 1    
   210  106  227 1    
   211  106  228 1    
   212  106  229 1    
   213  107  108 2    
   214  107  109 am   BACKBONE|DICT|INTERRES
   215  109  110 1    
   216  109  230 1    
   217  110  111 1    
   218  110  112 1    
   219  110  231 1    
   220  111  232 1    
   221  111  233 1    
   222  111  234 1    
   223  112  113 2    
   224  112  114 am   BACKBONE|DICT|INTERRES
   225  114  115 1    
   226  114  235 1    
   227  115  116 1    
   228  115  117 1    
   229  115  236 1    
   230  116  237 1    
   231  116  238 1    
   232  116  239 1    
   233  117  118 2    
   234  117  119 am   BACKBONE|DICT|INTERRES
   235  119  120 1    
   236  119  240 1    
   237  120  121 1    
   238  120  124 1    
   239  120  241 1    
   240  121  122 am   BACKBONE|DICT|INTERRES
   241  121  123 2    
   242  122  242 1    
   243  122  243 1    
   244  124  125 1    
   245  124  244 1    
   246  124  245 1    
   247  125  126 1    
   248  126  246 1    
   249  126  247 1    
@<TRIPOS>SUBSTRUCTURE
     1 UNK         1 GROUP             0       ****    0 ROOT    
