@<TRIPOS>MOLECULE
3R540
247   249    1
SMALL
USER_CHARGES


@<TRIPOS>ATOM
      1 CA         -2.1883  -16.7377  -50.2713 C.3       0 UNK        -0.1800 
      2 C          -2.8357  -17.2677  -49.0010 C.2       0 UNK         0.5000 
      3 O          -2.2422  -18.0903  -48.3070 O.2       0 UNK        -0.5000 
      4 N          -4.0472  -16.7893  -48.6894 N.am      1 UNK        -0.5000 
      5 CA         -4.7996  -17.1269  -47.4717 C.3       1 UNK         0.1400 
      6 C6         -6.2503  -16.5926  -47.5274 C.3       23 UNK        -0.0398 
      7 S7         -7.2270  -17.3365  -48.8748 S.3       23 UNK        -0.2404 
      8 C8         -8.3480  -18.4253  -47.9418 C.3       23 UNK        -0.0205 
      9 C9         -7.6665  -19.7168  -47.5147 C.ar      23 UNK        -0.0193 
     10 C10        -7.6754  -20.8171  -48.3732 C.ar      23 UNK        -0.1150 
     11 C11        -7.1006  -22.0273  -47.9822 C.ar      23 UNK        -0.0193 
     12 C12        -6.5014  -22.1313  -46.7232 C.ar      23 UNK        -0.1150 
     13 C13        -6.4739  -21.0340  -45.8510 C.ar      23 UNK        -0.0193 
     14 C14        -7.0633  -19.8310  -46.2577 C.ar      23 UNK        -0.1150 
     15 C15        -5.9036  -21.1353  -44.4350 C.3       23 UNK        -0.0205 
     16 S16        -4.5693  -22.3657  -44.2103 S.3       23 UNK        -0.2404 
     17 C17        -3.0445  -21.3769  -44.4092 C.3       23 UNK        -0.0398 
     18 CA         -2.2046  -21.7007  -45.6699 C.3       11 UNK         0.1400 
     19 N          -1.0257  -20.8342  -45.7401 N.am      11 UNK        -0.5000 
     20 C          -0.1959  -20.7387  -46.7882 C.2       10 UNK         0.5000 
     21 O          -0.3587  -21.3425  -47.8489 O.2       10 UNK        -0.5000 
     22 CA          1.0691  -19.8820  -46.5879 C.3       10 UNK         0.1400 
     23 CB          0.7617  -18.3832  -46.7233 C.3       10 UNK        -0.1800 
     24 N           1.7150  -20.1334  -45.2983 N.am      10 UNK        -0.5000 
     25 C           2.2461  -21.3066  -44.9271 C.2       9 UNK         0.5000 
     26 O           2.2774  -22.3000  -45.6493 O.2       9 UNK        -0.5000 
     27 CA          2.7939  -21.4055  -43.4939 C.3       9 UNK         0.1400 
     28 CB          4.2076  -20.8114  -43.3980 C.3       9 UNK        -0.1800 
     29 N           1.9154  -20.7590  -42.5207 N.am      9 UNK        -0.5000 
     30 C           0.6957  -21.2031  -42.1862 C.2       8 UNK         0.5000 
     31 O           0.1810  -22.2177  -42.6543 O.2       8 UNK        -0.5000 
     32 CA         -0.1020  -20.3369  -41.1958 C.3       8 UNK         0.1400 
     33 CB          0.3400  -20.6120  -39.7510 C.3       8 UNK        -0.1800 
     34 N           0.0242  -18.9077  -41.4815 N.am      8 UNK        -0.5000 
     35 C          -0.4300  -18.3230  -42.5979 C.2       7 UNK         0.5000 
     36 O          -1.0297  -18.9207  -43.4919 O.2       7 UNK        -0.5000 
     37 CA         -0.1163  -16.8265  -42.7653 C.3       7 UNK         0.1400 
     38 CB         -1.1449  -15.9788  -42.0005 C.3       7 UNK        -0.1800 
     39 N           1.2399  -16.4418  -42.3580 N.am      7 UNK        -0.5000 
     40 C           2.3689  -16.9778  -42.8499 C.2       6 UNK         0.5000 
     41 O           2.3673  -17.8715  -43.6953 O.2       6 UNK        -0.5000 
     42 CA          3.7207  -16.4501  -42.3296 C.3       6 UNK         0.1400 
     43 CB          4.7157  -16.2248  -43.4813 C.3       6 UNK        -0.1800 
     44 N           3.5870  -15.2087  -41.5672 N.am      6 UNK        -0.5000 
     45 C           3.4772  -15.1331  -40.2333 C.2       5 UNK         0.5000 
     46 O           3.4745  -16.1191  -39.4959 O.2       5 UNK        -0.5000 
     47 CA          3.3303  -13.7283  -39.6103 C.3       5 UNK         0.1400 
     48 CB          4.6740  -13.2538  -39.0360 C.3       5 UNK        -0.1800 
     49 N           2.8291  -12.7132  -40.5404 N.am      5 UNK        -0.5000 
     50 C           1.6054  -12.7099  -41.0839 C.2       4 UNK         0.5000 
     51 O           0.7540  -13.5647  -40.8358 O.2       4 UNK        -0.5000 
     52 CA          1.2803  -11.6073  -42.1146 C.3       4 UNK         0.1400 
     53 CB          2.3785  -10.5297  -42.2654 C.3       4 UNK        -0.1800 
     54 N           0.9479  -12.1910  -43.4192 N.am      4 UNK        -0.5000 
     55 C           1.7213  -13.0059  -44.1543 C.2       3 UNK         0.5000 
     56 O           2.8643  -13.3358  -43.8339 O.2       3 UNK        -0.5000 
     57 CA          1.0684  -13.5901  -45.4183 C.3       3 UNK         0.1400 
     58 CB          1.9212  -14.6811  -46.0986 C.3       3 UNK        -0.1800 
     59 N          -0.2422  -14.1238  -45.0567 N.am      3 UNK        -0.5000 
     60 C          -1.2581  -14.3352  -45.8972 C.2       2 UNK         0.5000 
     61 O          -1.2264  -14.0772  -47.1035 O.2       2 UNK        -0.5000 
     62 CA         -2.5291  -14.9257  -45.2724 C.3       2 UNK         0.1400 
     63 CB         -3.3534  -13.8513  -44.5434 C.3       2 UNK        -0.1800 
     64 N          -3.3273  -15.5336  -46.3237 N.am      2 UNK        -0.5000 
     65 C          -4.1155  -16.6058  -46.1892 C.2       1 UNK         0.5000 
     66 O          -4.3242  -17.1732  -45.1163 O.2       1 UNK        -0.5000 
     67 C          -1.8107  -23.1940  -45.7782 C.2       11 UNK         0.5000 
     68 O          -2.3895  -23.9133  -46.5939 O.2       11 UNK        -0.5000 
     69 N          -0.7987  -23.6250  -45.0066 N.am      12 UNK        -0.5000 
     70 CA         -0.2554  -24.9893  -45.0264 C.3       12 UNK         0.1400 
     71 CB          0.7646  -25.1576  -43.8910 C.3       12 UNK        -0.1800 
     72 C           0.3702  -25.3878  -46.3781 C.2       12 UNK         0.5000 
     73 O           0.2784  -26.5511  -46.7704 O.2       12 UNK        -0.5000 
     74 N           0.9461  -24.4092  -47.0881 N.am      13 UNK        -0.5000 
     75 CA          1.4645  -24.5262  -48.4525 C.3       13 UNK         0.1400 
     76 CB          2.4930  -23.4072  -48.6934 C.3       13 UNK        -0.1800 
     77 C           0.3652  -24.5126  -49.5379 C.2       13 UNK         0.5000 
     78 O           0.6991  -24.4359  -50.7201 O.2       13 UNK        -0.5000 
     79 N          -0.9144  -24.5735  -49.1384 N.am      14 UNK        -0.5000 
     80 CA         -2.1092  -24.5970  -49.9855 C.3       14 UNK         0.1400 
     81 CB         -2.1339  -25.8591  -50.8754 C.3       14 UNK        -0.1800 
     82 C          -2.2982  -23.2904  -50.7782 C.2       14 UNK         0.5000 
     83 O          -2.7358  -23.3268  -51.9291 O.2       14 UNK        -0.5000 
     84 N          -1.9646  -22.1588  -50.1403 N.am      15 UNK        -0.5000 
     85 CA         -2.0765  -20.7886  -50.6463 C.3       15 UNK         0.1400 
     86 CB         -3.5528  -20.3730  -50.8148 C.3       15 UNK        -0.1800 
     87 C          -1.2039  -20.5057  -51.8862 C.2       15 UNK         0.5000 
     88 O          -1.4706  -19.5554  -52.6203 O.2       15 UNK        -0.5000 
     89 N          -0.1301  -21.2919  -52.0627 N.am      16 UNK        -0.5000 
     90 CA          0.8566  -21.1746  -53.1430 C.3       16 UNK         0.1400 
     91 CB          1.7583  -22.4180  -53.1255 C.3       16 UNK        -0.1800 
     92 C           1.7034  -19.8838  -53.0976 C.2       16 UNK         0.5000 
     93 O           2.4319  -19.6011  -54.0495 O.2       16 UNK        -0.5000 
     94 N           1.5793  -19.1114  -52.0088 N.am      17 UNK        -0.5000 
     95 CA          2.0896  -17.7476  -51.8670 C.3       17 UNK         0.1400 
     96 CB          1.9196  -17.3128  -50.4019 C.3       17 UNK        -0.1800 
     97 C           1.4053  -16.7375  -52.8163 C.2       17 UNK         0.5000 
     98 O           1.9763  -15.6769  -53.0735 O.2       17 UNK        -0.5000 
     99 N           0.2143  -17.0811  -53.3232 N.am      18 UNK        -0.5000 
    100 CA        -0.5270  -16.3466  -54.3424 C.3       18 UNK         0.1400 
    101 CB        -1.8189  -15.8028  -53.7083 C.3       18 UNK        -0.1800 
    102 C         -0.8529  -17.2872  -55.5155 C.2       18 UNK         0.5000 
    103 O         -0.6270  -18.4966  -55.4313 O.2       18 UNK        -0.5000 
    104 N         -1.4106  -16.7176  -56.5918 N.am      19 UNK        -0.5000 
    105 CA        -1.9413  -17.4724  -57.7320 C.3       19 UNK         0.1400 
    106 CB        -2.1659  -16.5131  -58.9107 C.3       19 UNK        -0.1800 
    107 C         -3.2454  -18.2221  -57.3890 C.2       19 UNK         0.5000 
    108 O         -3.5362  -19.2546  -57.9949 O.2       19 UNK        -0.5000 
    109 N         -3.9989  -17.6996  -56.4118 N.am      20 UNK        -0.5000 
    110 CA        -5.2391  -18.2645  -55.8836 C.3       20 UNK         0.1400 
    111 CB        -6.0723  -17.1230  -55.2720 C.3       20 UNK        -0.1800 
    112 C         -4.9587  -19.4010  -54.8781 C.2       20 UNK         0.5000 
    113 O         -5.2978  -19.2839  -53.6994 O.2       20 UNK        -0.5000 
    114 N         -4.3273  -20.4759  -55.3647 N.am      21 UNK        -0.5000 
    115 CA        -4.0389  -21.6938  -54.6083 C.3       21 UNK         0.1400 
    116 CB        -3.0710  -22.5650  -55.4234 C.3       21 UNK        -0.1800 
    117 C         -5.3208  -22.4771  -54.2540 C.2       21 UNK         0.5000 
    118 O         -6.3301  -22.3618  -54.9550 O.2       21 UNK        -0.5000 
    119 N         -5.2470  -23.2791  -53.1867 N.am      22 UNK        -0.5000 
    120 CA        -6.3580  -24.0943  -52.6596 C.3       22 UNK         0.1400 
    121 C         -6.7500  -25.3166  -53.5427 C.2       22 UNK         0.5000 
    122 N         -5.9509  -25.7168  -54.5244 N.am      22 UNK        -0.7600 
    123 O         -7.8034  -25.9120  -53.3334 O.2       22 UNK        -0.5000 
    124 C124       -6.1077  -24.5516  -51.1973 C.3       23 UNK        -0.0398 
    125 S125       -5.7361  -23.1715  -50.0643 S.3       23 UNK        -0.2404 
    126 C126       -7.1429  -23.2199  -48.9224 C.3       23 UNK        -0.0205 
    127 H127       -1.3736  -16.0584  -50.0207 H         1 UNK         0.0600 
    128 H128       -1.7793  -17.5563  -50.8608 H         1 UNK         0.0600 
    129 H129       -2.9053  -16.1990  -50.8906 H         1 UNK         0.0600 
    130 H130       -4.5011  -16.1393  -49.3150 H         1 UNK         0.3000 
    131 H131       -4.8341  -18.2160  -47.3945 H         1 UNK         0.0600 
    132 H132       -6.2514  -15.5104  -47.6690 H         1 UNK         0.0800 
    133 H133       -6.7632  -16.7648  -46.5797 H         1 UNK         0.0800 
    134 H134       -8.7545  -17.8995  -47.0766 H         1 UNK         0.0800 
    135 H135       -9.2056  -18.6598  -48.5742 H         1 UNK         0.0800 
    136 H136       -8.1390  -20.7347  -49.3465 H         1 UNK         0.1150 
    137 H137       -6.0725  -23.0766  -46.4236 H         1 UNK         0.1150 
    138 H138       -7.0708  -18.9858  -45.5838 H         1 UNK         0.1150 
    139 H139       -5.5623  -20.1575  -44.0914 H         1 UNK         0.0800 
    140 H140       -6.7245  -21.4136  -43.7732 H         1 UNK         0.0800 
    141 H141       -3.3026  -20.3170  -44.4141 H         1 UNK         0.0800 
    142 H142       -2.4404  -21.5247  -43.5127 H         1 UNK         0.0800 
    143 H143       -2.8214  -21.4682  -46.5411 H         1 UNK         0.0600 
    144 H144       -0.8334  -20.2698  -44.9177 H         1 UNK         0.3000 
    145 H145        1.7799  -20.1518  -47.3715 H         1 UNK         0.0600 
    146 H146        1.6638  -17.7837  -46.6015 H         1 UNK         0.0600 
    147 H147        0.3549  -18.1583  -47.7091 H         1 UNK         0.0600 
    148 H148        0.0342  -18.0491  -45.9829 H         1 UNK         0.0600 
    149 H149        1.7818  -19.3465  -44.6566 H         1 UNK         0.3000 
    150 H150        2.8583  -22.4643  -43.2352 H         1 UNK         0.0600 
    151 H151        4.8871  -21.3167  -44.0854 H         1 UNK         0.0600 
    152 H152        4.6167  -20.9267  -42.3942 H         1 UNK         0.0600 
    153 H153        4.2232  -19.7504  -43.6468 H         1 UNK         0.0600 
    154 H154        2.2316  -19.8803  -42.1396 H         1 UNK         0.3000 
    155 H155       -1.1556  -20.6093  -41.2886 H         1 UNK         0.0600 
    156 H156        0.2436  -21.6714  -39.5092 H         1 UNK         0.0600 
    157 H157       -0.2745  -20.0604  -39.0393 H         1 UNK         0.0600 
    158 H158        1.3806  -20.3305  -39.5852 H         1 UNK         0.0600 
    159 H159        0.5127  -18.3430  -40.8021 H         1 UNK         0.3000 
    160 H160       -0.2026  -16.6118  -43.8306 H         1 UNK         0.0600 
    161 H161       -1.0158  -16.0703  -40.9213 H         1 UNK         0.0600 
    162 H162       -2.1653  -16.2879  -42.2322 H         1 UNK         0.0600 
    163 H163       -1.0617  -14.9231  -42.2550 H         1 UNK         0.0600 
    164 H164        1.3160  -15.7022  -41.6717 H         1 UNK         0.3000 
    165 H165        4.1353  -17.2316  -41.6899 H         1 UNK         0.0600 
    166 H166        4.3398  -15.5040  -44.2071 H         1 UNK         0.0600 
    167 H167        5.6721  -15.8575  -43.1093 H         1 UNK         0.0600 
    168 H168        4.9145  -17.1536  -44.0175 H         1 UNK         0.0600 
    169 H169        3.5285  -14.3584  -42.1182 H         1 UNK         0.3000 
    170 H170        2.6172  -13.8110  -38.7874 H         1 UNK         0.0600 
    171 H171        5.0656  -13.9704  -38.3127 H         1 UNK         0.0600 
    172 H172        5.4249  -13.1330  -39.8179 H         1 UNK         0.0600 
    173 H173        4.5683  -12.2993  -38.5201 H         1 UNK         0.0600 
    174 H174        3.4807  -11.9937  -40.8183 H         1 UNK         0.3000 
    175 H175        0.3781  -11.1115  -41.7537 H         1 UNK         0.0600 
    176 H176        2.0655   -9.7554  -42.9658 H         1 UNK         0.0600 
    177 H177        2.5789  -10.0349  -41.3143 H         1 UNK         0.0600 
    178 H178        3.3186  -10.9418  -42.6336 H         1 UNK         0.0600 
    179 H179        0.0176  -11.9891  -43.7574 H         1 UNK         0.3000 
    180 H180        0.9388  -12.7623  -46.1184 H         1 UNK         0.0600 
    181 H181        1.4595  -15.0292  -47.0227 H         1 UNK         0.0600 
    182 H182        2.9111  -14.3030  -46.3564 H         1 UNK         0.0600 
    183 H183        2.0566  -15.5457  -45.4494 H         1 UNK         0.0600 
    184 H184       -0.3618  -14.3220  -44.0739 H         1 UNK         0.3000 
    185 H185       -2.2335  -15.7013  -44.5669 H         1 UNK         0.0600 
    186 H186       -4.2471  -14.2809  -44.0903 H         1 UNK         0.0600 
    187 H187       -2.7771  -13.3872  -43.7423 H         1 UNK         0.0600 
    188 H188       -3.6707  -13.0598  -45.2234 H         1 UNK         0.0600 
    189 H189       -3.1501  -15.1621  -47.2485 H         1 UNK         0.3000 
    190 H190       -0.3820  -22.9886  -44.3324 H         1 UNK         0.3000 
    191 H191       -1.0851  -25.6737  -44.8382 H         1 UNK         0.0600 
    192 H192        1.1677  -26.1710  -43.8736 H         1 UNK         0.0600 
    193 H193        0.3067  -24.9746  -42.9188 H         1 UNK         0.0600 
    194 H194        1.6046  -24.4719  -44.0015 H         1 UNK         0.0600 
    195 H195        1.0493  -23.4981  -46.6519 H         1 UNK         0.3000 
    196 H196        1.9838  -25.4822  -48.5416 H         1 UNK         0.0600 
    197 H197        2.9557  -23.4979  -49.6769 H         1 UNK         0.0600 
    198 H198        3.2961  -23.4455  -47.9574 H         1 UNK         0.0600 
    199 H199        2.0333  -22.4205  -48.6366 H         1 UNK         0.0600 
    200 H200       -1.1020  -24.5685  -48.1425 H         1 UNK         0.3000 
    201 H201       -2.9602  -24.6598  -49.3059 H         1 UNK         0.0600 
    202 H202       -2.0152  -26.7635  -50.2788 H         1 UNK         0.0600 
    203 H203       -1.3427  -25.8449  -51.6252 H         1 UNK         0.0600 
    204 H204       -3.0785  -25.9470  -51.4110 H         1 UNK         0.0600 
    205 H205       -1.5527  -22.2283  -49.2144 H         1 UNK         0.3000 
    206 H206       -1.6586  -20.1544  -49.8654 H         1 UNK         0.0600 
    207 H207       -4.0798  -20.4203  -49.8616 H         1 UNK         0.0600 
    208 H208       -3.6438  -19.3494  -51.1787 H         1 UNK         0.0600 
    209 H209       -4.0852  -21.0121  -51.5163 H         1 UNK         0.0600 
    210 H210        0.0041  -22.0608  -51.4199 H         1 UNK         0.3000 
    211 H211        0.3100  -21.1608  -54.0884 H         1 UNK         0.0600 
    212 H212        2.3077  -22.5017  -52.1870 H         1 UNK         0.0600 
    213 H213        2.4895  -22.3871  -53.9342 H         1 UNK         0.0600 
    214 H214        1.1736  -23.3292  -53.2544 H         1 UNK         0.0600 
    215 H215        0.9730  -19.4416  -51.2739 H         1 UNK         0.3000 
    216 H216        3.1550  -17.7561  -52.1057 H         1 UNK         0.0600 
    217 H217        2.3102  -16.3066  -50.2440 H         1 UNK         0.0600 
    218 H218        2.4574  -17.9781  -49.7261 H         1 UNK         0.0600 
    219 H219        0.8709  -17.3074  -50.1031 H         1 UNK         0.0600 
    220 H220       -0.1659  -17.9997  -53.1142 H         1 UNK         0.3000 
    221 H221        0.0649  -15.5154  -54.7309 H         1 UNK         0.0600 
    222 H222       -2.4682  -16.6113  -53.3684 H         1 UNK         0.0600 
    223 H223       -1.5960  -15.1678  -52.8508 H         1 UNK         0.0600 
    224 H224       -2.3872  -15.1978  -54.4152 H         1 UNK         0.0600 
    225 H225       -1.5441  -15.7166  -56.6100 H         1 UNK         0.3000 
    226 H226       -1.2003  -18.2161  -58.0335 H         1 UNK         0.0600 
    227 H227       -2.5387  -17.0495  -59.7843 H         1 UNK         0.0600 
    228 H228       -2.8929  -15.7373  -58.6670 H         1 UNK         0.0600 
    229 H229       -1.2368  -16.0237  -59.2036 H         1 UNK         0.0600 
    230 H230       -3.6606  -16.8686  -55.9517 H         1 UNK         0.3000 
    231 H231       -5.8156  -18.6920  -56.7068 H         1 UNK         0.0600 
    232 H232       -7.0222  -17.4958  -54.8867 H         1 UNK         0.0600 
    233 H233       -6.3026  -16.3606  -56.0164 H         1 UNK         0.0600 
    234 H234       -5.5492  -16.6387  -54.4464 H         1 UNK         0.0600 
    235 H235       -4.0756  -20.4731  -56.3458 H         1 UNK         0.3000 
    236 H236       -3.5384  -21.4010  -53.6855 H         1 UNK         0.0600 
    237 H237       -3.5127  -22.8824  -56.3687 H         1 UNK         0.0600 
    238 H238       -2.1497  -22.0253  -55.6449 H         1 UNK         0.0600 
    239 H239       -2.7925  -23.4623  -54.8693 H         1 UNK         0.0600 
    240 H240       -4.3684  -23.3284  -52.6720 H         1 UNK         0.3000 
    241 H241       -7.2389  -23.4497  -52.6451 H         1 UNK         0.0600 
    242 H242       -6.2168  -26.5064  -55.0918 H         1 UNK         0.3800 
    243 H243       -5.0860  -25.2347  -54.7076 H         1 UNK         0.3800 
    244 H244       -5.2724  -25.2503  -51.1587 H         1 UNK         0.0800 
    245 H245       -6.9717  -25.0987  -50.8161 H         1 UNK         0.0800 
    246 H246       -8.0756  -23.2149  -49.4887 H         1 UNK         0.0800 
    247 H247       -7.1234  -24.1531  -48.3574 H         1 UNK         0.0800 
@<TRIPOS>BOND
     1    1    2 1    
     2    1  127 1    
     3    1  128 1    
     4    1  129 1    
     5    2    3 2    
     6    2    4 am   BACKBONE|DICT|INTERRES
     7    4    5 1    
     8    4  130 1    
     9    5    6 1    
    10    5   65 1    
    11    5  131 1    
    12    6    7 1    
    13    6  132 1    
    14    6  133 1    
    15    7    8 1    
    16    8    9 1    
    17    8  134 1    
    18    8  135 1    
    19    9   10 ar   
    20    9   14 ar   
    21   10   11 ar   
    22   10  136 1    
    23   11   12 ar   
    24   11  126 1    
    25   12   13 ar   
    26   12  137 1    
    27   13   14 ar   
    28   13   15 1    
    29   14  138 1    
    30   15   16 1    
    31   15  139 1    
    32   15  140 1    
    33   16   17 1    
    34   17   18 1    
    35   17  141 1    
    36   17  142 1    
    37   18   19 1    
    38   18   67 1    
    39   18  143 1    
    40   19   20 am   BACKBONE|DICT|INTERRES
    41   19  144 1    
    42   20   21 2    
    43   20   22 1    
    44   22   23 1    
    45   22   24 1    
    46   22  145 1    
    47   23  146 1    
    48   23  147 1    
    49   23  148 1    
    50   24   25 am   BACKBONE|DICT|INTERRES
    51   24  149 1    
    52   25   26 2    
    53   25   27 1    
    54   27   28 1    
    55   27   29 1    
    56   27  150 1    
    57   28  151 1    
    58   28  152 1    
    59   28  153 1    
    60   29   30 am   BACKBONE|DICT|INTERRES
    61   29  154 1    
    62   30   31 2    
    63   30   32 1    
    64   32   33 1    
    65   32   34 1    
    66   32  155 1    
    67   33  156 1    
    68   33  157 1    
    69   33  158 1    
    70   34   35 am   BACKBONE|DICT|INTERRES
    71   34  159 1    
    72   35   36 2    
    73   35   37 1    
    74   37   38 1    
    75   37   39 1    
    76   37  160 1    
    77   38  161 1    
    78   38  162 1    
    79   38  163 1    
    80   39   40 am   BACKBONE|DICT|INTERRES
    81   39  164 1    
    82   40   41 2    
    83   40   42 1    
    84   42   43 1    
    85   42   44 1    
    86   42  165 1    
    87   43  166 1    
    88   43  167 1    
    89   43  168 1    
    90   44   45 am   BACKBONE|DICT|INTERRES
    91   44  169 1    
    92   45   46 2    
    93   45   47 1    
    94   47   48 1    
    95   47   49 1    
    96   47  170 1    
    97   48  171 1    
    98   48  172 1    
    99   48  173 1    
   100   49   50 am   BACKBONE|DICT|INTERRES
   101   49  174 1    
   102   50   51 2    
   103   50   52 1    
   104   52   53 1    
   105   52   54 1    
   106   52  175 1    
   107   53  176 1    
   108   53  177 1    
   109   53  178 1    
   110   54   55 am   BACKBONE|DICT|INTERRES
   111   54  179 1    
   112   55   56 2    
   113   55   57 1    
   114   57   58 1    
   115   57   59 1    
   116   57  180 1    
   117   58  181 1    
   118   58  182 1    
   119   58  183 1    
   120   59   60 am   BACKBONE|DICT|INTERRES
   121   59  184 1    
   122   60   61 2    
   123   60   62 1    
   124   62   63 1    
   125   62   64 1    
   126   62  185 1    
   127   63  186 1    
   128   63  187 1    
   129   63  188 1    
   130   64   65 am   BACKBONE|DICT|INTERRES
   131   64  189 1    
   132   65   66 2    
   133   67   68 2    
   134   67   69 am   BACKBONE|DICT|INTERRES
   135   69   70 1    
   136   69  190 1    
   137   70   71 1    
   138   70   72 1    
   139   70  191 1    
   140   71  192 1    
   141   71  193 1    
   142   71  194 1    
   143   72   73 2    
   144   72   74 am   BACKBONE|DICT|INTERRES
   145   74   75 1    
   146   74  195 1    
   147   75   76 1    
   148   75   77 1    
   149   75  196 1    
   150   76  197 1    
   151   76  198 1    
   152   76  199 1    
   153   77   78 2    
   154   77   79 am   BACKBONE|DICT|INTERRES
   155   79   80 1    
   156   79  200 1    
   157   80   81 1    
   158   80   82 1    
   159   80  201 1    
   160   81  202 1    
   161   81  203 1    
   162   81  204 1    
   163   82   83 2    
   164   82   84 am   BACKBONE|DICT|INTERRES
   165   84   85 1    
   166   84  205 1    
   167   85   86 1    
   168   85   87 1    
   169   85  206 1    
   170   86  207 1    
   171   86  208 1    
   172   86  209 1    
   173   87   88 2    
   174   87   89 am   BACKBONE|DICT|INTERRES
   175   89   90 1    
   176   89  210 1    
   177   90   91 1    
   178   90   92 1    
   179   90  211 1    
   180   91  212 1    
   181   91  213 1    
   182   91  214 1    
   183   92   93 2    
   184   92   94 am   BACKBONE|DICT|INTERRES
   185   94   95 1    
   186   94  215 1    
   187   95   96 1    
   188   95   97 1    
   189   95  216 1    
   190   96  217 1    
   191   96  218 1    
   192   96  219 1    
   193   97   98 2    
   194   97   99 am   BACKBONE|DICT|INTERRES
   195   99  100 1    
   196   99  220 1    
   197  100  101 1    
   198  100  102 1    
   199  100  221 1    
   200  101  222 1    
   201  101  223 1    
   202  101  224 1    
   203  102  103 2    
   204  102  104 am   BACKBONE|DICT|INTERRES
   205  104  105 1    
   206  104  225 1    
   207  105  106 1    
   208  105  107 1    
   209  105  226 1    
   210  106  227 1    
   211  106  228 1    
   212  106  229 1    
   213  107  108 2    
   214  107  109 am   BACKBONE|DICT|INTERRES
   215  109  110 1    
   216  109  230 1    
   217  110  111 1    
   218  110  112 1    
   219  110  231 1    
   220  111  232 1    
   221  111  233 1    
   222  111  234 1    
   223  112  113 2    
   224  112  114 am   BACKBONE|DICT|INTERRES
   225  114  115 1    
   226  114  235 1    
   227  115  116 1    
   228  115  117 1    
   229  115  236 1    
   230  116  237 1    
   231  116  238 1    
   232  116  239 1    
   233  117  118 2    
   234  117  119 am   BACKBONE|DICT|INTERRES
   235  119  120 1    
   236  119  240 1    
   237  120  121 1    
   238  120  124 1    
   239  120  241 1    
   240  121  122 am   BACKBONE|DICT|INTERRES
   241  121  123 2    
   242  122  242 1    
   243  122  243 1    
   244  124  125 1    
   245  124  244 1    
   246  124  245 1    
   247  125  126 1    
   248  126  246 1    
   249  126  247 1    
@<TRIPOS>SUBSTRUCTURE
     1 UNK         1 GROUP             0       ****    0 ROOT    
