@<TRIPOS>MOLECULE
3R540
247   249    1
SMALL
USER_CHARGES


@<TRIPOS>ATOM
      1 CA         -0.4073   -9.9154  -44.8101 C.3       0 UNK        -0.1800 
      2 C           0.8392   -9.9491  -45.6818 C.2       0 UNK         0.5000 
      3 O           1.9362   -9.6796  -45.1940 O.2       0 UNK        -0.5000 
      4 N           0.6823  -10.3006  -46.9645 N.am      1 UNK        -0.5000 
      5 CA          1.7540  -10.3935  -47.9688 C.3       1 UNK         0.1400 
      6 C6          1.1826  -10.5634  -49.3991 C.3       23 UNK        -0.0398 
      7 S7          0.0857  -12.0149  -49.5822 S.3       23 UNK        -0.2404 
      8 C8          1.0432  -13.0438  -50.7386 C.3       23 UNK        -0.0205 
      9 C9          0.4467  -14.4380  -50.8587 C.ar      23 UNK        -0.0193 
     10 C10        -0.8209  -14.6160  -51.4205 C.ar      23 UNK        -0.1150 
     11 C11        -1.4002  -15.8857  -51.5042 C.ar      23 UNK        -0.0193 
     12 C12        -0.6793  -16.9906  -51.0303 C.ar      23 UNK        -0.1150 
     13 C13         0.5970  -16.8289  -50.4803 C.ar      23 UNK        -0.0193 
     14 C14         1.1542  -15.5505  -50.3976 C.ar      23 UNK        -0.1150 
     15 C15         1.3748  -18.0340  -49.9689 C.3       23 UNK        -0.0205 
     16 S16         1.5063  -18.0568  -48.1512 S.3       23 UNK        -0.2404 
     17 C17        -0.2300  -18.3214  -47.6635 C.3       23 UNK        -0.0398 
     18 CA         -0.5581  -19.8161  -47.4397 C.3       11 UNK         0.1400 
     19 N           0.0134  -20.3460  -46.1986 N.am      11 UNK        -0.5000 
     20 C          -0.0264  -21.6307  -45.8181 C.2       10 UNK         0.5000 
     21 O          -0.4967  -22.5336  -46.5090 O.2       10 UNK        -0.5000 
     22 CA          0.4905  -21.9579  -44.4053 C.3       10 UNK         0.1400 
     23 CB          2.0229  -22.0573  -44.3839 C.3       10 UNK        -0.1800 
     24 N           0.0348  -20.9915  -43.4042 N.am      10 UNK        -0.5000 
     25 C          -1.2500  -20.8049  -43.0673 C.2       9 UNK         0.5000 
     26 O          -2.1793  -21.4676  -43.5294 O.2       9 UNK        -0.5000 
     27 CA         -1.5570  -19.6585  -42.0860 C.3       9 UNK         0.1400 
     28 CB         -1.2879  -20.0895  -40.6368 C.3       9 UNK        -0.1800 
     29 N          -0.8039  -18.4407  -42.3875 N.am      9 UNK        -0.5000 
     30 C          -0.9347  -17.7267  -43.5149 C.2       8 UNK         0.5000 
     31 O          -1.7511  -17.9874  -44.3983 O.2       8 UNK        -0.5000 
     32 CA          0.0519  -16.5619  -43.7192 C.3       8 UNK         0.1400 
     33 CB         -0.4013  -15.3118  -42.9508 C.3       8 UNK        -0.1800 
     34 N           1.4218  -16.9097  -43.3378 N.am      8 UNK        -0.5000 
     35 C           2.1413  -17.8882  -43.9063 C.2       7 UNK         0.5000 
     36 O           1.7366  -18.5755  -44.8399 O.2       7 UNK        -0.5000 
     37 CA          3.5156  -18.1966  -43.2921 C.3       7 UNK         0.1400 
     38 CB          4.5838  -17.2122  -43.7877 C.3       7 UNK        -0.1800 
     39 N           3.4637  -18.1901  -41.8317 N.am      7 UNK        -0.5000 
     40 C           2.8286  -19.1174  -41.1006 C.2       6 UNK         0.5000 
     41 O           2.2657  -20.1010  -41.5814 O.2       6 UNK        -0.5000 
     42 CA          2.7785  -18.8787  -39.5809 C.3       6 UNK         0.1400 
     43 CB          4.0606  -19.3912  -38.9084 C.3       6 UNK        -0.1800 
     44 N           2.5844  -17.4670  -39.2459 N.am      6 UNK        -0.5000 
     45 C           1.4659  -16.7755  -39.5069 C.2       5 UNK         0.5000 
     46 O           0.4622  -17.2682  -40.0208 O.2       5 UNK        -0.5000 
     47 CA          1.4950  -15.2705  -39.1832 C.3       5 UNK         0.1400 
     48 CB          1.1177  -15.0252  -37.7149 C.3       5 UNK        -0.1800 
     49 N           2.7930  -14.6493  -39.4647 N.am      5 UNK        -0.5000 
     50 C           3.3285  -14.5406  -40.6874 C.2       4 UNK         0.5000 
     51 O           2.7925  -14.9762  -41.7086 O.2       4 UNK        -0.5000 
     52 CA          4.7175  -13.8905  -40.7744 C.3       4 UNK         0.1400 
     53 CB          5.8171  -14.9631  -40.7629 C.3       4 UNK        -0.1800 
     54 N           4.8393  -13.0938  -41.9925 N.am      4 UNK        -0.5000 
     55 C           4.3917  -11.8414  -42.1256 C.2       3 UNK         0.5000 
     56 O           3.8599  -11.2083  -41.2121 O.2       3 UNK        -0.5000 
     57 CA          4.5712  -11.1728  -43.5006 C.3       3 UNK         0.1400 
     58 CB          6.0550  -10.8956  -43.8129 C.3       3 UNK        -0.1800 
     59 N           3.9051  -11.8741  -44.6031 N.am      3 UNK        -0.5000 
     60 C           4.1883  -13.0674  -45.1496 C.2       2 UNK         0.5000 
     61 O           5.0984  -13.7988  -44.7575 O.2       2 UNK        -0.5000 
     62 CA          3.3124  -13.5303  -46.3362 C.3       2 UNK         0.1400 
     63 CB          2.4413  -14.7289  -45.9366 C.3       2 UNK        -0.1800 
     64 N           2.4349  -12.4798  -46.8539 N.am      2 UNK        -0.5000 
     65 C           2.8182  -11.4692  -47.6462 C.2       1 UNK         0.5000 
     66 O           3.9588  -11.3497  -48.0951 O.2       1 UNK        -0.5000 
     67 C          -2.0784  -20.0476  -47.5162 C.2       11 UNK         0.5000 
     68 O          -2.5570  -20.5044  -48.5521 O.2       11 UNK        -0.5000 
     69 N          -2.8044  -19.7655  -46.4248 N.am      12 UNK        -0.5000 
     70 CA         -4.2465  -19.9937  -46.3144 C.3       12 UNK         0.1400 
     71 CB         -4.7676  -19.3998  -44.9974 C.3       12 UNK        -0.1800 
     72 C          -4.6255  -21.4808  -46.4379 C.2       12 UNK         0.5000 
     73 O          -5.5758  -21.8063  -47.1501 O.2       12 UNK        -0.5000 
     74 N          -3.8517  -22.3568  -45.7809 N.am      13 UNK        -0.5000 
     75 CA         -3.9883  -23.8103  -45.8720 C.3       13 UNK         0.1400 
     76 CB         -3.0687  -24.4844  -44.8429 C.3       13 UNK        -0.1800 
     77 C          -3.7122  -24.3372  -47.2915 C.2       13 UNK         0.5000 
     78 O          -4.5029  -25.1269  -47.8075 O.2       13 UNK        -0.5000 
     79 N          -2.6266  -23.8580  -47.9154 N.am      14 UNK        -0.5000 
     80 CA         -2.2534  -24.1764  -49.2941 C.3       14 UNK         0.1400 
     81 CB         -0.8751  -23.5789  -49.6141 C.3       14 UNK        -0.1800 
     82 C          -3.3031  -23.7072  -50.3158 C.2       14 UNK         0.5000 
     83 O          -3.6567  -24.4745  -51.2098 O.2       14 UNK        -0.5000 
     84 N          -3.8142  -22.4810  -50.1386 N.am      15 UNK        -0.5000 
     85 CA         -4.8572  -21.8848  -50.9721 C.3       15 UNK         0.1400 
     86 CB         -5.0330  -20.4050  -50.6044 C.3       15 UNK        -0.1800 
     87 C          -6.2038  -22.6256  -50.8942 C.2       15 UNK         0.5000 
     88 O          -6.9213  -22.6750  -51.8925 O.2       15 UNK        -0.5000 
     89 N          -6.5200  -23.1920  -49.7225 N.am      16 UNK        -0.5000 
     90 CA         -7.6898  -24.0424  -49.5163 C.3       16 UNK         0.1400 
     91 CB         -7.9912  -24.1387  -48.0127 C.3       16 UNK        -0.1800 
     92 C          -7.5062  -25.4435  -50.1295 C.2       16 UNK         0.5000 
     93 O          -8.4549  -25.9827  -50.7008 O.2       16 UNK        -0.5000 
     94 N          -6.3021  -26.0133  -49.9842 N.am      17 UNK        -0.5000 
     95 CA         -5.9601  -27.3592  -50.4406 C.3       17 UNK         0.1400 
     96 CB         -4.6729  -27.8222  -49.7399 C.3       17 UNK        -0.1800 
     97 C          -5.8155  -27.4730  -51.9686 C.2       17 UNK         0.5000 
     98 O          -6.3633  -28.4054  -52.5593 O.2       17 UNK        -0.5000 
     99 N          -5.0579  -26.5531  -52.5788 N.am      18 UNK        -0.5000 
    100 CA        -4.7460  -26.5643  -54.0066 C.3       18 UNK         0.1400 
    101 CB        -3.5043  -25.6951  -54.2586 C.3       18 UNK        -0.1800 
    102 C         -5.9244  -26.0591  -54.8532 C.2       18 UNK         0.5000 
    103 O         -6.5255  -25.0376  -54.5176 O.2       18 UNK        -0.5000 
    104 N         -6.1855  -26.7350  -55.9801 N.am      19 UNK        -0.5000 
    105 CA        -7.1995  -26.3434  -56.9668 C.3       19 UNK         0.1400 
    106 CB        -7.4048  -27.4942  -57.9635 C.3       19 UNK        -0.1800 
    107 C         -6.8448  -25.0394  -57.7108 C.2       19 UNK         0.5000 
    108 O         -7.7438  -24.3000  -58.1115 O.2       19 UNK        -0.5000 
    109 N         -5.5394  -24.7702  -57.8505 N.am      20 UNK        -0.5000 
    110 CA        -4.9823  -23.5327  -58.4021 C.3       20 UNK         0.1400 
    111 CB        -3.5919  -23.8434  -58.9805 C.3       20 UNK        -0.1800 
    112 C         -4.8927  -22.3939  -57.3629 C.2       20 UNK         0.5000 
    113 O         -4.4795  -21.2880  -57.7187 O.2       20 UNK        -0.5000 
    114 N         -5.2500  -22.6813  -56.1013 N.am      21 UNK        -0.5000 
    115 CA        -5.1701  -21.8072  -54.9316 C.3       21 UNK         0.1400 
    116 CB        -6.2607  -20.7151  -54.9955 C.3       21 UNK        -0.1800 
    117 C         -3.7376  -21.2720  -54.7230 C.2       21 UNK         0.5000 
    118 O         -2.8198  -22.0729  -54.5410 O.2       21 UNK        -0.5000 
    119 N         -3.5667  -19.9467  -54.7659 N.am      22 UNK        -0.5000 
    120 CA        -2.2671  -19.2618  -54.6744 C.3       22 UNK         0.1400 
    121 C         -1.4085  -19.3393  -55.9735 C.2       22 UNK         0.5000 
    122 N         -1.9083  -19.8665  -57.0863 N.am      22 UNK        -0.7600 
    123 O         -0.2560  -18.9155  -55.9710 O.2       22 UNK        -0.5000 
    124 C124       -2.4257  -17.7921  -54.2043 C.3       23 UNK        -0.0398 
    125 S125       -3.3340  -17.6534  -52.6277 S.3       23 UNK        -0.2404 
    126 C126       -2.8222  -15.9967  -52.0589 C.3       23 UNK        -0.0205 
    127 H127       -1.3017  -10.1881  -45.3709 H         1 UNK         0.0600 
    128 H128       -0.5526   -8.9149  -44.4028 H         1 UNK         0.0600 
    129 H129       -0.3016  -10.6116  -43.9781 H         1 UNK         0.0600 
    130 H130       -0.2416  -10.5289  -47.3051 H         1 UNK         0.3000 
    131 H131        2.2815   -9.4374  -47.9473 H         1 UNK         0.0600 
    132 H132        1.9886  -10.6036  -50.1342 H         1 UNK         0.0800 
    133 H133        0.6009   -9.6783  -49.6599 H         1 UNK         0.0800 
    134 H134        1.0604  -12.5691  -51.7207 H         1 UNK         0.0800 
    135 H135        2.0787  -13.1004  -50.3988 H         1 UNK         0.0800 
    136 H136       -1.3706  -13.7522  -51.7681 H         1 UNK         0.1150 
    137 H137       -1.1109  -17.9801  -51.0693 H         1 UNK         0.1150 
    138 H138        2.1345  -15.4245  -49.9592 H         1 UNK         0.1150 
    139 H139        0.9186  -18.9651  -50.3089 H         1 UNK         0.0800 
    140 H140        2.3796  -18.0149  -50.3931 H         1 UNK         0.0800 
    141 H141       -0.8785  -17.8836  -48.4226 H         1 UNK         0.0800 
    142 H142       -0.4203  -17.7493  -46.7554 H         1 UNK         0.0800 
    143 H143       -0.1186  -20.3856  -48.2613 H         1 UNK         0.0600 
    144 H144        0.4899  -19.6739  -45.5999 H         1 UNK         0.3000 
    145 H145        0.0891  -22.9343  -44.1262 H         1 UNK         0.0600 
    146 H146        2.3852  -22.3461  -43.3971 H         1 UNK         0.0600 
    147 H147        2.3733  -22.8086  -45.0925 H         1 UNK         0.0600 
    148 H148        2.4952  -21.1122  -44.6497 H         1 UNK         0.0600 
    149 H149        0.7492  -20.4317  -42.9516 H         1 UNK         0.3000 
    150 H150       -2.6192  -19.4221  -42.1760 H         1 UNK         0.0600 
    151 H151       -1.8564  -20.9853  -40.3839 H         1 UNK         0.0600 
    152 H152       -1.5798  -19.3092  -39.9337 H         1 UNK         0.0600 
    153 H153       -0.2336  -20.3110  -40.4702 H         1 UNK         0.0600 
    154 H154       -0.1463  -18.1238  -41.6813 H         1 UNK         0.3000 
    155 H155        0.0596  -16.3194  -44.7834 H         1 UNK         0.0600 
    156 H156       -0.4446  -15.4922  -41.8771 H         1 UNK         0.0600 
    157 H157       -1.3957  -14.9983  -43.2705 H         1 UNK         0.0600 
    158 H158        0.2752  -14.4741  -43.1207 H         1 UNK         0.0600 
    159 H159        1.8508  -16.3470  -42.6078 H         1 UNK         0.3000 
    160 H160        3.8093  -19.1974  -43.6157 H         1 UNK         0.0600 
    161 H161        4.3395  -16.1827  -43.5268 H         1 UNK         0.0600 
    162 H162        4.6798  -17.2593  -44.8730 H         1 UNK         0.0600 
    163 H163        5.5620  -17.4449  -43.3673 H         1 UNK         0.0600 
    164 H164        3.8571  -17.3880  -41.3644 H         1 UNK         0.3000 
    165 H165        1.9331  -19.4436  -39.1822 H         1 UNK         0.0600 
    166 H166        4.0032  -19.2930  -37.8242 H         1 UNK         0.0600 
    167 H167        4.2212  -20.4472  -39.1299 H         1 UNK         0.0600 
    168 H168        4.9420  -18.8464  -39.2492 H         1 UNK         0.0600 
    169 H169        3.3607  -16.9859  -38.8167 H         1 UNK         0.3000 
    170 H170        0.7472  -14.7829  -39.8119 H         1 UNK         0.0600 
    171 H171        0.1452  -15.4622  -37.4841 H         1 UNK         0.0600 
    172 H172        1.8455  -15.4642  -37.0314 H         1 UNK         0.0600 
    173 H173        1.0526  -13.9589  -37.4973 H         1 UNK         0.0600 
    174 H174        3.2946  -14.2747  -38.6722 H         1 UNK         0.3000 
    175 H175        4.8618  -13.2435  -39.9064 H         1 UNK         0.0600 
    176 H176        5.7538  -15.5827  -39.8674 H         1 UNK         0.0600 
    177 H177        5.7487  -15.6237  -41.6264 H         1 UNK         0.0600 
    178 H178        6.8075  -14.5078  -40.7718 H         1 UNK         0.0600 
    179 H179        5.1685  -13.5658  -42.8295 H         1 UNK         0.3000 
    180 H180        4.0752  -10.2029  -43.4381 H         1 UNK         0.0600 
    181 H181        6.6398  -11.8124  -43.8897 H         1 UNK         0.0600 
    182 H182        6.5082  -10.2874  -43.0293 H         1 UNK         0.0600 
    183 H183        6.1631  -10.3505  -44.7506 H         1 UNK         0.0600 
    184 H184        3.1280  -11.3562  -44.9983 H         1 UNK         0.3000 
    185 H185        3.9841  -13.8492  -47.1358 H         1 UNK         0.0600 
    186 H186        3.0594  -15.5773  -45.6470 H         1 UNK         0.0600 
    187 H187        1.7941  -14.4879  -45.0934 H         1 UNK         0.0600 
    188 H188        1.8124  -15.0598  -46.7638 H         1 UNK         0.0600 
    189 H189        1.4734  -12.5004  -46.5467 H         1 UNK         0.3000 
    190 H190       -2.3466  -19.3443  -45.6207 H         1 UNK         0.3000 
    191 H191       -4.7281  -19.4620  -47.1376 H         1 UNK         0.0600 
    192 H192       -4.3029  -19.8693  -44.1304 H         1 UNK         0.0600 
    193 H193       -5.8458  -19.5370  -44.9071 H         1 UNK         0.0600 
    194 H194       -4.5698  -18.3292  -44.9429 H         1 UNK         0.0600 
    195 H195       -3.1145  -22.0032  -45.1779 H         1 UNK         0.3000 
    196 H196       -5.0202  -24.0636  -45.6200 H         1 UNK         0.0600 
    197 H197       -3.1712  -25.5696  -44.8798 H         1 UNK         0.0600 
    198 H198       -3.3146  -24.1678  -43.8292 H         1 UNK         0.0600 
    199 H199       -2.0198  -24.2468  -45.0203 H         1 UNK         0.0600 
    200 H200       -2.0010  -23.2366  -47.4082 H         1 UNK         0.3000 
    201 H201       -2.1770  -25.2626  -49.3731 H         1 UNK         0.0600 
    202 H202       -0.1100  -23.9746  -48.9461 H         1 UNK         0.0600 
    203 H203       -0.8738  -22.4930  -49.5169 H         1 UNK         0.0600 
    204 H204       -0.5729  -23.8184  -50.6343 H         1 UNK         0.0600 
    205 H205       -3.4309  -21.8892  -49.4043 H         1 UNK         0.3000 
    206 H206       -4.5080  -21.9368  -52.0021 H         1 UNK         0.0600 
    207 H207       -4.0977  -19.8584  -50.7215 H         1 UNK         0.0600 
    208 H208       -5.7717  -19.9259  -51.2481 H         1 UNK         0.0600 
    209 H209       -5.3636  -20.2842  -49.5724 H         1 UNK         0.0600 
    210 H210       -5.9066  -23.0510  -48.9284 H         1 UNK         0.3000 
    211 H211       -8.5495  -23.5747  -50.0010 H         1 UNK         0.0600 
    212 H212       -7.1622  -24.5830  -47.4611 H         1 UNK         0.0600 
    213 H213       -8.8744  -24.7519  -47.8299 H         1 UNK         0.0600 
    214 H214       -8.1840  -23.1539  -47.5867 H         1 UNK         0.0600 
    215 H215       -5.5903  -25.5207  -49.4544 H         1 UNK         0.3000 
    216 H216       -6.7636  -28.0327  -50.1349 H         1 UNK         0.0600 
    217 H217       -3.8337  -27.1620  -49.9619 H         1 UNK         0.0600 
    218 H218       -4.3940  -28.8280  -50.0562 H         1 UNK         0.0600 
    219 H219       -4.8010  -27.8456  -48.6576 H         1 UNK         0.0600 
    220 H220       -4.6540  -25.7948  -52.0323 H         1 UNK         0.3000 
    221 H221       -4.5080  -27.5887  -54.3011 H         1 UNK         0.0600 
    222 H222       -2.6487  -26.0536  -53.6860 H         1 UNK         0.0600 
    223 H223       -3.6794  -24.6558  -53.9779 H         1 UNK         0.0600 
    224 H224       -3.2206  -25.7067  -55.3115 H         1 UNK         0.0600 
    225 H225       -5.6508  -27.5657  -56.1913 H         1 UNK         0.3000 
    226 H226       -8.1408  -26.1762  -56.4388 H         1 UNK         0.0600 
    227 H227       -7.7279  -28.4031  -57.4556 H         1 UNK         0.0600 
    228 H228       -8.1724  -27.2432  -58.6967 H         1 UNK         0.0600 
    229 H229       -6.4895  -27.7217  -58.5114 H         1 UNK         0.0600 
    230 H230       -4.8748  -25.4444  -57.5006 H         1 UNK         0.3000 
    231 H231       -5.6207  -23.1826  -59.2158 H         1 UNK         0.0600 
    232 H232       -3.6463  -24.6204  -59.7432 H         1 UNK         0.0600 
    233 H233       -2.9001  -24.1785  -58.2066 H         1 UNK         0.0600 
    234 H234       -3.1555  -22.9609  -59.4503 H         1 UNK         0.0600 
    235 H235       -5.5856  -23.6150  -55.9039 H         1 UNK         0.3000 
    236 H236       -5.3887  -22.4440  -54.0753 H         1 UNK         0.0600 
    237 H237       -6.2609  -20.1055  -54.0908 H         1 UNK         0.0600 
    238 H238       -6.1334  -20.0512  -55.8513 H         1 UNK         0.0600 
    239 H239       -7.2506  -21.1650  -55.0735 H         1 UNK         0.0600 
    240 H240       -4.3685  -19.3567  -54.9306 H         1 UNK         0.3000 
    241 H241       -1.6830  -19.7778  -53.9097 H         1 UNK         0.0600 
    242 H242       -1.3319  -19.9060  -57.9116 H         1 UNK         0.3800 
    243 H243       -2.8499  -20.2427  -57.1203 H         1 UNK         0.3800 
    244 H244       -2.9500  -17.2025  -54.9581 H         1 UNK         0.0800 
    245 H245       -1.4452  -17.3292  -54.0776 H         1 UNK         0.0800 
    246 H246       -2.9547  -15.2931  -52.8824 H         1 UNK         0.0800 
    247 H247       -3.5120  -15.6831  -51.2745 H         1 UNK         0.0800 
@<TRIPOS>BOND
     1    1    2 1    
     2    1  127 1    
     3    1  128 1    
     4    1  129 1    
     5    2    3 2    
     6    2    4 am   BACKBONE|DICT|INTERRES
     7    4    5 1    
     8    4  130 1    
     9    5    6 1    
    10    5   65 1    
    11    5  131 1    
    12    6    7 1    
    13    6  132 1    
    14    6  133 1    
    15    7    8 1    
    16    8    9 1    
    17    8  134 1    
    18    8  135 1    
    19    9   10 ar   
    20    9   14 ar   
    21   10   11 ar   
    22   10  136 1    
    23   11   12 ar   
    24   11  126 1    
    25   12   13 ar   
    26   12  137 1    
    27   13   14 ar   
    28   13   15 1    
    29   14  138 1    
    30   15   16 1    
    31   15  139 1    
    32   15  140 1    
    33   16   17 1    
    34   17   18 1    
    35   17  141 1    
    36   17  142 1    
    37   18   19 1    
    38   18   67 1    
    39   18  143 1    
    40   19   20 am   BACKBONE|DICT|INTERRES
    41   19  144 1    
    42   20   21 2    
    43   20   22 1    
    44   22   23 1    
    45   22   24 1    
    46   22  145 1    
    47   23  146 1    
    48   23  147 1    
    49   23  148 1    
    50   24   25 am   BACKBONE|DICT|INTERRES
    51   24  149 1    
    52   25   26 2    
    53   25   27 1    
    54   27   28 1    
    55   27   29 1    
    56   27  150 1    
    57   28  151 1    
    58   28  152 1    
    59   28  153 1    
    60   29   30 am   BACKBONE|DICT|INTERRES
    61   29  154 1    
    62   30   31 2    
    63   30   32 1    
    64   32   33 1    
    65   32   34 1    
    66   32  155 1    
    67   33  156 1    
    68   33  157 1    
    69   33  158 1    
    70   34   35 am   BACKBONE|DICT|INTERRES
    71   34  159 1    
    72   35   36 2    
    73   35   37 1    
    74   37   38 1    
    75   37   39 1    
    76   37  160 1    
    77   38  161 1    
    78   38  162 1    
    79   38  163 1    
    80   39   40 am   BACKBONE|DICT|INTERRES
    81   39  164 1    
    82   40   41 2    
    83   40   42 1    
    84   42   43 1    
    85   42   44 1    
    86   42  165 1    
    87   43  166 1    
    88   43  167 1    
    89   43  168 1    
    90   44   45 am   BACKBONE|DICT|INTERRES
    91   44  169 1    
    92   45   46 2    
    93   45   47 1    
    94   47   48 1    
    95   47   49 1    
    96   47  170 1    
    97   48  171 1    
    98   48  172 1    
    99   48  173 1    
   100   49   50 am   BACKBONE|DICT|INTERRES
   101   49  174 1    
   102   50   51 2    
   103   50   52 1    
   104   52   53 1    
   105   52   54 1    
   106   52  175 1    
   107   53  176 1    
   108   53  177 1    
   109   53  178 1    
   110   54   55 am   BACKBONE|DICT|INTERRES
   111   54  179 1    
   112   55   56 2    
   113   55   57 1    
   114   57   58 1    
   115   57   59 1    
   116   57  180 1    
   117   58  181 1    
   118   58  182 1    
   119   58  183 1    
   120   59   60 am   BACKBONE|DICT|INTERRES
   121   59  184 1    
   122   60   61 2    
   123   60   62 1    
   124   62   63 1    
   125   62   64 1    
   126   62  185 1    
   127   63  186 1    
   128   63  187 1    
   129   63  188 1    
   130   64   65 am   BACKBONE|DICT|INTERRES
   131   64  189 1    
   132   65   66 2    
   133   67   68 2    
   134   67   69 am   BACKBONE|DICT|INTERRES
   135   69   70 1    
   136   69  190 1    
   137   70   71 1    
   138   70   72 1    
   139   70  191 1    
   140   71  192 1    
   141   71  193 1    
   142   71  194 1    
   143   72   73 2    
   144   72   74 am   BACKBONE|DICT|INTERRES
   145   74   75 1    
   146   74  195 1    
   147   75   76 1    
   148   75   77 1    
   149   75  196 1    
   150   76  197 1    
   151   76  198 1    
   152   76  199 1    
   153   77   78 2    
   154   77   79 am   BACKBONE|DICT|INTERRES
   155   79   80 1    
   156   79  200 1    
   157   80   81 1    
   158   80   82 1    
   159   80  201 1    
   160   81  202 1    
   161   81  203 1    
   162   81  204 1    
   163   82   83 2    
   164   82   84 am   BACKBONE|DICT|INTERRES
   165   84   85 1    
   166   84  205 1    
   167   85   86 1    
   168   85   87 1    
   169   85  206 1    
   170   86  207 1    
   171   86  208 1    
   172   86  209 1    
   173   87   88 2    
   174   87   89 am   BACKBONE|DICT|INTERRES
   175   89   90 1    
   176   89  210 1    
   177   90   91 1    
   178   90   92 1    
   179   90  211 1    
   180   91  212 1    
   181   91  213 1    
   182   91  214 1    
   183   92   93 2    
   184   92   94 am   BACKBONE|DICT|INTERRES
   185   94   95 1    
   186   94  215 1    
   187   95   96 1    
   188   95   97 1    
   189   95  216 1    
   190   96  217 1    
   191   96  218 1    
   192   96  219 1    
   193   97   98 2    
   194   97   99 am   BACKBONE|DICT|INTERRES
   195   99  100 1    
   196   99  220 1    
   197  100  101 1    
   198  100  102 1    
   199  100  221 1    
   200  101  222 1    
   201  101  223 1    
   202  101  224 1    
   203  102  103 2    
   204  102  104 am   BACKBONE|DICT|INTERRES
   205  104  105 1    
   206  104  225 1    
   207  105  106 1    
   208  105  107 1    
   209  105  226 1    
   210  106  227 1    
   211  106  228 1    
   212  106  229 1    
   213  107  108 2    
   214  107  109 am   BACKBONE|DICT|INTERRES
   215  109  110 1    
   216  109  230 1    
   217  110  111 1    
   218  110  112 1    
   219  110  231 1    
   220  111  232 1    
   221  111  233 1    
   222  111  234 1    
   223  112  113 2    
   224  112  114 am   BACKBONE|DICT|INTERRES
   225  114  115 1    
   226  114  235 1    
   227  115  116 1    
   228  115  117 1    
   229  115  236 1    
   230  116  237 1    
   231  116  238 1    
   232  116  239 1    
   233  117  118 2    
   234  117  119 am   BACKBONE|DICT|INTERRES
   235  119  120 1    
   236  119  240 1    
   237  120  121 1    
   238  120  124 1    
   239  120  241 1    
   240  121  122 am   BACKBONE|DICT|INTERRES
   241  121  123 2    
   242  122  242 1    
   243  122  243 1    
   244  124  125 1    
   245  124  244 1    
   246  124  245 1    
   247  125  126 1    
   248  126  246 1    
   249  126  247 1    
@<TRIPOS>SUBSTRUCTURE
     1 UNK         1 GROUP             0       ****    0 ROOT    
