@<TRIPOS>MOLECULE
3R540
247   249    1
SMALL
USER_CHARGES


@<TRIPOS>ATOM
      1 CA         -1.1295  -11.3431  -53.9711 C.3       0 UNK        -0.1800 
      2 C          -1.5317  -12.7996  -54.2007 C.2       0 UNK         0.5000 
      3 O          -2.0147  -13.1239  -55.2838 O.2       0 UNK        -0.5000 
      4 N          -1.3418  -13.7119  -53.2375 N.am      1 UNK        -0.5000 
      5 CA         -0.8692  -13.4914  -51.8674 C.3       1 UNK         0.1400 
      6 C6         -0.5581  -14.8371  -51.1650 C.3       23 UNK        -0.0398 
      7 S7          0.5477  -14.6192  -49.7295 S.3       23 UNK        -0.2404 
      8 C8          2.0780  -15.4220  -50.2874 C.3       23 UNK        -0.0205 
      9 C9          1.9960  -16.9348  -50.1636 C.ar      23 UNK        -0.0193 
     10 C10         1.8009  -17.7291  -51.2939 C.ar      23 UNK        -0.1150 
     11 C11         1.7705  -19.1214  -51.1865 C.ar      23 UNK        -0.0193 
     12 C12         1.9293  -19.7212  -49.9318 C.ar      23 UNK        -0.1150 
     13 C13         2.1378  -18.9362  -48.7868 C.ar      23 UNK        -0.0193 
     14 C14         2.1584  -17.5440  -48.9174 C.ar      23 UNK        -0.1150 
     15 C15         2.3982  -19.5151  -47.3940 C.3       23 UNK        -0.0205 
     16 S16         2.4379  -21.3363  -47.2561 S.3       23 UNK        -0.2404 
     17 C17         0.6879  -21.6832  -46.8973 C.3       23 UNK        -0.0398 
     18 CA          0.4218  -23.1800  -46.6171 C.3       11 UNK         0.1400 
     19 N           1.2090  -23.7035  -45.4986 N.am      11 UNK        -0.5000 
     20 C           1.3865  -25.0057  -45.2396 C.2       10 UNK         0.5000 
     21 O           0.9135  -25.9104  -45.9275 O.2       10 UNK        -0.5000 
     22 CA          2.1882  -25.3485  -43.9709 C.3       10 UNK         0.1400 
     23 CB          3.6969  -25.2286  -44.2329 C.3       10 UNK        -0.1800 
     24 N           1.8217  -24.5017  -42.8338 N.am      10 UNK        -0.5000 
     25 C           0.6215  -24.5219  -42.2375 C.2       9 UNK         0.5000 
     26 O          -0.2879  -25.2850  -42.5615 O.2       9 UNK        -0.5000 
     27 CA          0.3769  -23.4857  -41.1245 C.3       9 UNK         0.1400 
     28 CB          0.8704  -24.0212  -39.7725 C.3       9 UNK        -0.1800 
     29 N           0.9772  -22.1705  -41.3719 N.am      9 UNK        -0.5000 
     30 C           0.7585  -21.4035  -42.4481 C.2       8 UNK         0.5000 
     31 O           0.0734  -21.7528  -43.4101 O.2       8 UNK        -0.5000 
     32 CA          1.3705  -19.9943  -42.4136 C.3       8 UNK         0.1400 
     33 CB          1.6286  -19.4328  -43.8208 C.3       8 UNK        -0.1800 
     34 N           0.4599  -19.0979  -41.7111 N.am      8 UNK        -0.5000 
     35 C           0.4019  -18.9433  -40.3822 C.2       7 UNK         0.5000 
     36 O           1.1554  -19.5339  -39.6059 O.2       7 UNK        -0.5000 
     37 CA         -0.6907  -18.0082  -39.8142 C.3       7 UNK         0.1400 
     38 CB         -0.1473  -17.0936  -38.6965 C.3       7 UNK        -0.1800 
     39 N          -1.4250  -17.2273  -40.8215 N.am      7 UNK        -0.5000 
     40 C          -0.9451  -16.2680  -41.6258 C.2       6 UNK         0.5000 
     41 O           0.2276  -15.8885  -41.6342 O.2       6 UNK        -0.5000 
     42 CA         -1.9622  -15.6264  -42.5847 C.3       6 UNK         0.1400 
     43 CB         -2.3986  -14.2449  -42.0736 C.3       6 UNK        -0.1800 
     44 N          -1.4158  -15.5061  -43.9359 N.am      6 UNK        -0.5000 
     45 C          -1.2258  -16.5468  -44.7616 C.2       5 UNK         0.5000 
     46 O          -1.4924  -17.7082  -44.4507 O.2       5 UNK        -0.5000 
     47 CA         -0.6717  -16.2591  -46.1721 C.3       5 UNK         0.1400 
     48 CB         -1.8098  -16.2774  -47.2050 C.3       5 UNK        -0.1800 
     49 N           0.0327  -14.9805  -46.2620 N.am      5 UNK        -0.5000 
     50 C           1.2767  -14.7711  -45.8077 C.2       4 UNK         0.5000 
     51 O           1.9896  -15.6653  -45.3510 O.2       4 UNK        -0.5000 
     52 CA          1.8197  -13.3249  -45.8463 C.3       4 UNK         0.1400 
     53 CB          2.8444  -13.1466  -46.9772 C.3       4 UNK        -0.1800 
     54 N           0.7864  -12.2916  -45.9700 N.am      4 UNK        -0.5000 
     55 C          -0.1554  -12.0365  -45.0514 C.2       3 UNK         0.5000 
     56 O          -0.2372  -12.6421  -43.9844 O.2       3 UNK        -0.5000 
     57 CA         -1.2033  -10.9545  -45.3798 C.3       3 UNK         0.1400 
     58 CB         -0.8500   -9.6377  -44.6717 C.3       3 UNK        -0.1800 
     59 N          -1.3992  -10.6863  -46.8088 N.am      3 UNK        -0.5000 
     60 C          -1.8141  -11.5713  -47.7262 C.2       2 UNK         0.5000 
     61 O          -1.9874  -12.7668  -47.4814 O.2       2 UNK        -0.5000 
     62 CA         -2.0728  -11.0452  -49.1521 C.3       2 UNK         0.1400 
     63 CB         -1.6784   -9.5691  -49.3671 C.3       2 UNK        -0.1800 
     64 N          -1.3308  -11.8703  -50.0993 N.am      2 UNK        -0.5000 
     65 C          -1.8696  -12.6492  -51.0424 C.2       1 UNK         0.5000 
     66 O          -3.0794  -12.7245  -51.2706 O.2       1 UNK        -0.5000 
     67 C          -1.0823  -23.4266  -46.4018 C.2       11 UNK         0.5000 
     68 O          -1.7892  -23.6932  -47.3715 O.2       11 UNK        -0.5000 
     69 N          -1.5489  -23.3491  -45.1486 N.am      12 UNK        -0.5000 
     70 CA         -2.9185  -23.6748  -44.7530 C.3       12 UNK         0.1400 
     71 CB         -3.1629  -23.2247  -43.3057 C.3       12 UNK        -0.1800 
     72 C          -3.2352  -25.1686  -44.9391 C.2       12 UNK         0.5000 
     73 O          -4.2773  -25.4961  -45.5062 O.2       12 UNK        -0.5000 
     74 N          -2.3109  -26.0426  -44.5141 N.am      13 UNK        -0.5000 
     75 CA         -2.3954  -27.4960  -44.6820 C.3       13 UNK         0.1400 
     76 CB         -1.2548  -28.1686  -43.9035 C.3       13 UNK        -0.1800 
     77 C          -2.3787  -27.9354  -46.1587 C.2       13 UNK         0.5000 
     78 O          -3.1074  -28.8567  -46.5281 O.2       13 UNK        -0.5000 
     79 N          -1.5742  -27.2478  -46.9803 N.am      14 UNK        -0.5000 
     80 CA         -1.4909  -27.4464  -48.4290 C.3       14 UNK         0.1400 
     81 CB         -0.1754  -26.8283  -48.9302 C.3       14 UNK        -0.1800 
     82 C          -2.6830  -26.8519  -49.2089 C.2       14 UNK         0.5000 
     83 O          -2.8190  -27.1403  -50.3979 O.2       14 UNK        -0.5000 
     84 N          -3.4868  -26.0030  -48.5486 N.am      15 UNK        -0.5000 
     85 CA         -4.5713  -25.1712  -49.0904 C.3       15 UNK         0.1400 
     86 CB         -5.6872  -26.0267  -49.7224 C.3       15 UNK        -0.1800 
     87 C          -4.0808  -24.0486  -50.0323 C.2       15 UNK         0.5000 
     88 O          -4.8920  -23.4015  -50.6949 O.2       15 UNK        -0.5000 
     89 N          -2.7680  -23.7905  -50.0322 N.am      16 UNK        -0.5000 
     90 CA         -2.1027  -22.7108  -50.7531 C.3       16 UNK         0.1400 
     91 CB         -0.5839  -22.9288  -50.6785 C.3       16 UNK        -0.1800 
     92 C          -2.4912  -21.3312  -50.1973 C.2       16 UNK         0.5000 
     93 O          -2.7330  -20.4112  -50.9753 O.2       16 UNK        -0.5000 
     94 N          -2.6123  -21.2277  -48.8652 N.am      17 UNK        -0.5000 
     95 CA         -3.0664  -20.0129  -48.1812 C.3       17 UNK         0.1400 
     96 CB         -2.8074  -20.1346  -46.6722 C.3       17 UNK        -0.1800 
     97 C          -4.5512  -19.6985  -48.4428 C.2       17 UNK         0.5000 
     98 O          -4.9263  -18.5267  -48.4682 O.2       17 UNK        -0.5000 
     99 N          -5.3618  -20.7482  -48.6403 N.am      18 UNK        -0.5000 
    100 CA        -6.7742  -20.6418  -49.0024 C.3       18 UNK         0.1400 
    101 CB        -7.4845  -21.9725  -48.7073 C.3       18 UNK        -0.1800 
    102 C         -6.9543  -20.2299  -50.4743 C.2       18 UNK         0.5000 
    103 O         -7.8236  -19.4096  -50.7707 O.2       18 UNK        -0.5000 
    104 N         -6.1220  -20.7925  -51.3629 N.am      19 UNK        -0.5000 
    105 CA        -6.0754  -20.4567  -52.7851 C.3       19 UNK         0.1400 
    106 CB        -5.2154  -21.4906  -53.5291 C.3       19 UNK        -0.1800 
    107 C         -5.5499  -19.0322  -53.0365 C.2       19 UNK         0.5000 
    108 O         -6.1393  -18.3033  -53.8347 O.2       19 UNK        -0.5000 
    109 N         -4.4447  -18.6750  -52.3648 N.am      20 UNK        -0.5000 
    110 CA        -3.7118  -17.4002  -52.3629 C.3       20 UNK         0.1400 
    111 CB        -4.5899  -16.2563  -51.8268 C.3       20 UNK        -0.1800 
    112 C         -3.0516  -17.0101  -53.7017 C.2       20 UNK         0.5000 
    113 O         -1.9773  -16.4082  -53.6885 O.2       20 UNK        -0.5000 
    114 N         -3.6677  -17.3804  -54.8308 N.am      21 UNK        -0.5000 
    115 CA        -3.2386  -17.1114  -56.2076 C.3       21 UNK         0.1400 
    116 CB        -4.3241  -17.6312  -57.1632 C.3       21 UNK        -0.1800 
    117 C         -1.8593  -17.6903  -56.5892 C.2       21 UNK         0.5000 
    118 O         -1.3068  -17.3033  -57.6200 O.2       21 UNK        -0.5000 
    119 N         -1.3215  -18.5865  -55.7532 N.am      22 UNK        -0.5000 
    120 CA         0.0669  -19.0633  -55.7937 C.3       22 UNK         0.1400 
    121 C          1.1398  -17.9644  -55.5168 C.2       22 UNK         0.5000 
    122 N          0.7916  -16.8325  -54.9127 N.am      22 UNK        -0.7600 
    123 O          2.3035  -18.1430  -55.8653 O.2       22 UNK        -0.5000 
    124 C124        0.2562  -20.2962  -54.8717 C.3       23 UNK        -0.0398 
    125 S125       -0.0628  -19.9404  -53.1046 S.3       23 UNK        -0.2404 
    126 C126        1.6341  -19.9634  -52.4455 C.3       23 UNK        -0.0205 
    127 H127       -0.1605  -11.2620  -53.4799 H         1 UNK         0.0600 
    128 H128       -1.8766  -10.8302  -53.3656 H         1 UNK         0.0600 
    129 H129       -1.0555  -10.8171  -54.9231 H         1 UNK         0.0600 
    130 H130       -1.6187  -14.6708  -53.4359 H         1 UNK         0.3000 
    131 H131        0.0667  -12.9353  -51.9468 H         1 UNK         0.0600 
    132 H132       -1.4723  -15.3371  -50.8396 H         1 UNK         0.0800 
    133 H133       -0.0833  -15.5237  -51.8665 H         1 UNK         0.0800 
    134 H134        2.9061  -15.0589  -49.6773 H         1 UNK         0.0800 
    135 H135        2.3028  -15.1222  -51.3122 H         1 UNK         0.0800 
    136 H136        1.6902  -17.2678  -52.2648 H         1 UNK         0.1150 
    137 H137        1.9199  -20.7988  -49.8657 H         1 UNK         0.1150 
    138 H138        2.3224  -16.9265  -48.0446 H         1 UNK         0.1150 
    139 H139        1.6580  -19.1119  -46.7024 H         1 UNK         0.0800 
    140 H140        3.3646  -19.1430  -47.0508 H         1 UNK         0.0800 
    141 H141        0.0986  -21.3363  -47.7479 H         1 UNK         0.0800 
    142 H142        0.3862  -21.0803  -46.0405 H         1 UNK         0.0800 
    143 H143        0.7115  -23.7388  -47.5094 H         1 UNK         0.0600 
    144 H144        1.5835  -23.0207  -44.8566 H         1 UNK         0.3000 
    145 H145        1.9682  -26.3855  -43.7081 H         1 UNK         0.0600 
    146 H146        3.9988  -25.8629  -45.0674 H         1 UNK         0.0600 
    147 H147        4.2740  -25.5418  -43.3627 H         1 UNK         0.0600 
    148 H148        3.9854  -24.2054  -44.4772 H         1 UNK         0.0600 
    149 H149        2.5121  -23.8415  -42.5080 H         1 UNK         0.3000 
    150 H150       -0.7019  -23.3363  -41.0532 H         1 UNK         0.0600 
    151 H151        1.9534  -24.1494  -39.7611 H         1 UNK         0.0600 
    152 H152        0.4221  -24.9902  -39.5483 H         1 UNK         0.0600 
    153 H153        0.6035  -23.3458  -38.9593 H         1 UNK         0.0600 
    154 H154        1.5122  -21.7740  -40.6108 H         1 UNK         0.3000 
    155 H155        2.3281  -20.0399  -41.8907 H         1 UNK         0.0600 
    156 H156        2.0896  -18.4458  -43.7736 H         1 UNK         0.0600 
    157 H157        0.7063  -19.3383  -44.3944 H         1 UNK         0.0600 
    158 H158        2.3039  -20.0819  -44.3786 H         1 UNK         0.0600 
    159 H159       -0.2128  -18.6069  -42.2834 H         1 UNK         0.3000 
    160 H160       -1.4300  -18.6688  -39.3592 H         1 UNK         0.0600 
    161 H161        0.6566  -16.4493  -39.0530 H         1 UNK         0.0600 
    162 H162        0.2514  -17.6809  -37.8685 H         1 UNK         0.0600 
    163 H163       -0.9332  -16.4570  -38.2902 H         1 UNK         0.0600 
    164 H164       -2.4023  -17.4700  -40.9113 H         1 UNK         0.3000 
    165 H165       -2.8514  -16.2584  -42.6394 H         1 UNK         0.0600 
    166 H166       -3.0779  -13.7577  -42.7733 H         1 UNK         0.0600 
    167 H167       -2.9198  -14.3324  -41.1196 H         1 UNK         0.0600 
    168 H168       -1.5456  -13.5843  -41.9162 H         1 UNK         0.0600 
    169 H169       -1.0888  -14.5874  -44.2098 H         1 UNK         0.3000 
    170 H170        0.0224  -17.0645  -46.4217 H         1 UNK         0.0600 
    171 H171       -1.4227  -16.2280  -48.2220 H         1 UNK         0.0600 
    172 H172       -2.4952  -15.4412  -47.0641 H         1 UNK         0.0600 
    173 H173       -2.3965  -17.1921  -47.1296 H         1 UNK         0.0600 
    174 H174       -0.4888  -14.2016  -46.6471 H         1 UNK         0.3000 
    175 H175        2.3368  -13.1616  -44.8985 H         1 UNK         0.0600 
    176 H176        3.6095  -13.9234  -46.9430 H         1 UNK         0.0600 
    177 H177        2.3744  -13.1910  -47.9585 H         1 UNK         0.0600 
    178 H178        3.3547  -12.1867  -46.8960 H         1 UNK         0.0600 
    179 H179        0.7785  -11.7550  -46.8242 H         1 UNK         0.3000 
    180 H180       -2.1572  -11.3075  -44.9826 H         1 UNK         0.0600 
    181 H181        0.0806   -9.2144  -45.0520 H         1 UNK         0.0600 
    182 H182       -0.7266   -9.7906  -43.5985 H         1 UNK         0.0600 
    183 H183       -1.6367   -8.8945  -44.8027 H         1 UNK         0.0600 
    184 H184       -1.2665   -9.7288  -47.1007 H         1 UNK         0.3000 
    185 H185       -3.1476  -11.1340  -49.3214 H         1 UNK         0.0600 
    186 H186       -2.2471   -8.9049  -48.7150 H         1 UNK         0.0600 
    187 H187       -0.6165   -9.3981  -49.1851 H         1 UNK         0.0600 
    188 H188       -1.8880   -9.2597  -50.3914 H         1 UNK         0.0600 
    189 H189       -0.3346  -11.9275  -49.9412 H         1 UNK         0.3000 
    190 H190       -0.9198  -23.0320  -44.4157 H         1 UNK         0.3000 
    191 H191       -3.5995  -23.1167  -45.3973 H         1 UNK         0.0600 
    192 H192       -2.9580  -22.1607  -43.1844 H         1 UNK         0.0600 
    193 H193       -4.2008  -23.3930  -43.0164 H         1 UNK         0.0600 
    194 H194       -2.5350  -23.7687  -42.6012 H         1 UNK         0.0600 
    195 H195       -1.4998  -25.6926  -44.0112 H         1 UNK         0.3000 
    196 H196       -3.3424  -27.8260  -44.2501 H         1 UNK         0.0600 
    197 H197       -1.3000  -29.2540  -44.0015 H         1 UNK         0.0600 
    198 H198       -1.3133  -27.9355  -42.8402 H         1 UNK         0.0600 
    199 H199       -0.2771  -27.8455  -44.2626 H         1 UNK         0.0600 
    200 H200       -0.9486  -26.5561  -46.5807 H         1 UNK         0.3000 
    201 H201       -1.4658  -28.5186  -48.6338 H         1 UNK         0.0600 
    202 H202       -0.0498  -26.9835  -50.0025 H         1 UNK         0.0600 
    203 H203        0.6854  -27.2785  -48.4353 H         1 UNK         0.0600 
    204 H204       -0.1417  -25.7538  -48.7478 H         1 UNK         0.0600 
    205 H205       -3.2804  -25.8399  -47.5713 H         1 UNK         0.3000 
    206 H206       -5.0038  -24.6615  -48.2283 H         1 UNK         0.0600 
    207 H207       -6.0162  -26.8111  -49.0408 H         1 UNK         0.0600 
    208 H208       -6.5594  -25.4160  -49.9583 H         1 UNK         0.0600 
    209 H209       -5.3637  -26.4991  -50.6499 H         1 UNK         0.0600 
    210 H210       -2.2035  -24.2958  -49.3619 H         1 UNK         0.3000 
    211 H211       -2.4094  -22.7535  -51.8000 H         1 UNK         0.0600 
    212 H212       -0.2257  -22.9413  -49.6500 H         1 UNK         0.0600 
    213 H213       -0.0476  -22.1371  -51.1984 H         1 UNK         0.0600 
    214 H214       -0.2990  -23.8730  -51.1428 H         1 UNK         0.0600 
    215 H215       -2.4262  -22.0482  -48.2986 H         1 UNK         0.3000 
    216 H216       -2.4813  -19.1728  -48.5616 H         1 UNK         0.0600 
    217 H217       -3.1937  -19.2671  -46.1357 H         1 UNK         0.0600 
    218 H218       -1.7434  -20.1918  -46.4527 H         1 UNK         0.0600 
    219 H219       -3.2916  -21.0135  -46.2506 H         1 UNK         0.0600 
    220 H220       -4.9634  -21.6740  -48.6239 H         1 UNK         0.3000 
    221 H221       -7.2337  -19.8710  -48.3798 H         1 UNK         0.0600 
    222 H222       -7.0860  -22.7906  -49.3071 H         1 UNK         0.0600 
    223 H223       -7.3866  -22.2478  -47.6571 H         1 UNK         0.0600 
    224 H224       -8.5506  -21.8987  -48.9254 H         1 UNK         0.0600 
    225 H225       -5.4869  -21.5181  -51.0478 H         1 UNK         0.3000 
    226 H226       -7.0919  -20.5138  -53.1802 H         1 UNK         0.0600 
    227 H227       -5.1818  -21.2749  -54.5978 H         1 UNK         0.0600 
    228 H228       -4.1881  -21.5011  -53.1635 H         1 UNK         0.0600 
    229 H229       -5.6202  -22.4960  -53.4121 H         1 UNK         0.0600 
    230 H230       -3.9988  -19.3921  -51.7943 H         1 UNK         0.3000 
    231 H231       -2.8942  -17.5427  -51.6541 H         1 UNK         0.0600 
    232 H232       -5.4368  -16.0512  -52.4820 H         1 UNK         0.0600 
    233 H233       -4.0158  -15.3332  -51.7387 H         1 UNK         0.0600 
    234 H234       -4.9798  -16.4926  -50.8365 H         1 UNK         0.0600 
    235 H235       -4.5739  -17.8270  -54.7215 H         1 UNK         0.3000 
    236 H236       -3.1698  -16.0275  -56.3200 H         1 UNK         0.0600 
    237 H237       -4.4544  -18.7102  -57.0711 H         1 UNK         0.0600 
    238 H238       -5.2860  -17.1589  -56.9621 H         1 UNK         0.0600 
    239 H239       -4.0698  -17.4172  -58.2021 H         1 UNK         0.0600 
    240 H240       -1.8410  -18.8283  -54.9227 H         1 UNK         0.3000 
    241 H241        0.2480  -19.4000  -56.8161 H         1 UNK         0.0600 
    242 H242       -0.1598  -16.6933  -54.5919 H         1 UNK         0.3800 
    243 H243        1.4859  -16.1202  -54.7585 H         1 UNK         0.3800 
    244 H244        1.2551  -20.7175  -54.9966 H         1 UNK         0.0800 
    245 H245       -0.4289  -21.0872  -55.1793 H         1 UNK         0.0800 
    246 H246        2.3277  -19.5752  -53.1928 H         1 UNK         0.0800 
    247 H247        1.9336  -20.9956  -52.2590 H         1 UNK         0.0800 
@<TRIPOS>BOND
     1    1    2 1    
     2    1  127 1    
     3    1  128 1    
     4    1  129 1    
     5    2    3 2    
     6    2    4 am   BACKBONE|DICT|INTERRES
     7    4    5 1    
     8    4  130 1    
     9    5    6 1    
    10    5   65 1    
    11    5  131 1    
    12    6    7 1    
    13    6  132 1    
    14    6  133 1    
    15    7    8 1    
    16    8    9 1    
    17    8  134 1    
    18    8  135 1    
    19    9   10 ar   
    20    9   14 ar   
    21   10   11 ar   
    22   10  136 1    
    23   11   12 ar   
    24   11  126 1    
    25   12   13 ar   
    26   12  137 1    
    27   13   14 ar   
    28   13   15 1    
    29   14  138 1    
    30   15   16 1    
    31   15  139 1    
    32   15  140 1    
    33   16   17 1    
    34   17   18 1    
    35   17  141 1    
    36   17  142 1    
    37   18   19 1    
    38   18   67 1    
    39   18  143 1    
    40   19   20 am   BACKBONE|DICT|INTERRES
    41   19  144 1    
    42   20   21 2    
    43   20   22 1    
    44   22   23 1    
    45   22   24 1    
    46   22  145 1    
    47   23  146 1    
    48   23  147 1    
    49   23  148 1    
    50   24   25 am   BACKBONE|DICT|INTERRES
    51   24  149 1    
    52   25   26 2    
    53   25   27 1    
    54   27   28 1    
    55   27   29 1    
    56   27  150 1    
    57   28  151 1    
    58   28  152 1    
    59   28  153 1    
    60   29   30 am   BACKBONE|DICT|INTERRES
    61   29  154 1    
    62   30   31 2    
    63   30   32 1    
    64   32   33 1    
    65   32   34 1    
    66   32  155 1    
    67   33  156 1    
    68   33  157 1    
    69   33  158 1    
    70   34   35 am   BACKBONE|DICT|INTERRES
    71   34  159 1    
    72   35   36 2    
    73   35   37 1    
    74   37   38 1    
    75   37   39 1    
    76   37  160 1    
    77   38  161 1    
    78   38  162 1    
    79   38  163 1    
    80   39   40 am   BACKBONE|DICT|INTERRES
    81   39  164 1    
    82   40   41 2    
    83   40   42 1    
    84   42   43 1    
    85   42   44 1    
    86   42  165 1    
    87   43  166 1    
    88   43  167 1    
    89   43  168 1    
    90   44   45 am   BACKBONE|DICT|INTERRES
    91   44  169 1    
    92   45   46 2    
    93   45   47 1    
    94   47   48 1    
    95   47   49 1    
    96   47  170 1    
    97   48  171 1    
    98   48  172 1    
    99   48  173 1    
   100   49   50 am   BACKBONE|DICT|INTERRES
   101   49  174 1    
   102   50   51 2    
   103   50   52 1    
   104   52   53 1    
   105   52   54 1    
   106   52  175 1    
   107   53  176 1    
   108   53  177 1    
   109   53  178 1    
   110   54   55 am   BACKBONE|DICT|INTERRES
   111   54  179 1    
   112   55   56 2    
   113   55   57 1    
   114   57   58 1    
   115   57   59 1    
   116   57  180 1    
   117   58  181 1    
   118   58  182 1    
   119   58  183 1    
   120   59   60 am   BACKBONE|DICT|INTERRES
   121   59  184 1    
   122   60   61 2    
   123   60   62 1    
   124   62   63 1    
   125   62   64 1    
   126   62  185 1    
   127   63  186 1    
   128   63  187 1    
   129   63  188 1    
   130   64   65 am   BACKBONE|DICT|INTERRES
   131   64  189 1    
   132   65   66 2    
   133   67   68 2    
   134   67   69 am   BACKBONE|DICT|INTERRES
   135   69   70 1    
   136   69  190 1    
   137   70   71 1    
   138   70   72 1    
   139   70  191 1    
   140   71  192 1    
   141   71  193 1    
   142   71  194 1    
   143   72   73 2    
   144   72   74 am   BACKBONE|DICT|INTERRES
   145   74   75 1    
   146   74  195 1    
   147   75   76 1    
   148   75   77 1    
   149   75  196 1    
   150   76  197 1    
   151   76  198 1    
   152   76  199 1    
   153   77   78 2    
   154   77   79 am   BACKBONE|DICT|INTERRES
   155   79   80 1    
   156   79  200 1    
   157   80   81 1    
   158   80   82 1    
   159   80  201 1    
   160   81  202 1    
   161   81  203 1    
   162   81  204 1    
   163   82   83 2    
   164   82   84 am   BACKBONE|DICT|INTERRES
   165   84   85 1    
   166   84  205 1    
   167   85   86 1    
   168   85   87 1    
   169   85  206 1    
   170   86  207 1    
   171   86  208 1    
   172   86  209 1    
   173   87   88 2    
   174   87   89 am   BACKBONE|DICT|INTERRES
   175   89   90 1    
   176   89  210 1    
   177   90   91 1    
   178   90   92 1    
   179   90  211 1    
   180   91  212 1    
   181   91  213 1    
   182   91  214 1    
   183   92   93 2    
   184   92   94 am   BACKBONE|DICT|INTERRES
   185   94   95 1    
   186   94  215 1    
   187   95   96 1    
   188   95   97 1    
   189   95  216 1    
   190   96  217 1    
   191   96  218 1    
   192   96  219 1    
   193   97   98 2    
   194   97   99 am   BACKBONE|DICT|INTERRES
   195   99  100 1    
   196   99  220 1    
   197  100  101 1    
   198  100  102 1    
   199  100  221 1    
   200  101  222 1    
   201  101  223 1    
   202  101  224 1    
   203  102  103 2    
   204  102  104 am   BACKBONE|DICT|INTERRES
   205  104  105 1    
   206  104  225 1    
   207  105  106 1    
   208  105  107 1    
   209  105  226 1    
   210  106  227 1    
   211  106  228 1    
   212  106  229 1    
   213  107  108 2    
   214  107  109 am   BACKBONE|DICT|INTERRES
   215  109  110 1    
   216  109  230 1    
   217  110  111 1    
   218  110  112 1    
   219  110  231 1    
   220  111  232 1    
   221  111  233 1    
   222  111  234 1    
   223  112  113 2    
   224  112  114 am   BACKBONE|DICT|INTERRES
   225  114  115 1    
   226  114  235 1    
   227  115  116 1    
   228  115  117 1    
   229  115  236 1    
   230  116  237 1    
   231  116  238 1    
   232  116  239 1    
   233  117  118 2    
   234  117  119 am   BACKBONE|DICT|INTERRES
   235  119  120 1    
   236  119  240 1    
   237  120  121 1    
   238  120  124 1    
   239  120  241 1    
   240  121  122 am   BACKBONE|DICT|INTERRES
   241  121  123 2    
   242  122  242 1    
   243  122  243 1    
   244  124  125 1    
   245  124  244 1    
   246  124  245 1    
   247  125  126 1    
   248  126  246 1    
   249  126  247 1    
@<TRIPOS>SUBSTRUCTURE
     1 UNK         1 GROUP             0       ****    0 ROOT    
