@<TRIPOS>MOLECULE
3R540
247   249    1
SMALL
USER_CHARGES


@<TRIPOS>ATOM
      1 CA          3.5664  -11.6851  -48.5827 C.3       0 UNK        -0.1800 
      2 C           2.7593  -12.8921  -48.1287 C.2       0 UNK         0.5000 
      3 O           2.4107  -12.9907  -46.9539 O.2       0 UNK        -0.5000 
      4 N           2.4389  -13.8026  -49.0568 N.am      1 UNK        -0.5000 
      5 CA          1.7247  -15.0656  -48.8036 C.3       1 UNK         0.1400 
      6 C6          1.7809  -16.0196  -50.0242 C.3       23 UNK        -0.0398 
      7 S7          3.4925  -16.3160  -50.5840 S.3       23 UNK        -0.2404 
      8 C8          3.2458  -17.5174  -51.9297 C.3       23 UNK        -0.0205 
      9 C9          3.0563  -18.9394  -51.4194 C.ar      23 UNK        -0.0193 
     10 C10         1.9049  -19.6609  -51.7428 C.ar      23 UNK        -0.1150 
     11 C11         1.7489  -20.9820  -51.3129 C.ar      23 UNK        -0.0193 
     12 C12         2.7522  -21.5790  -50.5404 C.ar      23 UNK        -0.1150 
     13 C13         3.9081  -20.8662  -50.2056 C.ar      23 UNK        -0.0193 
     14 C14         4.0552  -19.5515  -50.6573 C.ar      23 UNK        -0.1150 
     15 C15         5.0140  -21.5047  -49.3693 C.3       23 UNK        -0.0205 
     16 S16         4.5170  -21.9290  -47.6619 S.3       23 UNK        -0.2404 
     17 C17         3.5570  -20.4711  -47.1269 C.3       23 UNK        -0.0398 
     18 CA          2.0531  -20.8392  -47.0220 C.3       11 UNK         0.1400 
     19 N           1.7366  -21.4637  -45.7385 N.am      11 UNK        -0.5000 
     20 C           1.3701  -22.7360  -45.5513 C.2       10 UNK         0.5000 
     21 O           1.2596  -23.5534  -46.4661 O.2       10 UNK        -0.5000 
     22 CA          1.0223  -23.1511  -44.1062 C.3       10 UNK         0.1400 
     23 CB          1.2460  -24.6542  -43.8362 C.3       10 UNK        -0.1800 
     24 N           1.6654  -22.3185  -43.0832 N.am      10 UNK        -0.5000 
     25 C           2.9701  -22.2514  -42.7711 C.2       9 UNK         0.5000 
     26 O           3.8374  -22.9319  -43.3198 O.2       9 UNK        -0.5000 
     27 CA          3.3894  -21.2574  -41.6639 C.3       9 UNK         0.1400 
     28 CB          4.5195  -20.3299  -42.1435 C.3       9 UNK        -0.1800 
     29 N           2.2775  -20.4346  -41.1833 N.am      9 UNK        -0.5000 
     30 C           1.4061  -20.7879  -40.2290 C.2       8 UNK         0.5000 
     31 O           1.4908  -21.8309  -39.5803 O.2       8 UNK        -0.5000 
     32 CA          0.2156  -19.8378  -39.9847 C.3       8 UNK         0.1400 
     33 CB          0.5254  -18.8763  -38.8277 C.3       8 UNK        -0.1800 
     34 N          -0.1689  -19.0631  -41.1692 N.am      8 UNK        -0.5000 
     35 C          -0.6466  -19.5847  -42.3083 C.2       7 UNK         0.5000 
     36 O          -0.8571  -20.7865  -42.4701 O.2       7 UNK        -0.5000 
     37 CA         -0.8487  -18.6183  -43.4904 C.3       7 UNK         0.1400 
     38 CB         -2.1929  -17.8846  -43.3905 C.3       7 UNK        -0.1800 
     39 N           0.2372  -17.6476  -43.6244 N.am      7 UNK        -0.5000 
     40 C           1.5136  -17.9727  -43.8747 C.2       6 UNK         0.5000 
     41 O           1.9004  -19.1281  -44.0516 O.2       6 UNK        -0.5000 
     42 CA          2.5366  -16.8262  -43.8578 C.3       6 UNK         0.1400 
     43 CB          2.5451  -16.0684  -45.1917 C.3       6 UNK        -0.1800 
     44 N           2.2730  -15.8972  -42.7603 N.am      6 UNK        -0.5000 
     45 C           2.5261  -16.1692  -41.4722 C.2       5 UNK         0.5000 
     46 O           3.0627  -17.2074  -41.0860 O.2       5 UNK        -0.5000 
     47 CA          2.0749  -15.1187  -40.4400 C.3       5 UNK         0.1400 
     48 CB          3.1565  -14.0440  -40.2551 C.3       5 UNK        -0.1800 
     49 N           0.8108  -14.4740  -40.8005 N.am      5 UNK        -0.5000 
     50 C          -0.3739  -15.0996  -40.8489 C.2       4 UNK         0.5000 
     51 O          -0.5315  -16.2845  -40.5611 O.2       4 UNK        -0.5000 
     52 CA         -1.5753  -14.2762  -41.3494 C.3       4 UNK         0.1400 
     53 CB         -2.2572  -13.5520  -40.1794 C.3       4 UNK        -0.1800 
     54 N          -1.2184  -13.3012  -42.3835 N.am      4 UNK        -0.5000 
     55 C          -0.7135  -13.6139  -43.5841 C.2       3 UNK         0.5000 
     56 O          -0.4719  -14.7687  -43.9450 O.2       3 UNK        -0.5000 
     57 CA         -0.3495  -12.4254  -44.4906 C.3       3 UNK         0.1400 
     58 CB          1.0882  -11.9691  -44.1980 C.3       3 UNK        -0.1800 
     59 N          -0.4740  -12.7484  -45.9122 N.am      3 UNK        -0.5000 
     60 C          -1.6427  -12.9303  -46.5470 C.2       2 UNK         0.5000 
     61 O          -2.7365  -12.8190  -45.9909 O.2       2 UNK        -0.5000 
     62 CA         -1.6084  -13.2579  -48.0563 C.3       2 UNK         0.1400 
     63 CB         -2.0862  -12.0545  -48.8838 C.3       2 UNK        -0.1800 
     64 N          -0.2867  -13.6575  -48.5386 N.am      2 UNK        -0.5000 
     65 C           0.2672  -14.8583  -48.3281 C.2       1 UNK         0.5000 
     66 O          -0.3345  -15.7784  -47.7796 O.2       1 UNK        -0.5000 
     67 C           1.0957  -19.6542  -47.2303 C.2       11 UNK         0.5000 
     68 O           1.5247  -18.5434  -47.5417 O.2       11 UNK        -0.5000 
     69 N          -0.2054  -19.9274  -47.0541 N.am      12 UNK        -0.5000 
     70 CA         -1.2924  -19.0390  -47.4545 C.3       12 UNK         0.1400 
     71 CB         -2.6226  -19.5866  -46.9102 C.3       12 UNK        -0.1800 
     72 C          -1.3531  -18.9577  -48.9887 C.2       12 UNK         0.5000 
     73 O          -1.2118  -19.9926  -49.6409 O.2       12 UNK        -0.5000 
     74 N          -1.5780  -17.7549  -49.5315 N.am      13 UNK        -0.5000 
     75 CA         -1.7438  -17.4966  -50.9643 C.3       13 UNK         0.1400 
     76 CB         -2.0538  -16.0067  -51.1798 C.3       13 UNK        -0.1800 
     77 C          -2.8584  -18.3618  -51.5788 C.2       13 UNK         0.5000 
     78 O          -3.9531  -18.4173  -51.0161 O.2       13 UNK        -0.5000 
     79 N          -2.5704  -19.0097  -52.7156 N.am      14 UNK        -0.5000 
     80 CA         -3.4461  -19.9978  -53.3546 C.3       14 UNK         0.1400 
     81 CB         -2.7426  -20.5856  -54.5858 C.3       14 UNK        -0.1800 
     82 C          -4.8387  -19.4595  -53.7312 C.2       14 UNK         0.5000 
     83 O          -5.8159  -20.2004  -53.6353 O.2       14 UNK        -0.5000 
     84 N          -4.9117  -18.1761  -54.1086 N.am      15 UNK        -0.5000 
     85 CA         -6.1590  -17.4728  -54.4113 C.3       15 UNK         0.1400 
     86 CB         -5.8317  -16.1460  -55.1128 C.3       15 UNK        -0.1800 
     87 C          -7.0294  -17.2237  -53.1639 C.2       15 UNK         0.5000 
     88 O          -8.2552  -17.2793  -53.2623 O.2       15 UNK        -0.5000 
     89 N          -6.3868  -16.9707  -52.0151 N.am      16 UNK        -0.5000 
     90 CA         -7.0463  -16.7679  -50.7237 C.3       16 UNK         0.1400 
     91 CB         -6.1159  -15.9727  -49.7931 C.3       16 UNK        -0.1800 
     92 C          -7.4484  -18.1065  -50.0814 C.2       16 UNK         0.5000 
     93 O          -8.5291  -18.2080  -49.5005 O.2       16 UNK        -0.5000 
     94 N          -6.5790  -19.1150  -50.2259 N.am      17 UNK        -0.5000 
     95 CA         -6.7777  -20.4839  -49.7510 C.3       17 UNK         0.1400 
     96 CB         -5.4117  -21.1884  -49.7122 C.3       17 UNK        -0.1800 
     97 C          -7.7715  -21.2982  -50.6036 C.2       17 UNK         0.5000 
     98 O          -8.1412  -22.3973  -50.1939 O.2       17 UNK        -0.5000 
     99 N          -8.1530  -20.7797  -51.7809 N.am      18 UNK        -0.5000 
    100 CA        -9.0067  -21.4118  -52.7946 C.3       18 UNK         0.1400 
    101 CB       -10.4535  -21.5594  -52.2799 C.3       18 UNK        -0.1800 
    102 C         -8.4049  -22.7348  -53.3164 C.2       18 UNK         0.5000 
    103 O         -9.1071  -23.7395  -53.4403 O.2       18 UNK        -0.5000 
    104 N         -7.0908  -22.6977  -53.5786 N.am      19 UNK        -0.5000 
    105 CA        -6.2215  -23.7826  -54.0453 C.3       19 UNK         0.1400 
    106 CB        -6.6581  -24.2755  -55.4404 C.3       19 UNK        -0.1800 
    107 C         -6.0322  -24.9422  -53.0415 C.2       19 UNK         0.5000 
    108 O         -5.5002  -25.9849  -53.4252 O.2       19 UNK        -0.5000 
    109 N         -6.4338  -24.7543  -51.7742 N.am      20 UNK        -0.5000 
    110 CA        -6.2228  -25.7284  -50.6980 C.3       20 UNK         0.1400 
    111 CB        -7.1645  -25.4136  -49.5266 C.3       20 UNK        -0.1800 
    112 C         -4.7608  -25.7679  -50.2124 C.2       20 UNK         0.5000 
    113 O         -4.3138  -26.8053  -49.7214 O.2       20 UNK        -0.5000 
    114 N         -4.0485  -24.6447  -50.3629 N.am      21 UNK        -0.5000 
    115 CA        -2.6207  -24.5110  -50.0958 C.3       21 UNK         0.1400 
    116 CB        -2.3725  -23.1734  -49.3798 C.3       21 UNK        -0.1800 
    117 C         -1.8562  -24.5625  -51.4281 C.2       21 UNK         0.5000 
    118 O         -2.3443  -24.0200  -52.4230 O.2       21 UNK        -0.5000 
    119 N         -0.6705  -25.1873  -51.3937 N.am      22 UNK        -0.5000 
    120 CA         0.2706  -25.4056  -52.5085 C.3       22 UNK         0.1400 
    121 C         -0.3705  -25.9595  -53.8206 C.2       22 UNK         0.5000 
    122 N          0.0208  -25.4903  -54.9983 N.am      22 UNK        -0.7600 
    123 O         -1.1821  -26.8812  -53.7756 O.2       22 UNK        -0.5000 
    124 C124        1.3134  -24.2582  -52.6715 C.3       23 UNK        -0.0398 
    125 S125        0.6517  -22.6548  -53.2428 S.3       23 UNK        -0.2404 
    126 C126        0.4848  -21.7460  -51.6763 C.3       23 UNK        -0.0205 
    127 H127        3.7909  -11.7250  -49.6488 H         1 UNK         0.0600 
    128 H128        3.0121  -10.7677  -48.3847 H         1 UNK         0.0600 
    129 H129        4.5091  -11.6396  -48.0376 H         1 UNK         0.0600 
    130 H130        2.7633  -13.6743  -50.0050 H         1 UNK         0.3000 
    131 H131        2.2437  -15.5632  -47.9836 H         1 UNK         0.0600 
    132 H132        1.2108  -15.6116  -50.8600 H         1 UNK         0.0800 
    133 H133        1.3307  -16.9831  -49.7769 H         1 UNK         0.0800 
    134 H134        4.1238  -17.4984  -52.5766 H         1 UNK         0.0800 
    135 H135        2.4042  -17.2030  -52.5487 H         1 UNK         0.0800 
    136 H136        1.1320  -19.2007  -52.3411 H         1 UNK         0.1150 
    137 H137        2.6348  -22.5940  -50.1895 H         1 UNK         0.1150 
    138 H138        4.9494  -18.9953  -50.4130 H         1 UNK         0.1150 
    139 H139        5.3570  -22.4113  -49.8693 H         1 UNK         0.0800 
    140 H140        5.8808  -20.8441  -49.3170 H         1 UNK         0.0800 
    141 H141        3.7403  -19.6550  -47.8257 H         1 UNK         0.0800 
    142 H142        3.9373  -20.1219  -46.1656 H         1 UNK         0.0800 
    143 H143        1.8085  -21.5204  -47.8394 H         1 UNK         0.0600 
    144 H144        1.7732  -20.8338  -44.9408 H         1 UNK         0.3000 
    145 H145       -0.0473  -22.9653  -44.0013 H         1 UNK         0.0600 
    146 H146        0.9960  -24.9120  -42.8071 H         1 UNK         0.0600 
    147 H147        0.6159  -25.2646  -44.4840 H         1 UNK         0.0600 
    148 H148        2.2791  -24.9513  -44.0170 H         1 UNK         0.0600 
    149 H149        1.0319  -21.6990  -42.5913 H         1 UNK         0.3000 
    150 H150        3.7769  -21.8501  -40.8329 H         1 UNK         0.0600 
    151 H151        5.4085  -20.9016  -42.4122 H         1 UNK         0.0600 
    152 H152        4.8111  -19.6270  -41.3628 H         1 UNK         0.0600 
    153 H153        4.2270  -19.7524  -43.0199 H         1 UNK         0.0600 
    154 H154        2.1339  -19.5575  -41.6662 H         1 UNK         0.3000 
    155 H155       -0.6399  -20.4524  -39.6975 H         1 UNK         0.0600 
    156 H156        1.3508  -18.2071  -39.0723 H         1 UNK         0.0600 
    157 H157        0.8013  -19.4237  -37.9256 H         1 UNK         0.0600 
    158 H158       -0.3417  -18.2628  -38.5821 H         1 UNK         0.0600 
    159 H159       -0.0890  -18.0523  -41.0914 H         1 UNK         0.3000 
    160 H160       -0.8543  -19.2198  -44.3993 H         1 UNK         0.0600 
    161 H161       -2.3494  -17.2299  -44.2484 H         1 UNK         0.0600 
    162 H162       -2.2532  -17.2766  -42.4884 H         1 UNK         0.0600 
    163 H163       -3.0218  -18.5928  -43.3643 H         1 UNK         0.0600 
    164 H164       -0.0081  -16.6657  -43.5412 H         1 UNK         0.3000 
    165 H165        3.5278  -17.2613  -43.7130 H         1 UNK         0.0600 
    166 H166        2.8346  -16.7345  -46.0046 H         1 UNK         0.0600 
    167 H167        1.5646  -15.6589  -45.4367 H         1 UNK         0.0600 
    168 H168        3.2582  -15.2441  -45.1781 H         1 UNK         0.0600 
    169 H169        1.7775  -15.0492  -42.9930 H         1 UNK         0.3000 
    170 H170        1.9341  -15.6305  -39.4856 H         1 UNK         0.0600 
    171 H171        4.1079  -14.4938  -39.9679 H         1 UNK         0.0600 
    172 H172        3.3244  -13.4779  -41.1722 H         1 UNK         0.0600 
    173 H173        2.8819  -13.3390  -39.4702 H         1 UNK         0.0600 
    174 H174        0.8499  -13.4969  -41.0495 H         1 UNK         0.3000 
    175 H175       -2.2951  -14.9720  -41.7842 H         1 UNK         0.0600 
    176 H176       -3.1595  -13.0354  -40.5069 H         1 UNK         0.0600 
    177 H177       -2.5532  -14.2587  -39.4027 H         1 UNK         0.0600 
    178 H178       -1.5962  -12.8165  -39.7192 H         1 UNK         0.0600 
    179 H179       -1.3750  -12.3298  -42.1557 H         1 UNK         0.3000 
    180 H180       -1.0261  -11.5964  -44.2723 H         1 UNK         0.0600 
    181 H181        1.8052  -12.7771  -44.3494 H         1 UNK         0.0600 
    182 H182        1.1912  -11.6302  -43.1665 H         1 UNK         0.0600 
    183 H183        1.3791  -11.1391  -44.8422 H         1 UNK         0.0600 
    184 H184        0.3939  -12.8951  -46.4153 H         1 UNK         0.3000 
    185 H185       -2.3057  -14.0813  -48.2257 H         1 UNK         0.0600 
    186 H186       -1.4259  -11.1950  -48.7619 H         1 UNK         0.0600 
    187 H187       -2.1296  -12.2986  -49.9455 H         1 UNK         0.0600 
    188 H188       -3.0878  -11.7446  -48.5827 H         1 UNK         0.0600 
    189 H189        0.2689  -12.9463  -48.9910 H         1 UNK         0.3000 
    190 H190       -0.4646  -20.8757  -46.8291 H         1 UNK         0.3000 
    191 H191       -1.1157  -18.0526  -47.0255 H         1 UNK         0.0600 
    192 H192       -2.6178  -19.6601  -45.8241 H         1 UNK         0.0600 
    193 H193       -2.8422  -20.5779  -47.3093 H         1 UNK         0.0600 
    194 H194       -3.4517  -18.9336  -47.1864 H         1 UNK         0.0600 
    195 H195       -1.6083  -16.9527  -48.9138 H         1 UNK         0.3000 
    196 H196       -0.7978  -17.7336  -51.4544 H         1 UNK         0.0600 
    197 H197       -2.2029  -15.7860  -52.2376 H         1 UNK         0.0600 
    198 H198       -1.2385  -15.3741  -50.8333 H         1 UNK         0.0600 
    199 H199       -2.9584  -15.7033  -50.6511 H         1 UNK         0.0600 
    200 H200       -1.6553  -18.8977  -53.1258 H         1 UNK         0.3000 
    201 H201       -3.5952  -20.8081  -52.6381 H         1 UNK         0.0600 
    202 H202       -1.8073  -21.0723  -54.3092 H         1 UNK         0.0600 
    203 H203       -2.5180  -19.8184  -55.3277 H         1 UNK         0.0600 
    204 H204       -3.3657  -21.3397  -55.0688 H         1 UNK         0.0600 
    205 H205       -4.0580  -17.6404  -54.1607 H         1 UNK         0.3000 
    206 H206       -6.7386  -18.0893  -55.1020 H         1 UNK         0.0600 
    207 H207       -5.2811  -16.3147  -56.0384 H         1 UNK         0.0600 
    208 H208       -6.7436  -15.6064  -55.3722 H         1 UNK         0.0600 
    209 H209       -5.2320  -15.4916  -54.4789 H         1 UNK         0.0600 
    210 H210       -5.3776  -17.0256  -51.9991 H         1 UNK         0.3000 
    211 H211       -7.9537  -16.1798  -50.8774 H         1 UNK         0.0600 
    212 H212       -5.1955  -16.5156  -49.5758 H         1 UNK         0.0600 
    213 H213       -6.6047  -15.7658  -48.8403 H         1 UNK         0.0600 
    214 H214       -5.8430  -15.0136  -50.2335 H         1 UNK         0.0600 
    215 H215       -5.6792  -18.9142  -50.6579 H         1 UNK         0.3000 
    216 H216       -7.1729  -20.4431  -48.7340 H         1 UNK         0.0600 
    217 H217       -5.4962  -22.1861  -49.2800 H         1 UNK         0.0600 
    218 H218       -4.6964  -20.6325  -49.1059 H         1 UNK         0.0600 
    219 H219       -4.9879  -21.2948  -50.7109 H         1 UNK         0.0600 
    220 H220       -7.7437  -19.8952  -52.0475 H         1 UNK         0.3000 
    221 H221       -9.0272  -20.7292  -53.6455 H         1 UNK         0.0600 
    222 H222      -10.5221  -22.2701  -51.4558 H         1 UNK         0.0600 
    223 H223      -10.8463  -20.6040  -51.9322 H         1 UNK         0.0600 
    224 H224      -11.1146  -21.9132  -53.0717 H         1 UNK         0.0600 
    225 H225       -6.6270  -21.7961  -53.4707 H         1 UNK         0.3000 
    226 H226       -5.2335  -23.3330  -54.1565 H         1 UNK         0.0600 
    227 H227       -6.7639  -23.4439  -56.1370 H         1 UNK         0.0600 
    228 H228       -7.6093  -24.8071  -55.4036 H         1 UNK         0.0600 
    229 H229       -5.9205  -24.9580  -55.8639 H         1 UNK         0.0600 
    230 H230       -6.9144  -23.8986  -51.5290 H         1 UNK         0.3000 
    231 H231       -6.4767  -26.7211  -51.0757 H         1 UNK         0.0600 
    232 H232       -8.2028  -25.3609  -49.8548 H         1 UNK         0.0600 
    233 H233       -6.9126  -24.4653  -49.0510 H         1 UNK         0.0600 
    234 H234       -7.1034  -26.1876  -48.7607 H         1 UNK         0.0600 
    235 H235       -4.4766  -23.8747  -50.8538 H         1 UNK         0.3000 
    236 H236       -2.2777  -25.3194  -49.4465 H         1 UNK         0.0600 
    237 H237       -1.3250  -23.0690  -49.0955 H         1 UNK         0.0600 
    238 H238       -2.6254  -22.3231  -50.0145 H         1 UNK         0.0600 
    239 H239       -2.9636  -23.0966  -48.4672 H         1 UNK         0.0600 
    240 H240       -0.3883  -25.6082  -50.5205 H         1 UNK         0.3000 
    241 H241        0.8583  -26.2588  -52.1675 H         1 UNK         0.0600 
    242 H242       -0.3812  -25.8746  -55.8389 H         1 UNK         0.3800 
    243 H243        0.6602  -24.7134  -55.0610 H         1 UNK         0.3800 
    244 H244        1.8314  -24.1119  -51.7247 H         1 UNK         0.0800 
    245 H245        2.0956  -24.5637  -53.3678 H         1 UNK         0.0800 
    246 H246        0.2068  -22.4213  -50.8677 H         1 UNK         0.0800 
    247 H247       -0.3483  -21.0519  -51.7873 H         1 UNK         0.0800 
@<TRIPOS>BOND
     1    1    2 1    
     2    1  127 1    
     3    1  128 1    
     4    1  129 1    
     5    2    3 2    
     6    2    4 am   BACKBONE|DICT|INTERRES
     7    4    5 1    
     8    4  130 1    
     9    5    6 1    
    10    5   65 1    
    11    5  131 1    
    12    6    7 1    
    13    6  132 1    
    14    6  133 1    
    15    7    8 1    
    16    8    9 1    
    17    8  134 1    
    18    8  135 1    
    19    9   10 ar   
    20    9   14 ar   
    21   10   11 ar   
    22   10  136 1    
    23   11   12 ar   
    24   11  126 1    
    25   12   13 ar   
    26   12  137 1    
    27   13   14 ar   
    28   13   15 1    
    29   14  138 1    
    30   15   16 1    
    31   15  139 1    
    32   15  140 1    
    33   16   17 1    
    34   17   18 1    
    35   17  141 1    
    36   17  142 1    
    37   18   19 1    
    38   18   67 1    
    39   18  143 1    
    40   19   20 am   BACKBONE|DICT|INTERRES
    41   19  144 1    
    42   20   21 2    
    43   20   22 1    
    44   22   23 1    
    45   22   24 1    
    46   22  145 1    
    47   23  146 1    
    48   23  147 1    
    49   23  148 1    
    50   24   25 am   BACKBONE|DICT|INTERRES
    51   24  149 1    
    52   25   26 2    
    53   25   27 1    
    54   27   28 1    
    55   27   29 1    
    56   27  150 1    
    57   28  151 1    
    58   28  152 1    
    59   28  153 1    
    60   29   30 am   BACKBONE|DICT|INTERRES
    61   29  154 1    
    62   30   31 2    
    63   30   32 1    
    64   32   33 1    
    65   32   34 1    
    66   32  155 1    
    67   33  156 1    
    68   33  157 1    
    69   33  158 1    
    70   34   35 am   BACKBONE|DICT|INTERRES
    71   34  159 1    
    72   35   36 2    
    73   35   37 1    
    74   37   38 1    
    75   37   39 1    
    76   37  160 1    
    77   38  161 1    
    78   38  162 1    
    79   38  163 1    
    80   39   40 am   BACKBONE|DICT|INTERRES
    81   39  164 1    
    82   40   41 2    
    83   40   42 1    
    84   42   43 1    
    85   42   44 1    
    86   42  165 1    
    87   43  166 1    
    88   43  167 1    
    89   43  168 1    
    90   44   45 am   BACKBONE|DICT|INTERRES
    91   44  169 1    
    92   45   46 2    
    93   45   47 1    
    94   47   48 1    
    95   47   49 1    
    96   47  170 1    
    97   48  171 1    
    98   48  172 1    
    99   48  173 1    
   100   49   50 am   BACKBONE|DICT|INTERRES
   101   49  174 1    
   102   50   51 2    
   103   50   52 1    
   104   52   53 1    
   105   52   54 1    
   106   52  175 1    
   107   53  176 1    
   108   53  177 1    
   109   53  178 1    
   110   54   55 am   BACKBONE|DICT|INTERRES
   111   54  179 1    
   112   55   56 2    
   113   55   57 1    
   114   57   58 1    
   115   57   59 1    
   116   57  180 1    
   117   58  181 1    
   118   58  182 1    
   119   58  183 1    
   120   59   60 am   BACKBONE|DICT|INTERRES
   121   59  184 1    
   122   60   61 2    
   123   60   62 1    
   124   62   63 1    
   125   62   64 1    
   126   62  185 1    
   127   63  186 1    
   128   63  187 1    
   129   63  188 1    
   130   64   65 am   BACKBONE|DICT|INTERRES
   131   64  189 1    
   132   65   66 2    
   133   67   68 2    
   134   67   69 am   BACKBONE|DICT|INTERRES
   135   69   70 1    
   136   69  190 1    
   137   70   71 1    
   138   70   72 1    
   139   70  191 1    
   140   71  192 1    
   141   71  193 1    
   142   71  194 1    
   143   72   73 2    
   144   72   74 am   BACKBONE|DICT|INTERRES
   145   74   75 1    
   146   74  195 1    
   147   75   76 1    
   148   75   77 1    
   149   75  196 1    
   150   76  197 1    
   151   76  198 1    
   152   76  199 1    
   153   77   78 2    
   154   77   79 am   BACKBONE|DICT|INTERRES
   155   79   80 1    
   156   79  200 1    
   157   80   81 1    
   158   80   82 1    
   159   80  201 1    
   160   81  202 1    
   161   81  203 1    
   162   81  204 1    
   163   82   83 2    
   164   82   84 am   BACKBONE|DICT|INTERRES
   165   84   85 1    
   166   84  205 1    
   167   85   86 1    
   168   85   87 1    
   169   85  206 1    
   170   86  207 1    
   171   86  208 1    
   172   86  209 1    
   173   87   88 2    
   174   87   89 am   BACKBONE|DICT|INTERRES
   175   89   90 1    
   176   89  210 1    
   177   90   91 1    
   178   90   92 1    
   179   90  211 1    
   180   91  212 1    
   181   91  213 1    
   182   91  214 1    
   183   92   93 2    
   184   92   94 am   BACKBONE|DICT|INTERRES
   185   94   95 1    
   186   94  215 1    
   187   95   96 1    
   188   95   97 1    
   189   95  216 1    
   190   96  217 1    
   191   96  218 1    
   192   96  219 1    
   193   97   98 2    
   194   97   99 am   BACKBONE|DICT|INTERRES
   195   99  100 1    
   196   99  220 1    
   197  100  101 1    
   198  100  102 1    
   199  100  221 1    
   200  101  222 1    
   201  101  223 1    
   202  101  224 1    
   203  102  103 2    
   204  102  104 am   BACKBONE|DICT|INTERRES
   205  104  105 1    
   206  104  225 1    
   207  105  106 1    
   208  105  107 1    
   209  105  226 1    
   210  106  227 1    
   211  106  228 1    
   212  106  229 1    
   213  107  108 2    
   214  107  109 am   BACKBONE|DICT|INTERRES
   215  109  110 1    
   216  109  230 1    
   217  110  111 1    
   218  110  112 1    
   219  110  231 1    
   220  111  232 1    
   221  111  233 1    
   222  111  234 1    
   223  112  113 2    
   224  112  114 am   BACKBONE|DICT|INTERRES
   225  114  115 1    
   226  114  235 1    
   227  115  116 1    
   228  115  117 1    
   229  115  236 1    
   230  116  237 1    
   231  116  238 1    
   232  116  239 1    
   233  117  118 2    
   234  117  119 am   BACKBONE|DICT|INTERRES
   235  119  120 1    
   236  119  240 1    
   237  120  121 1    
   238  120  124 1    
   239  120  241 1    
   240  121  122 am   BACKBONE|DICT|INTERRES
   241  121  123 2    
   242  122  242 1    
   243  122  243 1    
   244  124  125 1    
   245  124  244 1    
   246  124  245 1    
   247  125  126 1    
   248  126  246 1    
   249  126  247 1    
@<TRIPOS>SUBSTRUCTURE
     1 UNK         1 GROUP             0       ****    0 ROOT    
