@<TRIPOS>MOLECULE
3R540
247   249    1
SMALL
USER_CHARGES


@<TRIPOS>ATOM
      1 CA         -0.7154  -11.1914  -52.5834 C.3       0 UNK        -0.1800 
      2 C           0.3173  -11.4343  -51.4920 C.2       0 UNK         0.5000 
      3 O           0.1560  -10.9440  -50.3738 O.2       0 UNK        -0.5000 
      4 N           1.3811  -12.1810  -51.8110 N.am      1 UNK        -0.5000 
      5 CA          2.4095  -12.6135  -50.8613 C.3       1 UNK         0.1400 
      6 C6          3.7033  -13.0986  -51.5648 C.3       23 UNK        -0.0398 
      7 S7          3.4564  -14.3211  -52.9039 S.3       23 UNK        -0.2404 
      8 C8          4.0183  -15.8918  -52.1500 C.3       23 UNK        -0.0205 
      9 C9          2.9128  -16.9185  -51.8979 C.ar      23 UNK        -0.0193 
     10 C10         1.7719  -16.9925  -52.7070 C.ar      23 UNK        -0.1150 
     11 C11         0.8034  -17.9747  -52.4887 C.ar      23 UNK        -0.0193 
     12 C12         0.9806  -18.9036  -51.4606 C.ar      23 UNK        -0.1150 
     13 C13         2.1170  -18.8528  -50.6502 C.ar      23 UNK        -0.0193 
     14 C14         3.0741  -17.8563  -50.8716 C.ar      23 UNK        -0.1150 
     15 C15         2.3357  -19.8958  -49.5637 C.3       23 UNK        -0.0205 
     16 S16         1.5243  -19.4398  -48.0001 S.3       23 UNK        -0.2404 
     17 C17        -0.0248  -20.3976  -48.0801 C.3       23 UNK        -0.0398 
     18 CA          0.1065  -21.7672  -47.3711 C.3       11 UNK         0.1400 
     19 N           0.3829  -21.6430  -45.9358 N.am      11 UNK        -0.5000 
     20 C           0.7631  -22.6604  -45.1499 C.2       10 UNK         0.5000 
     21 O           0.9973  -23.7939  -45.5690 O.2       10 UNK        -0.5000 
     22 CA          0.8360  -22.3844  -43.6362 C.3       10 UNK         0.1400 
     23 CB          2.1873  -21.7668  -43.2468 C.3       10 UNK        -0.1800 
     24 N          -0.2578  -21.5275  -43.1742 N.am      10 UNK        -0.5000 
     25 C          -1.5502  -21.8841  -43.1913 C.2       9 UNK         0.5000 
     26 O          -1.9406  -22.9992  -43.5317 O.2       9 UNK        -0.5000 
     27 CA         -2.5856  -20.8089  -42.8183 C.3       9 UNK         0.1400 
     28 CB         -2.7698  -20.7245  -41.2961 C.3       9 UNK        -0.1800 
     29 N          -2.2350  -19.4930  -43.3505 N.am      9 UNK        -0.5000 
     30 C          -2.2442  -19.1696  -44.6520 C.2       8 UNK         0.5000 
     31 O          -2.5953  -19.9364  -45.5492 O.2       8 UNK        -0.5000 
     32 CA         -1.7280  -17.7659  -45.0141 C.3       8 UNK         0.1400 
     33 CB         -2.8693  -16.7400  -44.9731 C.3       8 UNK        -0.1800 
     34 N          -0.6373  -17.3238  -44.1440 N.am      8 UNK        -0.5000 
     35 C           0.5648  -17.9155  -44.0963 C.2       7 UNK         0.5000 
     36 O           0.8606  -18.9133  -44.7528 O.2       7 UNK        -0.5000 
     37 CA          1.5745  -17.3503  -43.0827 C.3       7 UNK         0.1400 
     38 CB          2.1648  -16.0166  -43.5672 C.3       7 UNK        -0.1800 
     39 N           0.9823  -17.1788  -41.7551 N.am      7 UNK        -0.5000 
     40 C           0.4952  -18.1675  -40.9935 C.2       6 UNK         0.5000 
     41 O           0.5315  -19.3525  -41.3236 O.2       6 UNK        -0.5000 
     42 CA         -0.1952  -17.7841  -39.6678 C.3       6 UNK         0.1400 
     43 CB          0.8198  -17.6792  -38.5136 C.3       6 UNK        -0.1800 
     44 N          -1.0539  -16.5939  -39.7639 N.am      6 UNK        -0.5000 
     45 C          -0.6909  -15.3184  -39.9496 C.2       5 UNK         0.5000 
     46 O           0.4793  -14.9293  -39.9797 O.2       5 UNK        -0.5000 
     47 CA         -1.8357  -14.3149  -40.1876 C.3       5 UNK         0.1400 
     48 CB         -2.2265  -13.6202  -38.8746 C.3       5 UNK        -0.1800 
     49 N          -1.4733  -13.2996  -41.1786 N.am      5 UNK        -0.5000 
     50 C          -1.1108  -13.5544  -42.4433 C.2       4 UNK         0.5000 
     51 O          -1.1161  -14.6835  -42.9434 O.2       4 UNK        -0.5000 
     52 CA         -0.6129  -12.3390  -43.2514 C.3       4 UNK         0.1400 
     53 CB          0.8188  -11.9686  -42.8299 C.3       4 UNK        -0.1800 
     54 N          -0.6180  -12.5712  -44.6943 N.am      4 UNK        -0.5000 
     55 C          -1.7068  -12.7349  -45.4560 C.2       3 UNK         0.5000 
     56 O          -2.8575  -12.6257  -45.0293 O.2       3 UNK        -0.5000 
     57 CA         -1.4817  -13.0528  -46.9503 C.3       3 UNK         0.1400 
     58 CB         -2.0239  -11.9253  -47.8426 C.3       3 UNK        -0.1800 
     59 N          -0.0808  -13.3008  -47.3096 N.am      3 UNK        -0.5000 
     60 C           0.5903  -14.4293  -47.0388 C.2       2 UNK         0.5000 
     61 O           0.0988  -15.3627  -46.4111 O.2       2 UNK        -0.5000 
     62 CA          2.0567  -14.5207  -47.5165 C.3       2 UNK         0.1400 
     63 CB          2.4832  -15.9691  -47.8275 C.3       2 UNK        -0.1800 
     64 N           2.3850  -13.6324  -48.6394 N.am      2 UNK        -0.5000 
     65 C           1.8567  -13.6613  -49.8726 C.2       1 UNK         0.5000 
     66 O           0.9802  -14.4488  -50.2335 O.2       1 UNK        -0.5000 
     67 C          -1.1230  -22.6634  -47.6349 C.2       11 UNK         0.5000 
     68 O          -1.0699  -23.5129  -48.5215 O.2       11 UNK        -0.5000 
     69 N          -2.1898  -22.5059  -46.8366 N.am      12 UNK        -0.5000 
     70 CA         -3.3900  -23.3451  -46.8951 C.3       12 UNK         0.1400 
     71 CB         -4.4866  -22.7465  -46.0026 C.3       12 UNK        -0.1800 
     72 C          -3.1165  -24.8139  -46.5176 C.2       12 UNK         0.5000 
     73 O          -3.6628  -25.7151  -47.1528 O.2       12 UNK        -0.5000 
     74 N          -2.2491  -25.0378  -45.5214 N.am      13 UNK        -0.5000 
     75 CA         -1.7879  -26.3645  -45.1057 C.3       13 UNK         0.1400 
     76 CB         -0.9792  -26.2437  -43.8056 C.3       13 UNK        -0.1800 
     77 C          -0.9710  -27.0915  -46.1925 C.2       13 UNK         0.5000 
     78 O          -1.0063  -28.3217  -46.2554 O.2       13 UNK        -0.5000 
     79 N          -0.2865  -26.3296  -47.0563 N.am      14 UNK        -0.5000 
     80 CA          0.4417  -26.8158  -48.2264 C.3       14 UNK         0.1400 
     81 CB          1.5334  -25.7974  -48.6021 C.3       14 UNK        -0.1800 
     82 C          -0.5182  -27.1323  -49.3937 C.2       14 UNK         0.5000 
     83 O          -0.4821  -26.4699  -50.4312 O.2       14 UNK        -0.5000 
     84 N          -1.3617  -28.1541  -49.1918 N.am      15 UNK        -0.5000 
     85 CA         -2.2812  -28.7583  -50.1625 C.3       15 UNK         0.1400 
     86 CB         -1.4872  -29.4906  -51.2651 C.3       15 UNK        -0.1800 
     87 C          -3.3329  -27.7791  -50.7285 C.2       15 UNK         0.5000 
     88 O          -3.6020  -27.7908  -51.9309 O.2       15 UNK        -0.5000 
     89 N          -3.9166  -26.9573  -49.8435 N.am      16 UNK        -0.5000 
     90 CA         -4.9990  -25.9965  -50.0983 C.3       16 UNK         0.1400 
     91 CB         -6.2613  -26.7013  -50.6393 C.3       16 UNK        -0.1800 
     92 C          -4.5964  -24.7778  -50.9534 C.2       16 UNK         0.5000 
     93 O          -5.4726  -24.0038  -51.3427 O.2       16 UNK        -0.5000 
     94 N          -3.2943  -24.5754  -51.1955 N.am      17 UNK        -0.5000 
     95 CA         -2.7424  -23.4548  -51.9610 C.3       17 UNK         0.1400 
     96 CB         -1.3863  -23.8777  -52.5526 C.3       17 UNK        -0.1800 
     97 C          -2.6440  -22.1660  -51.1169 C.2       17 UNK         0.5000 
     98 O          -1.5863  -21.5371  -51.0765 O.2       17 UNK        -0.5000 
     99 N          -3.7483  -21.8028  -50.4477 N.am      18 UNK        -0.5000 
    100 CA        -3.8968  -20.6303  -49.5831 C.3       18 UNK         0.1400 
    101 CB        -5.3342  -20.5957  -49.0446 C.3       18 UNK        -0.1800 
    102 C         -3.5771  -19.3217  -50.3212 C.2       18 UNK         0.5000 
    103 O         -3.8792  -19.2169  -51.5093 O.2       18 UNK        -0.5000 
    104 N         -3.0016  -18.3470  -49.6066 N.am      19 UNK        -0.5000 
    105 CA        -2.4320  -17.1047  -50.1464 C.3       19 UNK         0.1400 
    106 CB        -1.9408  -16.2460  -48.9750 C.3       19 UNK        -0.1800 
    107 C         -3.3539  -16.2807  -51.0716 C.2       19 UNK         0.5000 
    108 O         -2.8639  -15.6342  -51.9972 O.2       19 UNK        -0.5000 
    109 N         -4.6676  -16.3328  -50.8173 N.am      20 UNK        -0.5000 
    110 CA        -5.6940  -15.6414  -51.5979 C.3       20 UNK         0.1400 
    111 CB        -6.9262  -15.4365  -50.7020 C.3       20 UNK        -0.1800 
    112 C         -6.0972  -16.3689  -52.8991 C.2       20 UNK         0.5000 
    113 O         -6.7129  -15.7371  -53.7591 O.2       20 UNK        -0.5000 
    114 N         -5.7870  -17.6674  -53.0175 N.am      21 UNK        -0.5000 
    115 CA        -6.2117  -18.5315  -54.1241 C.3       21 UNK         0.1400 
    116 CB        -7.0401  -19.6955  -53.5543 C.3       21 UNK        -0.1800 
    117 C         -5.0153  -19.0696  -54.9252 C.2       21 UNK         0.5000 
    118 O         -5.0443  -19.0455  -56.1564 O.2       21 UNK        -0.5000 
    119 N         -3.9826  -19.5240  -54.2085 N.am      22 UNK        -0.5000 
    120 CA        -2.7437  -20.1258  -54.7119 C.3       22 UNK         0.1400 
    121 C         -2.9261  -21.4875  -55.4483 C.2       22 UNK         0.5000 
    122 N         -1.8788  -22.0135  -56.0695 N.am      22 UNK        -0.7600 
    123 O         -3.9883  -22.1048  -55.4216 O.2       22 UNK        -0.5000 
    124 C124       -1.8660  -19.0914  -55.4791 C.3       23 UNK        -0.0398 
    125 S125       -0.1613  -19.0601  -54.8407 S.3       23 UNK        -0.2404 
    126 C126       -0.4340  -18.0315  -53.3656 C.3       23 UNK        -0.0205 
    127 H127       -1.6821  -11.5929  -52.2790 H         1 UNK         0.0600 
    128 H128       -0.4309  -11.6659  -53.5230 H         1 UNK         0.0600 
    129 H129       -0.8291  -10.1222  -52.7624 H         1 UNK         0.0600 
    130 H130        1.4484  -12.5926  -52.7310 H         1 UNK         0.3000 
    131 H131        2.6837  -11.7345  -50.2731 H         1 UNK         0.0600 
    132 H132        4.1891  -12.2355  -52.0218 H         1 UNK         0.0800 
    133 H133        4.4263  -13.4701  -50.8372 H         1 UNK         0.0800 
    134 H134        4.5534  -15.6897  -51.2216 H         1 UNK         0.0800 
    135 H135        4.7463  -16.3459  -52.8232 H         1 UNK         0.0800 
    136 H136        1.6332  -16.2939  -53.5190 H         1 UNK         0.1150 
    137 H137        0.2389  -19.6729  -51.3009 H         1 UNK         0.1150 
    138 H138        3.9580  -17.8222  -50.2504 H         1 UNK         0.1150 
    139 H139        1.9871  -20.8728  -49.9023 H         1 UNK         0.0800 
    140 H140        3.4040  -20.0107  -49.3746 H         1 UNK         0.0800 
    141 H141       -0.3033  -20.5224  -49.1255 H         1 UNK         0.0800 
    142 H142       -0.8168  -19.8034  -47.6238 H         1 UNK         0.0800 
    143 H143        0.9608  -22.2817  -47.8169 H         1 UNK         0.0600 
    144 H144        0.2913  -20.7179  -45.5275 H         1 UNK         0.3000 
    145 H145        0.7463  -23.3430  -43.1210 H         1 UNK         0.0600 
    146 H146        2.2533  -21.6109  -42.1699 H         1 UNK         0.0600 
    147 H147        3.0105  -22.4225  -43.5329 H         1 UNK         0.0600 
    148 H148        2.3513  -20.8058  -43.7335 H         1 UNK         0.0600 
    149 H149       -0.0032  -20.6060  -42.8345 H         1 UNK         0.3000 
    150 H150       -3.5421  -21.1017  -43.2559 H         1 UNK         0.0600 
    151 H151       -3.1036  -21.6819  -40.8940 H         1 UNK         0.0600 
    152 H152       -3.5205  -19.9809  -41.0285 H         1 UNK         0.0600 
    153 H153       -1.8417  -20.4656  -40.7878 H         1 UNK         0.0600 
    154 H154       -1.8935  -18.8080  -42.6939 H         1 UNK         0.3000 
    155 H155       -1.3431  -17.8068  -46.0350 H         1 UNK         0.0600 
    156 H156       -3.2703  -16.6231  -43.9657 H         1 UNK         0.0600 
    157 H157       -3.6902  -17.0393  -45.6258 H         1 UNK         0.0600 
    158 H158       -2.5262  -15.7619  -45.3100 H         1 UNK         0.0600 
    159 H159       -0.7875  -16.4653  -43.6198 H         1 UNK         0.3000 
    160 H160        2.3915  -18.0689  -42.9907 H         1 UNK         0.0600 
    161 H161        1.3953  -15.2555  -43.6957 H         1 UNK         0.0600 
    162 H162        2.6630  -16.1407  -44.5289 H         1 UNK         0.0600 
    163 H163        2.9037  -15.6319  -42.8643 H         1 UNK         0.0600 
    164 H164        0.9083  -16.2317  -41.3982 H         1 UNK         0.3000 
    165 H165       -0.8701  -18.6056  -39.4233 H         1 UNK         0.0600 
    166 H166        1.5798  -16.9204  -38.7000 H         1 UNK         0.0600 
    167 H167        0.3248  -17.4362  -37.5734 H         1 UNK         0.0600 
    168 H168        1.3403  -18.6271  -38.3715 H         1 UNK         0.0600 
    169 H169       -2.0441  -16.7964  -39.7645 H         1 UNK         0.3000 
    170 H170       -2.7043  -14.8545  -40.5707 H         1 UNK         0.0600 
    171 H171       -1.3963  -13.0454  -38.4616 H         1 UNK         0.0600 
    172 H172       -3.0662  -12.9406  -39.0213 H         1 UNK         0.0600 
    173 H173       -2.5276  -14.3490  -38.1210 H         1 UNK         0.0600 
    174 H174       -1.4054  -12.3525  -40.8366 H         1 UNK         0.3000 
    175 H175       -1.2725  -11.4944  -43.0420 H         1 UNK         0.0600 
    176 H176        0.8716  -11.7427  -41.7641 H         1 UNK         0.0600 
    177 H177        1.1724  -11.0862  -43.3636 H         1 UNK         0.0600 
    178 H178        1.5183  -12.7825  -43.0251 H         1 UNK         0.0600 
    179 H179        0.2796  -12.7091  -45.1312 H         1 UNK         0.3000 
    180 H180       -2.0566  -13.9545  -47.1653 H         1 UNK         0.0600 
    181 H181       -1.9535  -12.1924  -48.8974 H         1 UNK         0.0600 
    182 H182       -1.4737  -10.9954  -47.6945 H         1 UNK         0.0600 
    183 H183       -3.0748  -11.7243  -47.6309 H         1 UNK         0.0600 
    184 H184        0.3833  -12.5784  -47.8412 H         1 UNK         0.3000 
    185 H185        2.6615  -14.1791  -46.6754 H         1 UNK         0.0600 
    186 H186        3.5214  -16.0182  -48.1549 H         1 UNK         0.0600 
    187 H187        2.3902  -16.6061  -46.9473 H         1 UNK         0.0600 
    188 H188        1.8630  -16.4089  -48.6092 H         1 UNK         0.0600 
    189 H189        3.0865  -12.9333  -48.4367 H         1 UNK         0.3000 
    190 H190       -2.1915  -21.7535  -46.1545 H         1 UNK         0.3000 
    191 H191       -3.7499  -23.3340  -47.9257 H         1 UNK         0.0600 
    192 H192       -5.4221  -23.2951  -46.1172 H         1 UNK         0.0600 
    193 H193       -4.6847  -21.7058  -46.2582 H         1 UNK         0.0600 
    194 H194       -4.2141  -22.7832  -44.9484 H         1 UNK         0.0600 
    195 H195       -1.9057  -24.2454  -44.9855 H         1 UNK         0.3000 
    196 H196       -2.6709  -26.9726  -44.8992 H         1 UNK         0.0600 
    197 H197       -0.0817  -25.6414  -43.9436 H         1 UNK         0.0600 
    198 H198       -1.5716  -25.7857  -43.0133 H         1 UNK         0.0600 
    199 H199       -0.6637  -27.2253  -43.4498 H         1 UNK         0.0600 
    200 H200       -0.3239  -25.3249  -46.9416 H         1 UNK         0.3000 
    201 H201        0.9475  -27.7466  -47.9613 H         1 UNK         0.0600 
    202 H202        2.1389  -26.1657  -49.4310 H         1 UNK         0.0600 
    203 H203        1.1128  -24.8399  -48.9072 H         1 UNK         0.0600 
    204 H204        2.2057  -25.6132  -47.7639 H         1 UNK         0.0600 
    205 H205       -1.3447  -28.5837  -48.2724 H         1 UNK         0.3000 
    206 H206       -2.8450  -29.5136  -49.6134 H         1 UNK         0.0600 
    207 H207       -0.7807  -30.2015  -50.8365 H         1 UNK         0.0600 
    208 H208       -2.1532  -30.0535  -51.9201 H         1 UNK         0.0600 
    209 H209       -0.9257  -28.7946  -51.8893 H         1 UNK         0.0600 
    210 H210       -3.5936  -26.9717  -48.8821 H         1 UNK         0.3000 
    211 H211       -5.2697  -25.5851  -49.1265 H         1 UNK         0.0600 
    212 H212       -6.5372  -27.5515  -50.0155 H         1 UNK         0.0600 
    213 H213       -6.1232  -27.0617  -51.6588 H         1 UNK         0.0600 
    214 H214       -7.1137  -26.0211  -50.6509 H         1 UNK         0.0600 
    215 H215       -2.6215  -25.2246  -50.8083 H         1 UNK         0.3000 
    216 H216       -3.4105  -23.2379  -52.7969 H         1 UNK         0.0600 
    217 H217       -0.9814  -23.0992  -53.2004 H         1 UNK         0.0600 
    218 H218       -1.4814  -24.7827  -53.1529 H         1 UNK         0.0600 
    219 H219       -0.6518  -24.0698  -51.7692 H         1 UNK         0.0600 
    220 H220       -4.5775  -22.3672  -50.5956 H         1 UNK         0.3000 
    221 H221       -3.2052  -20.7396  -48.7474 H         1 UNK         0.0600 
    222 H222       -5.5924  -21.5255  -48.5384 H         1 UNK         0.0600 
    223 H223       -6.0588  -20.4434  -49.8461 H         1 UNK         0.0600 
    224 H224       -5.4637  -19.7866  -48.3247 H         1 UNK         0.0600 
    225 H225       -2.8433  -18.5045  -48.6228 H         1 UNK         0.3000 
    226 H226       -1.5575  -17.3836  -50.7342 H         1 UNK         0.0600 
    227 H227       -1.1557  -16.7577  -48.4177 H         1 UNK         0.0600 
    228 H228       -1.5193  -15.3039  -49.3285 H         1 UNK         0.0600 
    229 H229       -2.7486  -16.0088  -48.2822 H         1 UNK         0.0600 
    230 H230       -4.9863  -16.8993  -50.0454 H         1 UNK         0.3000 
    231 H231       -5.3161  -14.6563  -51.8802 H         1 UNK         0.0600 
    232 H232       -7.3523  -16.3877  -50.3803 H         1 UNK         0.0600 
    233 H233       -7.7081  -14.8886  -51.2296 H         1 UNK         0.0600 
    234 H234       -6.6749  -14.8614  -49.8106 H         1 UNK         0.0600 
    235 H235       -5.2098  -18.0999  -52.3029 H         1 UNK         0.3000 
    236 H236       -6.8468  -17.9823  -54.8221 H         1 UNK         0.0600 
    237 H237       -7.9368  -19.3305  -53.0534 H         1 UNK         0.0600 
    238 H238       -7.3620  -20.3717  -54.3473 H         1 UNK         0.0600 
    239 H239       -6.4700  -20.2827  -52.8326 H         1 UNK         0.0600 
    240 H240       -4.0450  -19.4832  -53.1922 H         1 UNK         0.3000 
    241 H241       -2.2324  -20.4095  -53.7913 H         1 UNK         0.0600 
    242 H242       -0.9855  -21.5453  -56.0823 H         1 UNK         0.3800 
    243 H243       -1.9803  -22.9016  -56.5356 H         1 UNK         0.3800 
    244 H244       -2.2705  -18.0821  -55.3866 H         1 UNK         0.0800 
    245 H245       -1.8479  -19.2878  -56.5524 H         1 UNK         0.0800 
    246 H246       -0.7266  -17.0243  -53.6675 H         1 UNK         0.0800 
    247 H247       -1.2711  -18.4351  -52.7945 H         1 UNK         0.0800 
@<TRIPOS>BOND
     1    1    2 1    
     2    1  127 1    
     3    1  128 1    
     4    1  129 1    
     5    2    3 2    
     6    2    4 am   BACKBONE|DICT|INTERRES
     7    4    5 1    
     8    4  130 1    
     9    5    6 1    
    10    5   65 1    
    11    5  131 1    
    12    6    7 1    
    13    6  132 1    
    14    6  133 1    
    15    7    8 1    
    16    8    9 1    
    17    8  134 1    
    18    8  135 1    
    19    9   10 ar   
    20    9   14 ar   
    21   10   11 ar   
    22   10  136 1    
    23   11   12 ar   
    24   11  126 1    
    25   12   13 ar   
    26   12  137 1    
    27   13   14 ar   
    28   13   15 1    
    29   14  138 1    
    30   15   16 1    
    31   15  139 1    
    32   15  140 1    
    33   16   17 1    
    34   17   18 1    
    35   17  141 1    
    36   17  142 1    
    37   18   19 1    
    38   18   67 1    
    39   18  143 1    
    40   19   20 am   BACKBONE|DICT|INTERRES
    41   19  144 1    
    42   20   21 2    
    43   20   22 1    
    44   22   23 1    
    45   22   24 1    
    46   22  145 1    
    47   23  146 1    
    48   23  147 1    
    49   23  148 1    
    50   24   25 am   BACKBONE|DICT|INTERRES
    51   24  149 1    
    52   25   26 2    
    53   25   27 1    
    54   27   28 1    
    55   27   29 1    
    56   27  150 1    
    57   28  151 1    
    58   28  152 1    
    59   28  153 1    
    60   29   30 am   BACKBONE|DICT|INTERRES
    61   29  154 1    
    62   30   31 2    
    63   30   32 1    
    64   32   33 1    
    65   32   34 1    
    66   32  155 1    
    67   33  156 1    
    68   33  157 1    
    69   33  158 1    
    70   34   35 am   BACKBONE|DICT|INTERRES
    71   34  159 1    
    72   35   36 2    
    73   35   37 1    
    74   37   38 1    
    75   37   39 1    
    76   37  160 1    
    77   38  161 1    
    78   38  162 1    
    79   38  163 1    
    80   39   40 am   BACKBONE|DICT|INTERRES
    81   39  164 1    
    82   40   41 2    
    83   40   42 1    
    84   42   43 1    
    85   42   44 1    
    86   42  165 1    
    87   43  166 1    
    88   43  167 1    
    89   43  168 1    
    90   44   45 am   BACKBONE|DICT|INTERRES
    91   44  169 1    
    92   45   46 2    
    93   45   47 1    
    94   47   48 1    
    95   47   49 1    
    96   47  170 1    
    97   48  171 1    
    98   48  172 1    
    99   48  173 1    
   100   49   50 am   BACKBONE|DICT|INTERRES
   101   49  174 1    
   102   50   51 2    
   103   50   52 1    
   104   52   53 1    
   105   52   54 1    
   106   52  175 1    
   107   53  176 1    
   108   53  177 1    
   109   53  178 1    
   110   54   55 am   BACKBONE|DICT|INTERRES
   111   54  179 1    
   112   55   56 2    
   113   55   57 1    
   114   57   58 1    
   115   57   59 1    
   116   57  180 1    
   117   58  181 1    
   118   58  182 1    
   119   58  183 1    
   120   59   60 am   BACKBONE|DICT|INTERRES
   121   59  184 1    
   122   60   61 2    
   123   60   62 1    
   124   62   63 1    
   125   62   64 1    
   126   62  185 1    
   127   63  186 1    
   128   63  187 1    
   129   63  188 1    
   130   64   65 am   BACKBONE|DICT|INTERRES
   131   64  189 1    
   132   65   66 2    
   133   67   68 2    
   134   67   69 am   BACKBONE|DICT|INTERRES
   135   69   70 1    
   136   69  190 1    
   137   70   71 1    
   138   70   72 1    
   139   70  191 1    
   140   71  192 1    
   141   71  193 1    
   142   71  194 1    
   143   72   73 2    
   144   72   74 am   BACKBONE|DICT|INTERRES
   145   74   75 1    
   146   74  195 1    
   147   75   76 1    
   148   75   77 1    
   149   75  196 1    
   150   76  197 1    
   151   76  198 1    
   152   76  199 1    
   153   77   78 2    
   154   77   79 am   BACKBONE|DICT|INTERRES
   155   79   80 1    
   156   79  200 1    
   157   80   81 1    
   158   80   82 1    
   159   80  201 1    
   160   81  202 1    
   161   81  203 1    
   162   81  204 1    
   163   82   83 2    
   164   82   84 am   BACKBONE|DICT|INTERRES
   165   84   85 1    
   166   84  205 1    
   167   85   86 1    
   168   85   87 1    
   169   85  206 1    
   170   86  207 1    
   171   86  208 1    
   172   86  209 1    
   173   87   88 2    
   174   87   89 am   BACKBONE|DICT|INTERRES
   175   89   90 1    
   176   89  210 1    
   177   90   91 1    
   178   90   92 1    
   179   90  211 1    
   180   91  212 1    
   181   91  213 1    
   182   91  214 1    
   183   92   93 2    
   184   92   94 am   BACKBONE|DICT|INTERRES
   185   94   95 1    
   186   94  215 1    
   187   95   96 1    
   188   95   97 1    
   189   95  216 1    
   190   96  217 1    
   191   96  218 1    
   192   96  219 1    
   193   97   98 2    
   194   97   99 am   BACKBONE|DICT|INTERRES
   195   99  100 1    
   196   99  220 1    
   197  100  101 1    
   198  100  102 1    
   199  100  221 1    
   200  101  222 1    
   201  101  223 1    
   202  101  224 1    
   203  102  103 2    
   204  102  104 am   BACKBONE|DICT|INTERRES
   205  104  105 1    
   206  104  225 1    
   207  105  106 1    
   208  105  107 1    
   209  105  226 1    
   210  106  227 1    
   211  106  228 1    
   212  106  229 1    
   213  107  108 2    
   214  107  109 am   BACKBONE|DICT|INTERRES
   215  109  110 1    
   216  109  230 1    
   217  110  111 1    
   218  110  112 1    
   219  110  231 1    
   220  111  232 1    
   221  111  233 1    
   222  111  234 1    
   223  112  113 2    
   224  112  114 am   BACKBONE|DICT|INTERRES
   225  114  115 1    
   226  114  235 1    
   227  115  116 1    
   228  115  117 1    
   229  115  236 1    
   230  116  237 1    
   231  116  238 1    
   232  116  239 1    
   233  117  118 2    
   234  117  119 am   BACKBONE|DICT|INTERRES
   235  119  120 1    
   236  119  240 1    
   237  120  121 1    
   238  120  124 1    
   239  120  241 1    
   240  121  122 am   BACKBONE|DICT|INTERRES
   241  121  123 2    
   242  122  242 1    
   243  122  243 1    
   244  124  125 1    
   245  124  244 1    
   246  124  245 1    
   247  125  126 1    
   248  126  246 1    
   249  126  247 1    
@<TRIPOS>SUBSTRUCTURE
     1 UNK         1 GROUP             0       ****    0 ROOT    
