@<TRIPOS>MOLECULE
3R540
247   249    1
SMALL
USER_CHARGES


@<TRIPOS>ATOM
      1 CA         -1.2057  -15.2878  -47.3043 C.3       0 UNK        -0.1800 
      2 C          -0.1987  -14.6038  -48.2181 C.2       0 UNK         0.5000 
      3 O          -0.3522  -13.4214  -48.5208 O.2       0 UNK        -0.5000 
      4 N           0.8491  -15.3330  -48.6233 N.am      1 UNK        -0.5000 
      5 CA          1.9538  -14.9057  -49.4997 C.3       1 UNK         0.1400 
      6 C6          2.9339  -16.0716  -49.8247 C.3       23 UNK        -0.0398 
      7 S7          3.2506  -17.2068  -48.4148 S.3       23 UNK        -0.2404 
      8 C8          3.0517  -18.8776  -49.1371 C.3       23 UNK        -0.0205 
      9 C9          1.8271  -19.0337  -50.0321 C.ar      23 UNK        -0.0193 
     10 C10         1.9802  -19.5039  -51.3403 C.ar      23 UNK        -0.1150 
     11 C11         0.8803  -19.5944  -52.1966 C.ar      23 UNK        -0.0193 
     12 C12        -0.3837  -19.2203  -51.7328 C.ar      23 UNK        -0.1150 
     13 C13        -0.5528  -18.7513  -50.4275 C.ar      23 UNK        -0.0193 
     14 C14         0.5547  -18.6755  -49.5765 C.ar      23 UNK        -0.1150 
     15 C15        -1.9220  -18.2748  -49.9650 C.3       23 UNK        -0.0205 
     16 S16        -2.8834  -19.5935  -49.1649 S.3       23 UNK        -0.2404 
     17 C17        -2.0310  -19.7503  -47.5605 C.3       23 UNK        -0.0398 
     18 CA         -1.1456  -21.0193  -47.4822 C.3       11 UNK         0.1400 
     19 N          -0.0441  -20.8734  -46.5250 N.am      11 UNK        -0.5000 
     20 C           0.9350  -21.7690  -46.3304 C.2       10 UNK         0.5000 
     21 O           1.0625  -22.7935  -46.9971 O.2       10 UNK        -0.5000 
     22 CA          1.8915  -21.5242  -45.1482 C.3       10 UNK         0.1400 
     23 CB          3.0345  -20.5785  -45.5420 C.3       10 UNK        -0.1800 
     24 N           1.1949  -21.0136  -43.9661 N.am      10 UNK        -0.5000 
     25 C           0.2698  -21.7051  -43.2839 C.2       9 UNK         0.5000 
     26 O          -0.0238  -22.8742  -43.5333 O.2       9 UNK        -0.5000 
     27 CA         -0.4978  -20.9517  -42.1808 C.3       9 UNK         0.1400 
     28 CB          0.2930  -20.9443  -40.8647 C.3       9 UNK        -0.1800 
     29 N          -0.8326  -19.5799  -42.5688 N.am      9 UNK        -0.5000 
     30 C          -1.6567  -19.2579  -43.5766 C.2       8 UNK         0.5000 
     31 O          -2.2824  -20.0894  -44.2336 O.2       8 UNK        -0.5000 
     32 CA         -1.7447  -17.7680  -43.9600 C.3       8 UNK         0.1400 
     33 CB         -2.7247  -17.0151  -43.0496 C.3       8 UNK        -0.1800 
     34 N          -0.4354  -17.1158  -43.9256 N.am      8 UNK        -0.5000 
     35 C           0.5786  -17.4132  -44.7490 C.2       7 UNK         0.5000 
     36 O           0.4757  -18.1868  -45.6989 O.2       7 UNK        -0.5000 
     37 CA          1.9421  -16.7752  -44.4392 C.3       7 UNK         0.1400 
     38 CB          2.0733  -15.4056  -45.1126 C.3       7 UNK        -0.1800 
     39 N           2.1641  -16.6397  -43.0016 N.am      7 UNK        -0.5000 
     40 C           2.4812  -17.6589  -42.1920 C.2       6 UNK         0.5000 
     41 O           2.6543  -18.8112  -42.5872 O.2       6 UNK        -0.5000 
     42 CA          2.5854  -17.3455  -40.6871 C.3       6 UNK         0.1400 
     43 CB          4.0021  -16.8702  -40.3332 C.3       6 UNK        -0.1800 
     44 N           1.6160  -16.3381  -40.2524 N.am      6 UNK        -0.5000 
     45 C           0.2888  -16.5253  -40.2298 C.2       5 UNK         0.5000 
     46 O          -0.2519  -17.5931  -40.5146 O.2       5 UNK        -0.5000 
     47 CA         -0.5805  -15.2969  -39.8937 C.3       5 UNK         0.1400 
     48 CB         -0.7985  -15.1900  -38.3774 C.3       5 UNK        -0.1800 
     49 N          -0.0291  -14.0331  -40.3970 N.am      5 UNK        -0.5000 
     50 C           0.2108  -13.7658  -41.6881 C.2       4 UNK         0.5000 
     51 O          -0.0010  -14.5726  -42.5955 O.2       4 UNK        -0.5000 
     52 CA          0.8697  -12.4068  -41.9928 C.3       4 UNK         0.1400 
     53 CB          2.3596  -12.4497  -41.6148 C.3       4 UNK        -0.1800 
     54 N           0.7732  -12.0133  -43.3988 N.am      4 UNK        -0.5000 
     55 C          -0.3467  -11.7404  -44.0767 C.2       3 UNK         0.5000 
     56 O          -1.4697  -11.7783  -43.5715 O.2       3 UNK        -0.5000 
     57 CA         -0.2119  -11.3403  -45.5647 C.3       3 UNK         0.1400 
     58 CB         -0.3356   -9.8133  -45.7274 C.3       3 UNK        -0.1800 
     59 N           0.9712  -11.8412  -46.2870 N.am      3 UNK        -0.5000 
     60 C           2.2727  -11.5747  -46.0850 C.2       2 UNK         0.5000 
     61 O           2.6877  -10.8836  -45.1547 O.2       2 UNK        -0.5000 
     62 CA          3.2798  -12.2024  -47.0698 C.3       2 UNK         0.1400 
     63 CB          4.6200  -12.5589  -46.4007 C.3       2 UNK        -0.1800 
     64 N           2.7218  -13.3970  -47.7043 N.am      2 UNK        -0.5000 
     65 C           2.7174  -13.6487  -49.0184 C.2       1 UNK         0.5000 
     66 O           3.2636  -12.9247  -49.8522 O.2       1 UNK        -0.5000 
     67 C          -2.0016  -22.2661  -47.1852 C.2       11 UNK         0.5000 
     68 O          -2.2945  -23.0363  -48.0991 O.2       11 UNK        -0.5000 
     69 N          -2.3645  -22.4644  -45.9110 N.am      12 UNK        -0.5000 
     70 CA         -3.1142  -23.6285  -45.4357 C.3       12 UNK         0.1400 
     71 CB         -3.5043  -23.4239  -43.9649 C.3       12 UNK        -0.1800 
     72 C          -2.3638  -24.9594  -45.6330 C.2       12 UNK         0.5000 
     73 O          -3.0023  -25.9754  -45.9061 O.2       12 UNK        -0.5000 
     74 N          -1.0312  -24.9276  -45.5153 N.am      13 UNK        -0.5000 
     75 CA         -0.1561  -26.0720  -45.7466 C.3       13 UNK         0.1400 
     76 CB          1.1821  -25.8432  -45.0248 C.3       13 UNK        -0.1800 
     77 C           0.0631  -26.3556  -47.2448 C.2       13 UNK         0.5000 
     78 O          -0.1679  -27.4812  -47.6879 O.2       13 UNK        -0.5000 
     79 N           0.5405  -25.3491  -47.9887 N.am      14 UNK        -0.5000 
     80 CA          1.0372  -25.5053  -49.3564 C.3       14 UNK         0.1400 
     81 CB          2.1011  -24.4306  -49.6356 C.3       14 UNK        -0.1800 
     82 C          -0.0683  -25.4440  -50.4208 C.2       14 UNK         0.5000 
     83 O          -0.0664  -26.2639  -51.3398 O.2       14 UNK        -0.5000 
     84 N          -0.9729  -24.4664  -50.2953 N.am      15 UNK        -0.5000 
     85 CA         -2.0091  -24.1690  -51.2877 C.3       15 UNK         0.1400 
     86 CB         -2.1313  -22.6417  -51.4200 C.3       15 UNK        -0.1800 
     87 C          -3.3736  -24.7747  -50.9155 C.2       15 UNK         0.5000 
     88 O          -4.2996  -24.7033  -51.7225 O.2       15 UNK        -0.5000 
     89 N          -3.4889  -25.3129  -49.6919 N.am      16 UNK        -0.5000 
     90 CA         -4.7228  -25.7558  -49.0338 C.3       16 UNK         0.1400 
     91 CB         -5.3585  -26.9510  -49.7750 C.3       16 UNK        -0.1800 
     92 C          -5.7073  -24.5894  -48.7912 C.2       16 UNK         0.5000 
     93 O          -6.9217  -24.7866  -48.8568 O.2       16 UNK        -0.5000 
     94 N          -5.1523  -23.3970  -48.5143 N.am      17 UNK        -0.5000 
     95 CA         -5.8388  -22.1187  -48.2956 C.3       17 UNK         0.1400 
     96 CB         -6.6528  -22.1455  -46.9846 C.3       17 UNK        -0.1800 
     97 C          -6.6686  -21.6869  -49.5230 C.2       17 UNK         0.5000 
     98 O          -7.8641  -21.4096  -49.4036 O.2       17 UNK        -0.5000 
     99 N          -6.0136  -21.6787  -50.6921 N.am      18 UNK        -0.5000 
    100 CA        -6.5990  -21.3419  -51.9898 C.3       18 UNK         0.1400 
    101 CB        -5.5412  -21.5550  -53.0837 C.3       18 UNK        -0.1800 
    102 C         -7.1419  -19.9014  -52.0564 C.2       18 UNK         0.5000 
    103 O         -6.5209  -18.9786  -51.5214 O.2       18 UNK        -0.5000 
    104 N         -8.2719  -19.7306  -52.7533 N.am      19 UNK        -0.5000 
    105 CA        -8.8933  -18.4406  -53.0515 C.3       19 UNK         0.1400 
    106 CB       -10.3895  -18.6644  -53.3372 C.3       19 UNK        -0.1800 
    107 C         -8.1580  -17.7623  -54.2241 C.2       19 UNK         0.5000 
    108 O         -8.6532  -17.7736  -55.3530 O.2       19 UNK        -0.5000 
    109 N         -6.9640  -17.2347  -53.9203 N.am      20 UNK        -0.5000 
    110 CA        -5.9312  -16.7305  -54.8334 C.3       20 UNK         0.1400 
    111 CB        -6.4775  -15.6388  -55.7788 C.3       20 UNK        -0.1800 
    112 C         -5.2163  -17.8675  -55.5949 C.2       20 UNK         0.5000 
    113 O         -5.6057  -19.0339  -55.4940 O.2       20 UNK        -0.5000 
    114 N         -4.1440  -17.5032  -56.3133 N.am      21 UNK        -0.5000 
    115 CA        -3.1827  -18.4031  -56.9620 C.3       21 UNK         0.1400 
    116 CB        -3.8371  -19.1646  -58.1380 C.3       21 UNK        -0.1800 
    117 C         -2.4828  -19.3042  -55.9192 C.2       21 UNK         0.5000 
    118 O         -2.0698  -18.7905  -54.8782 O.2       21 UNK        -0.5000 
    119 N         -2.3581  -20.6058  -56.1994 N.am      22 UNK        -0.5000 
    120 CA        -1.7753  -21.6096  -55.2945 C.3       22 UNK         0.1400 
    121 C         -2.5245  -22.9740  -55.3409 C.2       22 UNK         0.5000 
    122 N         -3.7658  -23.0257  -55.8107 N.am      22 UNK        -0.7600 
    123 O         -1.9844  -24.0032  -54.9474 O.2       22 UNK        -0.5000 
    124 C124       -0.2318  -21.7282  -55.4715 C.3       23 UNK        -0.0398 
    125 S125        0.6437  -21.7937  -53.8702 S.3       23 UNK        -0.2404 
    126 C126        1.0618  -20.0372  -53.6396 C.3       23 UNK        -0.0205 
    127 H127       -1.1871  -14.8305  -46.3148 H         1 UNK         0.0600 
    128 H128       -0.9933  -16.3503  -47.1911 H         1 UNK         0.0600 
    129 H129       -2.2120  -15.1856  -47.7102 H         1 UNK         0.0600 
    130 H130        0.9304  -16.2896  -48.3097 H         1 UNK         0.3000 
    131 H131        1.4859  -14.6097  -50.4410 H         1 UNK         0.0600 
    132 H132        3.8938  -15.7020  -50.1907 H         1 UNK         0.0800 
    133 H133        2.5270  -16.6331  -50.6640 H         1 UNK         0.0800 
    134 H134        3.9614  -19.1171  -49.6896 H         1 UNK         0.0800 
    135 H135        2.9854  -19.6063  -48.3299 H         1 UNK         0.0800 
    136 H136        2.9610  -19.7771  -51.7034 H         1 UNK         0.1150 
    137 H137       -1.2341  -19.2757  -52.3980 H         1 UNK         0.1150 
    138 H138        0.4390  -18.3105  -48.5669 H         1 UNK         0.1150 
    139 H139       -1.8221  -17.4245  -49.2905 H         1 UNK         0.0800 
    140 H140       -2.4901  -17.9084  -50.8216 H         1 UNK         0.0800 
    141 H141       -2.7837  -19.7339  -46.7713 H         1 UNK         0.0800 
    142 H142       -1.4334  -18.8558  -47.3956 H         1 UNK         0.0800 
    143 H143       -0.6766  -21.1731  -48.4568 H         1 UNK         0.0600 
    144 H144       -0.0258  -20.0171  -45.9795 H         1 UNK         0.3000 
    145 H145        2.3341  -22.4851  -44.8780 H         1 UNK         0.0600 
    146 H146        3.7165  -20.4133  -44.7078 H         1 UNK         0.0600 
    147 H147        3.6192  -20.9998  -46.3604 H         1 UNK         0.0600 
    148 H148        2.6656  -19.6080  -45.8702 H         1 UNK         0.0600 
    149 H149        1.4390  -20.0799  -43.6557 H         1 UNK         0.3000 
    150 H150       -1.4347  -21.4849  -42.0072 H         1 UNK         0.0600 
    151 H151        0.5145  -21.9611  -40.5381 H         1 UNK         0.0600 
    152 H152       -0.2732  -20.4622  -40.0677 H         1 UNK         0.0600 
    153 H153        1.2421  -20.4186  -40.9652 H         1 UNK         0.0600 
    154 H154       -0.4123  -18.8342  -42.0225 H         1 UNK         0.3000 
    155 H155       -2.1212  -17.7079  -44.9832 H         1 UNK         0.0600 
    156 H156       -2.7898  -15.9622  -43.3253 H         1 UNK         0.0600 
    157 H157       -2.4285  -17.0694  -42.0026 H         1 UNK         0.0600 
    158 H158       -3.7276  -17.4364  -43.1274 H         1 UNK         0.0600 
    159 H159       -0.2917  -16.3973  -43.2226 H         1 UNK         0.3000 
    160 H160        2.7199  -17.4230  -44.8486 H         1 UNK         0.0600 
    161 H161        3.0104  -14.9225  -44.8393 H         1 UNK         0.0600 
    162 H162        1.2557  -14.7329  -44.8541 H         1 UNK         0.0600 
    163 H163        2.0712  -15.5315  -46.1918 H         1 UNK         0.0600 
    164 H164        1.9557  -15.7386  -42.5964 H         1 UNK         0.3000 
    165 H165        2.3870  -18.2692  -40.1395 H         1 UNK         0.0600 
    166 H166        4.1093  -16.7149  -39.2595 H         1 UNK         0.0600 
    167 H167        4.7469  -17.6102  -40.6294 H         1 UNK         0.0600 
    168 H168        4.2514  -15.9343  -40.8351 H         1 UNK         0.0600 
    169 H169        1.9795  -15.4319  -39.9975 H         1 UNK         0.3000 
    170 H170       -1.5528  -15.4437  -40.3678 H         1 UNK         0.0600 
    171 H171       -1.2280  -16.1103  -37.9791 H         1 UNK         0.0600 
    172 H172        0.1370  -15.0078  -37.8471 H         1 UNK         0.0600 
    173 H173       -1.4867  -14.3804  -38.1337 H         1 UNK         0.0600 
    174 H174        0.1820  -13.3292  -39.7041 H         1 UNK         0.3000 
    175 H175        0.3708  -11.6423  -41.3942 H         1 UNK         0.0600 
    176 H176        2.8996  -13.1993  -42.1951 H         1 UNK         0.0600 
    177 H177        2.8376  -11.4856  -41.7906 H         1 UNK         0.0600 
    178 H178        2.4973  -12.6878  -40.5594 H         1 UNK         0.0600 
    179 H179        1.6477  -11.8705  -43.8921 H         1 UNK         0.3000 
    180 H180       -1.0667  -11.7909  -46.0717 H         1 UNK         0.0600 
    181 H181       -0.3386   -9.5279  -46.7794 H         1 UNK         0.0600 
    182 H182        0.4829   -9.2849  -45.2378 H         1 UNK         0.0600 
    183 H183       -1.2657   -9.4479  -45.2901 H         1 UNK         0.0600 
    184 H184        0.7397  -12.4019  -47.1005 H         1 UNK         0.3000 
    185 H185        3.4724  -11.4350  -47.8220 H         1 UNK         0.0600 
    186 H186        5.3119  -13.0007  -47.1179 H         1 UNK         0.0600 
    187 H187        5.1040  -11.6710  -45.9923 H         1 UNK         0.0600 
    188 H188        4.4894  -13.2665  -45.5825 H         1 UNK         0.0600 
    189 H189        2.2602  -14.0529  -47.0920 H         1 UNK         0.3000 
    190 H190       -2.1308  -21.7561  -45.2208 H         1 UNK         0.3000 
    191 H191       -4.0342  -23.6902  -46.0168 H         1 UNK         0.0600 
    192 H192       -4.1199  -24.2500  -43.6070 H         1 UNK         0.0600 
    193 H193       -4.0802  -22.5075  -43.8337 H         1 UNK         0.0600 
    194 H194       -2.6290  -23.3645  -43.3187 H         1 UNK         0.0600 
    195 H195       -0.5910  -24.0602  -45.2314 H         1 UNK         0.3000 
    196 H196       -0.6195  -26.9571  -45.3051 H         1 UNK         0.0600 
    197 H197        1.6951  -24.9531  -45.3894 H         1 UNK         0.0600 
    198 H198        1.0330  -25.7228  -43.9515 H         1 UNK         0.0600 
    199 H199        1.8530  -26.6911  -45.1677 H         1 UNK         0.0600 
    200 H200        0.6927  -24.4383  -47.5564 H         1 UNK         0.3000 
    201 H201        1.5258  -26.4786  -49.4412 H         1 UNK         0.0600 
    202 H202        1.6834  -23.4240  -49.5850 H         1 UNK         0.0600 
    203 H203        2.5309  -24.5556  -50.6302 H         1 UNK         0.0600 
    204 H204        2.9189  -24.4889  -48.9172 H         1 UNK         0.0600 
    205 H205       -0.9547  -23.8687  -49.4773 H         1 UNK         0.3000 
    206 H206       -1.7210  -24.5693  -52.2617 H         1 UNK         0.0600 
    207 H207       -1.1605  -22.1756  -51.5826 H         1 UNK         0.0600 
    208 H208       -2.7666  -22.3761  -52.2638 H         1 UNK         0.0600 
    209 H209       -2.5687  -22.1901  -50.5315 H         1 UNK         0.0600 
    210 H210       -2.6666  -25.2835  -49.1049 H         1 UNK         0.3000 
    211 H211       -4.4310  -26.1117  -48.0470 H         1 UNK         0.0600 
    212 H212       -6.1754  -27.3791  -49.1931 H         1 UNK         0.0600 
    213 H213       -4.6297  -27.7442  -49.9413 H         1 UNK         0.0600 
    214 H214       -5.7675  -26.6613  -50.7431 H         1 UNK         0.0600 
    215 H215       -4.1368  -23.3512  -48.4919 H         1 UNK         0.3000 
    216 H216       -5.0586  -21.3674  -48.1732 H         1 UNK         0.0600 
    217 H217       -7.0990  -21.1706  -46.7851 H         1 UNK         0.0600 
    218 H218       -7.4638  -22.8732  -47.0222 H         1 UNK         0.0600 
    219 H219       -6.0221  -22.3892  -46.1304 H         1 UNK         0.0600 
    220 H220       -5.0358  -21.9243  -50.6960 H         1 UNK         0.3000 
    221 H221       -7.4229  -22.0367  -52.1651 H         1 UNK         0.0600 
    222 H222       -5.1771  -22.5817  -53.0918 H         1 UNK         0.0600 
    223 H223       -4.6848  -20.8918  -52.9523 H         1 UNK         0.0600 
    224 H224       -5.9578  -21.3565  -54.0717 H         1 UNK         0.0600 
    225 H225       -8.6961  -20.5340  -53.1942 H         1 UNK         0.3000 
    226 H226       -8.8153  -17.7891  -52.1781 H         1 UNK         0.0600 
    227 H227      -10.5462  -19.3376  -54.1810 H         1 UNK         0.0600 
    228 H228      -10.8954  -19.0909  -52.4708 H         1 UNK         0.0600 
    229 H229      -10.8862  -17.7219  -53.5713 H         1 UNK         0.0600 
    230 H230       -6.6458  -17.3871  -52.9697 H         1 UNK         0.3000 
    231 H231       -5.1803  -16.2676  -54.1914 H         1 UNK         0.0600 
    232 H232       -7.1177  -16.0542  -56.5573 H         1 UNK         0.0600 
    233 H233       -5.6654  -15.1114  -56.2798 H         1 UNK         0.0600 
    234 H234       -7.0539  -14.8932  -55.2310 H         1 UNK         0.0600 
    235 H235       -3.8803  -16.5281  -56.3110 H         1 UNK         0.3000 
    236 H236       -2.4019  -17.7659  -57.3794 H         1 UNK         0.0600 
    237 H237       -3.0926  -19.7121  -58.7171 H         1 UNK         0.0600 
    238 H238       -4.5897  -19.8784  -57.8022 H         1 UNK         0.0600 
    239 H239       -4.3249  -18.4723  -58.8243 H         1 UNK         0.0600 
    240 H240       -2.7132  -20.9582  -57.0769 H         1 UNK         0.3000 
    241 H241       -1.9740  -21.2604  -54.2796 H         1 UNK         0.0600 
    242 H242       -4.2402  -23.9146  -55.8352 H         1 UNK         0.3800 
    243 H243       -4.2587  -22.1909  -56.0838 H         1 UNK         0.3800 
    244 H244        0.1628  -20.8885  -56.0451 H         1 UNK         0.0800 
    245 H245        0.0370  -22.6112  -56.0537 H         1 UNK         0.0800 
    246 H246        2.0891  -19.8707  -53.9670 H         1 UNK         0.0800 
    247 H247        0.4384  -19.4087  -54.2759 H         1 UNK         0.0800 
@<TRIPOS>BOND
     1    1    2 1    
     2    1  127 1    
     3    1  128 1    
     4    1  129 1    
     5    2    3 2    
     6    2    4 am   BACKBONE|DICT|INTERRES
     7    4    5 1    
     8    4  130 1    
     9    5    6 1    
    10    5   65 1    
    11    5  131 1    
    12    6    7 1    
    13    6  132 1    
    14    6  133 1    
    15    7    8 1    
    16    8    9 1    
    17    8  134 1    
    18    8  135 1    
    19    9   10 ar   
    20    9   14 ar   
    21   10   11 ar   
    22   10  136 1    
    23   11   12 ar   
    24   11  126 1    
    25   12   13 ar   
    26   12  137 1    
    27   13   14 ar   
    28   13   15 1    
    29   14  138 1    
    30   15   16 1    
    31   15  139 1    
    32   15  140 1    
    33   16   17 1    
    34   17   18 1    
    35   17  141 1    
    36   17  142 1    
    37   18   19 1    
    38   18   67 1    
    39   18  143 1    
    40   19   20 am   BACKBONE|DICT|INTERRES
    41   19  144 1    
    42   20   21 2    
    43   20   22 1    
    44   22   23 1    
    45   22   24 1    
    46   22  145 1    
    47   23  146 1    
    48   23  147 1    
    49   23  148 1    
    50   24   25 am   BACKBONE|DICT|INTERRES
    51   24  149 1    
    52   25   26 2    
    53   25   27 1    
    54   27   28 1    
    55   27   29 1    
    56   27  150 1    
    57   28  151 1    
    58   28  152 1    
    59   28  153 1    
    60   29   30 am   BACKBONE|DICT|INTERRES
    61   29  154 1    
    62   30   31 2    
    63   30   32 1    
    64   32   33 1    
    65   32   34 1    
    66   32  155 1    
    67   33  156 1    
    68   33  157 1    
    69   33  158 1    
    70   34   35 am   BACKBONE|DICT|INTERRES
    71   34  159 1    
    72   35   36 2    
    73   35   37 1    
    74   37   38 1    
    75   37   39 1    
    76   37  160 1    
    77   38  161 1    
    78   38  162 1    
    79   38  163 1    
    80   39   40 am   BACKBONE|DICT|INTERRES
    81   39  164 1    
    82   40   41 2    
    83   40   42 1    
    84   42   43 1    
    85   42   44 1    
    86   42  165 1    
    87   43  166 1    
    88   43  167 1    
    89   43  168 1    
    90   44   45 am   BACKBONE|DICT|INTERRES
    91   44  169 1    
    92   45   46 2    
    93   45   47 1    
    94   47   48 1    
    95   47   49 1    
    96   47  170 1    
    97   48  171 1    
    98   48  172 1    
    99   48  173 1    
   100   49   50 am   BACKBONE|DICT|INTERRES
   101   49  174 1    
   102   50   51 2    
   103   50   52 1    
   104   52   53 1    
   105   52   54 1    
   106   52  175 1    
   107   53  176 1    
   108   53  177 1    
   109   53  178 1    
   110   54   55 am   BACKBONE|DICT|INTERRES
   111   54  179 1    
   112   55   56 2    
   113   55   57 1    
   114   57   58 1    
   115   57   59 1    
   116   57  180 1    
   117   58  181 1    
   118   58  182 1    
   119   58  183 1    
   120   59   60 am   BACKBONE|DICT|INTERRES
   121   59  184 1    
   122   60   61 2    
   123   60   62 1    
   124   62   63 1    
   125   62   64 1    
   126   62  185 1    
   127   63  186 1    
   128   63  187 1    
   129   63  188 1    
   130   64   65 am   BACKBONE|DICT|INTERRES
   131   64  189 1    
   132   65   66 2    
   133   67   68 2    
   134   67   69 am   BACKBONE|DICT|INTERRES
   135   69   70 1    
   136   69  190 1    
   137   70   71 1    
   138   70   72 1    
   139   70  191 1    
   140   71  192 1    
   141   71  193 1    
   142   71  194 1    
   143   72   73 2    
   144   72   74 am   BACKBONE|DICT|INTERRES
   145   74   75 1    
   146   74  195 1    
   147   75   76 1    
   148   75   77 1    
   149   75  196 1    
   150   76  197 1    
   151   76  198 1    
   152   76  199 1    
   153   77   78 2    
   154   77   79 am   BACKBONE|DICT|INTERRES
   155   79   80 1    
   156   79  200 1    
   157   80   81 1    
   158   80   82 1    
   159   80  201 1    
   160   81  202 1    
   161   81  203 1    
   162   81  204 1    
   163   82   83 2    
   164   82   84 am   BACKBONE|DICT|INTERRES
   165   84   85 1    
   166   84  205 1    
   167   85   86 1    
   168   85   87 1    
   169   85  206 1    
   170   86  207 1    
   171   86  208 1    
   172   86  209 1    
   173   87   88 2    
   174   87   89 am   BACKBONE|DICT|INTERRES
   175   89   90 1    
   176   89  210 1    
   177   90   91 1    
   178   90   92 1    
   179   90  211 1    
   180   91  212 1    
   181   91  213 1    
   182   91  214 1    
   183   92   93 2    
   184   92   94 am   BACKBONE|DICT|INTERRES
   185   94   95 1    
   186   94  215 1    
   187   95   96 1    
   188   95   97 1    
   189   95  216 1    
   190   96  217 1    
   191   96  218 1    
   192   96  219 1    
   193   97   98 2    
   194   97   99 am   BACKBONE|DICT|INTERRES
   195   99  100 1    
   196   99  220 1    
   197  100  101 1    
   198  100  102 1    
   199  100  221 1    
   200  101  222 1    
   201  101  223 1    
   202  101  224 1    
   203  102  103 2    
   204  102  104 am   BACKBONE|DICT|INTERRES
   205  104  105 1    
   206  104  225 1    
   207  105  106 1    
   208  105  107 1    
   209  105  226 1    
   210  106  227 1    
   211  106  228 1    
   212  106  229 1    
   213  107  108 2    
   214  107  109 am   BACKBONE|DICT|INTERRES
   215  109  110 1    
   216  109  230 1    
   217  110  111 1    
   218  110  112 1    
   219  110  231 1    
   220  111  232 1    
   221  111  233 1    
   222  111  234 1    
   223  112  113 2    
   224  112  114 am   BACKBONE|DICT|INTERRES
   225  114  115 1    
   226  114  235 1    
   227  115  116 1    
   228  115  117 1    
   229  115  236 1    
   230  116  237 1    
   231  116  238 1    
   232  116  239 1    
   233  117  118 2    
   234  117  119 am   BACKBONE|DICT|INTERRES
   235  119  120 1    
   236  119  240 1    
   237  120  121 1    
   238  120  124 1    
   239  120  241 1    
   240  121  122 am   BACKBONE|DICT|INTERRES
   241  121  123 2    
   242  122  242 1    
   243  122  243 1    
   244  124  125 1    
   245  124  244 1    
   246  124  245 1    
   247  125  126 1    
   248  126  246 1    
   249  126  247 1    
@<TRIPOS>SUBSTRUCTURE
     1 UNK         1 GROUP             0       ****    0 ROOT    
