@<TRIPOS>MOLECULE
3R540
247   249    1
SMALL
USER_CHARGES


@<TRIPOS>ATOM
      1 CA          5.2993   -9.7036  -52.5403 C.3       0 UNK        -0.1800 
      2 C           4.2964   -9.7984  -51.3993 C.2       0 UNK         0.5000 
      3 O           3.3773   -8.9831  -51.3220 O.2       0 UNK        -0.5000 
      4 N           4.4708  -10.7882  -50.5142 N.am      1 UNK        -0.5000 
      5 CA          3.5923  -11.0649  -49.3698 C.3       1 UNK         0.1400 
      6 C6          4.2735  -11.9889  -48.3293 C.3       23 UNK        -0.0398 
      7 S7          4.9230  -13.5535  -49.0180 S.3       23 UNK        -0.2404 
      8 C8          3.6036  -14.7128  -48.5533 C.3       23 UNK        -0.0205 
      9 C9          3.9139  -16.1195  -49.0306 C.ar      23 UNK        -0.0193 
     10 C10         3.6536  -16.4906  -50.3536 C.ar      23 UNK        -0.1150 
     11 C11         3.8814  -17.8038  -50.7783 C.ar      23 UNK        -0.0193 
     12 C12         4.3937  -18.7384  -49.8747 C.ar      23 UNK        -0.1150 
     13 C13         4.6652  -18.3751  -48.5528 C.ar      23 UNK        -0.0193 
     14 C14         4.4299  -17.0622  -48.1384 C.ar      23 UNK        -0.1150 
     15 C15         5.1884  -19.4069  -47.5647 C.3       23 UNK        -0.0205 
     16 S16         3.9550  -19.8111  -46.2873 S.3       23 UNK        -0.2404 
     17 C17         2.6098  -20.5482  -47.2785 C.3       23 UNK        -0.0398 
     18 CA          2.4957  -22.0771  -47.0890 C.3       11 UNK         0.1400 
     19 N           2.2273  -22.4463  -45.6980 N.am      11 UNK        -0.5000 
     20 C           2.4390  -23.6592  -45.1688 C.2       10 UNK         0.5000 
     21 O           2.9716  -24.5839  -45.7816 O.2       10 UNK        -0.5000 
     22 CA          1.9668  -23.8935  -43.7169 C.3       10 UNK         0.1400 
     23 CB          3.1358  -23.7104  -42.7374 C.3       10 UNK        -0.1800 
     24 N           0.8653  -23.0189  -43.3081 N.am      10 UNK        -0.5000 
     25 C          -0.3520  -23.0045  -43.8669 C.2       9 UNK         0.5000 
     26 O          -0.7151  -23.8184  -44.7158 O.2       9 UNK        -0.5000 
     27 CA         -1.3107  -21.8672  -43.4588 C.3       9 UNK         0.1400 
     28 CB         -2.3437  -22.3793  -42.4454 C.3       9 UNK        -0.1800 
     29 N          -0.6826  -20.6532  -42.9217 N.am      9 UNK        -0.5000 
     30 C           0.2780  -19.9215  -43.5042 C.2       8 UNK         0.5000 
     31 O           0.8773  -20.2690  -44.5195 O.2       8 UNK        -0.5000 
     32 CA          0.5904  -18.5625  -42.8517 C.3       8 UNK         0.1400 
     33 CB          1.8530  -17.9028  -43.4358 C.3       8 UNK        -0.1800 
     34 N          -0.5420  -17.6609  -43.0397 N.am      8 UNK        -0.5000 
     35 C          -1.6690  -17.6716  -42.3173 C.2       7 UNK         0.5000 
     36 O          -1.8357  -18.3763  -41.3206 O.2       7 UNK        -0.5000 
     37 CA         -2.8175  -16.7932  -42.8368 C.3       7 UNK         0.1400 
     38 CB         -2.5706  -15.3101  -42.5186 C.3       7 UNK        -0.1800 
     39 N          -3.0027  -16.9611  -44.2779 N.am      7 UNK        -0.5000 
     40 C          -3.5680  -18.0313  -44.8560 C.2       6 UNK         0.5000 
     41 O          -4.0303  -18.9868  -44.2328 O.2       6 UNK        -0.5000 
     42 CA         -3.6282  -18.0235  -46.3934 C.3       6 UNK         0.1400 
     43 CB         -4.8137  -17.1742  -46.8664 C.3       6 UNK        -0.1800 
     44 N          -2.3927  -17.5102  -46.9858 N.am      6 UNK        -0.5000 
     45 C          -1.2412  -18.1977  -47.0109 C.2       5 UNK         0.5000 
     46 O          -1.1527  -19.3740  -46.6616 O.2       5 UNK        -0.5000 
     47 CA          0.0301  -17.4623  -47.4868 C.3       5 UNK         0.1400 
     48 CB          0.3927  -17.8874  -48.9150 C.3       5 UNK        -0.1800 
     49 N          -0.0562  -15.9999  -47.4258 N.am      5 UNK        -0.5000 
     50 C          -0.2041  -15.2894  -46.2967 C.2       4 UNK         0.5000 
     51 O          -0.2250  -15.7991  -45.1769 O.2       4 UNK        -0.5000 
     52 CA         -0.4187  -13.7660  -46.4221 C.3       4 UNK         0.1400 
     53 CB          0.8813  -13.0152  -46.1080 C.3       4 UNK        -0.1800 
     54 N          -0.9153  -13.3345  -47.7301 N.am      4 UNK        -0.5000 
     55 C          -2.0684  -13.7320  -48.2872 C.2       3 UNK         0.5000 
     56 O          -2.8842  -14.4525  -47.7099 O.2       3 UNK        -0.5000 
     57 CA         -2.3512  -13.2873  -49.7367 C.3       3 UNK         0.1400 
     58 CB         -3.4480  -12.2130  -49.7693 C.3       3 UNK        -0.1800 
     59 N          -1.1932  -12.8083  -50.4946 N.am      3 UNK        -0.5000 
     60 C          -0.0644  -13.4865  -50.7486 C.2       2 UNK         0.5000 
     61 O           0.1863  -14.5997  -50.2858 O.2       2 UNK        -0.5000 
     62 CA          0.9747  -12.7906  -51.6536 C.3       2 UNK         0.1400 
     63 CB          0.3865  -11.6425  -52.5021 C.3       2 UNK        -0.1800 
     64 N           2.1535  -12.3026  -50.9318 N.am      2 UNK        -0.5000 
     65 C           2.2012  -11.5908  -49.7932 C.2       1 UNK         0.5000 
     66 O           1.2203  -11.3245  -49.0965 O.2       1 UNK        -0.5000 
     67 C           1.4130  -22.6442  -48.0278 C.2       11 UNK         0.5000 
     68 O           1.7428  -23.1060  -49.1207 O.2       11 UNK        -0.5000 
     69 N           0.1470  -22.6080  -47.5838 N.am      12 UNK        -0.5000 
     70 CA         -0.9963  -23.1891  -48.2897 C.3       12 UNK         0.1400 
     71 CB         -2.3021  -22.6716  -47.6649 C.3       12 UNK        -0.1800 
     72 C          -0.9480  -24.7287  -48.2896 C.2       12 UNK         0.5000 
     73 O          -1.2358  -25.3449  -49.3165 O.2       12 UNK        -0.5000 
     74 N          -0.5537  -25.3107  -47.1464 N.am      13 UNK        -0.5000 
     75 CA         -0.2891  -26.7319  -46.9112 C.3       13 UNK         0.1400 
     76 CB          1.0311  -27.1423  -47.6015 C.3       13 UNK        -0.1800 
     77 C          -1.4933  -27.6155  -47.2939 C.2       13 UNK         0.5000 
     78 O          -2.5273  -27.5457  -46.6278 O.2       13 UNK        -0.5000 
     79 N          -1.3580  -28.3931  -48.3771 N.am      14 UNK        -0.5000 
     80 CA         -2.3796  -29.2797  -48.9393 C.3       14 UNK         0.1400 
     81 CB         -1.7585  -30.0780  -50.0957 C.3       14 UNK        -0.1800 
     82 C          -3.6636  -28.5638  -49.4068 C.2       14 UNK         0.5000 
     83 O          -4.7059  -29.2127  -49.5040 O.2       14 UNK        -0.5000 
     84 N          -3.5866  -27.2482  -49.6613 N.am      15 UNK        -0.5000 
     85 CA         -4.7432  -26.4008  -49.9616 C.3       15 UNK         0.1400 
     86 CB         -4.2627  -25.1046  -50.6314 C.3       15 UNK        -0.1800 
     87 C          -5.6145  -26.0985  -48.7218 C.2       15 UNK         0.5000 
     88 O          -6.7405  -25.6323  -48.8909 O.2       15 UNK        -0.5000 
     89 N          -5.0961  -26.3803  -47.5138 N.am      16 UNK        -0.5000 
     90 CA         -5.7724  -26.3093  -46.2142 C.3       16 UNK         0.1400 
     91 CB         -6.8763  -27.3839  -46.1237 C.3       16 UNK        -0.1800 
     92 C          -6.2725  -24.8927  -45.8673 C.2       16 UNK         0.5000 
     93 O          -7.4434  -24.7135  -45.5267 O.2       16 UNK        -0.5000 
     94 N          -5.3569  -23.9160  -45.9650 N.am      17 UNK        -0.5000 
     95 CA         -5.5644  -22.4862  -45.6958 C.3       17 UNK         0.1400 
     96 CB         -5.8564  -22.2462  -44.1994 C.3       17 UNK        -0.1800 
     97 C          -6.6209  -21.8565  -46.6288 C.2       17 UNK         0.5000 
     98 O          -7.5240  -21.1540  -46.1691 O.2       17 UNK        -0.5000 
     99 N          -6.4878  -22.1421  -47.9318 N.am      18 UNK        -0.5000 
    100 CA        -7.3125  -21.5924  -49.0097 C.3       18 UNK         0.1400 
    101 CB        -6.9060  -22.2614  -50.3317 C.3       18 UNK        -0.1800 
    102 C         -7.1906  -20.0616  -49.1336 C.2       18 UNK         0.5000 
    103 O         -6.1869  -19.4891  -48.7044 O.2       18 UNK        -0.5000 
    104 N         -8.2107  -19.4387  -49.7410 N.am      19 UNK        -0.5000 
    105 CA        -8.3092  -17.9982  -49.9847 C.3       19 UNK         0.1400 
    106 CB        -9.6319  -17.6961  -50.7063 C.3       19 UNK        -0.1800 
    107 C         -7.1084  -17.4615  -50.7856 C.2       19 UNK         0.5000 
    108 O         -6.8899  -17.8890  -51.9217 O.2       19 UNK        -0.5000 
    109 N         -6.3354  -16.5743  -50.1474 N.am      20 UNK        -0.5000 
    110 CA        -5.0615  -15.9781  -50.5669 C.3       20 UNK         0.1400 
    111 CB        -5.2316  -15.1250  -51.8376 C.3       20 UNK        -0.1800 
    112 C         -3.8921  -16.9772  -50.7099 C.2       20 UNK         0.5000 
    113 O         -2.7986  -16.6870  -50.2280 O.2       20 UNK        -0.5000 
    114 N         -4.1263  -18.1146  -51.3767 N.am      21 UNK        -0.5000 
    115 CA        -3.2139  -19.2265  -51.6813 C.3       21 UNK         0.1400 
    116 CB        -2.6828  -19.8928  -50.3969 C.3       21 UNK        -0.1800 
    117 C         -2.0754  -18.8634  -52.6598 C.2       21 UNK         0.5000 
    118 O         -1.8892  -19.5690  -53.6517 O.2       21 UNK        -0.5000 
    119 N         -1.3742  -17.7579  -52.3929 N.am      22 UNK        -0.5000 
    120 CA        -0.3540  -17.1353  -53.2538 C.3       22 UNK         0.1400 
    121 C         -0.7995  -15.7377  -53.7817 C.2       22 UNK         0.5000 
    122 N         -2.0643  -15.3528  -53.6639 N.am      22 UNK        -0.7600 
    123 O          0.0061  -14.9904  -54.3292 O.2       22 UNK        -0.5000 
    124 C124        1.0272  -17.0737  -52.5500 C.3       23 UNK        -0.0398 
    125 S125        1.8151  -18.7092  -52.3873 S.3       23 UNK        -0.2404 
    126 C126        3.5633  -18.2272  -52.2043 C.3       23 UNK        -0.0205 
    127 H127        6.0577  -10.4846  -52.4797 H         1 UNK         0.0600 
    128 H128        5.8036   -8.7375  -52.5175 H         1 UNK         0.0600 
    129 H129        4.7877   -9.8001  -53.4979 H         1 UNK         0.0600 
    130 H130        5.2485  -11.4245  -50.6241 H         1 UNK         0.3000 
    131 H131        3.4113  -10.1102  -48.8709 H         1 UNK         0.0600 
    132 H132        3.6075  -12.1921  -47.4906 H         1 UNK         0.0800 
    133 H133        5.1207  -11.4584  -47.8926 H         1 UNK         0.0800 
    134 H134        2.6517  -14.3913  -48.9766 H         1 UNK         0.0800 
    135 H135        3.4794  -14.7041  -47.4694 H         1 UNK         0.0800 
    136 H136        3.2504  -15.7620  -51.0426 H         1 UNK         0.1150 
    137 H137        4.5635  -19.7559  -50.1978 H         1 UNK         0.1150 
    138 H138        4.6275  -16.7834  -47.1127 H         1 UNK         0.1150 
    139 H139        5.4889  -20.3226  -48.0764 H         1 UNK         0.0800 
    140 H140        6.0847  -19.0166  -47.0808 H         1 UNK         0.0800 
    141 H141        2.7544  -20.3111  -48.3323 H         1 UNK         0.0800 
    142 H142        1.6780  -20.0587  -46.9936 H         1 UNK         0.0800 
    143 H143        3.4490  -22.5220  -47.3829 H         1 UNK         0.0600 
    144 H144        1.7930  -21.7204  -45.1305 H         1 UNK         0.3000 
    145 H145        1.6176  -24.9259  -43.6485 H         1 UNK         0.0600 
    146 H146        2.8370  -23.9479  -41.7163 H         1 UNK         0.0600 
    147 H147        3.9667  -24.3692  -42.9933 H         1 UNK         0.0600 
    148 H148        3.5126  -22.6868  -42.7495 H         1 UNK         0.0600 
    149 H149        1.0823  -22.3035  -42.6304 H         1 UNK         0.3000 
    150 H150       -1.8440  -21.5683  -44.3638 H         1 UNK         0.0600 
    151 H151       -2.8384  -23.2807  -42.8096 H         1 UNK         0.0600 
    152 H152       -3.1187  -21.6340  -42.2636 H         1 UNK         0.0600 
    153 H153       -1.8798  -22.6235  -41.4890 H         1 UNK         0.0600 
    154 H154       -1.1332  -20.2465  -42.1103 H         1 UNK         0.3000 
    155 H155        0.7564  -18.7265  -41.7851 H         1 UNK         0.0600 
    156 H156        1.7507  -17.7068  -44.5038 H         1 UNK         0.0600 
    157 H157        2.0663  -16.9544  -42.9427 H         1 UNK         0.0600 
    158 H158        2.7255  -18.5439  -43.3038 H         1 UNK         0.0600 
    159 H159       -0.4899  -17.0455  -43.8491 H         1 UNK         0.3000 
    160 H160       -3.7345  -17.1011  -42.3297 H         1 UNK         0.0600 
    161 H161       -2.4489  -15.1581  -41.4455 H         1 UNK         0.0600 
    162 H162       -3.4100  -14.6937  -42.8408 H         1 UNK         0.0600 
    163 H163       -1.6715  -14.9325  -43.0068 H         1 UNK         0.0600 
    164 H164       -2.6043  -16.2481  -44.8713 H         1 UNK         0.3000 
    165 H165       -3.7847  -19.0484  -46.7380 H         1 UNK         0.0600 
    166 H166       -4.8842  -17.1956  -47.9499 H         1 UNK         0.0600 
    167 H167       -5.7540  -17.5626  -46.4727 H         1 UNK         0.0600 
    168 H168       -4.7249  -16.1335  -46.5531 H         1 UNK         0.0600 
    169 H169       -2.4084  -16.5589  -47.3355 H         1 UNK         0.3000 
    170 H170        0.8421  -17.7719  -46.8261 H         1 UNK         0.0600 
    171 H171        0.4262  -18.9730  -49.0143 H         1 UNK         0.0600 
    172 H172       -0.3291  -17.5114  -49.6387 H         1 UNK         0.0600 
    173 H173        1.3725  -17.5088  -49.1956 H         1 UNK         0.0600 
    174 H174       -0.0627  -15.5114  -48.3149 H         1 UNK         0.3000 
    175 H175       -1.1652  -13.4836  -45.6772 H         1 UNK         0.0600 
    176 H176        1.6510  -13.2420  -46.8431 H         1 UNK         0.0600 
    177 H177        0.7257  -11.9361  -46.1069 H         1 UNK         0.0600 
    178 H178        1.2689  -13.2910  -45.1264 H         1 UNK         0.0600 
    179 H179       -0.3014  -12.7408  -48.2759 H         1 UNK         0.3000 
    180 H180       -2.7215  -14.1598  -50.2693 H         1 UNK         0.0600 
    181 H181       -4.3446  -12.5518  -49.2483 H         1 UNK         0.0600 
    182 H182       -3.7408  -11.9778  -50.7928 H         1 UNK         0.0600 
    183 H183       -3.1186  -11.2898  -49.2911 H         1 UNK         0.0600 
    184 H184       -1.2748  -11.8802  -50.8827 H         1 UNK         0.3000 
    185 H185        1.3320  -13.5578  -52.3418 H         1 UNK         0.0600 
    186 H186        0.0838  -10.7916  -51.8906 H         1 UNK         0.0600 
    187 H187        1.1200  -11.2804  -53.2226 H         1 UNK         0.0600 
    188 H188       -0.4811  -11.9771  -53.0728 H         1 UNK         0.0600 
    189 H189        3.0369  -12.4806  -51.3873 H         1 UNK         0.3000 
    190 H190       -0.0368  -22.2030  -46.6771 H         1 UNK         0.3000 
    191 H191       -0.9623  -22.8544  -49.3287 H         1 UNK         0.0600 
    192 H192       -2.3860  -22.9513  -46.6152 H         1 UNK         0.0600 
    193 H193       -3.1733  -23.0702  -48.1831 H         1 UNK         0.0600 
    194 H194       -2.3623  -21.5849  -47.7255 H         1 UNK         0.0600 
    195 H195       -0.4440  -24.7136  -46.3299 H         1 UNK         0.3000 
    196 H196       -0.1519  -26.8482  -45.8352 H         1 UNK         0.0600 
    197 H197        1.2670  -28.1906  -47.4138 H         1 UNK         0.0600 
    198 H198        1.8658  -26.5563  -47.2188 H         1 UNK         0.0600 
    199 H199        0.9990  -26.9917  -48.6812 H         1 UNK         0.0600 
    200 H200       -0.4837  -28.3489  -48.8799 H         1 UNK         0.3000 
    201 H201       -2.6709  -29.9821  -48.1557 H         1 UNK         0.0600 
    202 H202       -0.9035  -30.6638  -49.7577 H         1 UNK         0.0600 
    203 H203       -1.4216  -29.4227  -50.9000 H         1 UNK         0.0600 
    204 H204       -2.4801  -30.7765  -50.5218 H         1 UNK         0.0600 
    205 H205       -2.6917  -26.7777  -49.5664 H         1 UNK         0.3000 
    206 H206       -5.3745  -26.9294  -50.6789 H         1 UNK         0.0600 
    207 H207       -3.6176  -25.3155  -51.4845 H         1 UNK         0.0600 
    208 H208       -5.1061  -24.5238  -51.0031 H         1 UNK         0.0600 
    209 H209       -3.7071  -24.4728  -49.9409 H         1 UNK         0.0600 
    210 H210       -4.1560  -26.7620  -47.4754 H         1 UNK         0.3000 
    211 H211       -5.0185  -26.5567  -45.4653 H         1 UNK         0.0600 
    212 H212       -7.6888  -27.1924  -46.8253 H         1 UNK         0.0600 
    213 H213       -7.3088  -27.4164  -45.1230 H         1 UNK         0.0600 
    214 H214       -6.4772  -28.3757  -46.3366 H         1 UNK         0.0600 
    215 H215       -4.4274  -24.1803  -46.2562 H         1 UNK         0.3000 
    216 H216       -4.6227  -21.9847  -45.9229 H         1 UNK         0.0600 
    217 H217       -5.8581  -21.1797  -43.9709 H         1 UNK         0.0600 
    218 H218       -5.0996  -22.7111  -43.5695 H         1 UNK         0.0600 
    219 H219       -6.8271  -22.6447  -43.9037 H         1 UNK         0.0600 
    220 H220       -5.7332  -22.7467  -48.2146 H         1 UNK         0.3000 
    221 H221       -8.3540  -21.8390  -48.7937 H         1 UNK         0.0600 
    222 H222       -5.8519  -22.0956  -50.5586 H         1 UNK         0.0600 
    223 H223       -7.0826  -23.3358  -50.2970 H         1 UNK         0.0600 
    224 H224       -7.4859  -21.8702  -51.1686 H         1 UNK         0.0600 
    225 H225       -8.9766  -19.9960  -50.0898 H         1 UNK         0.3000 
    226 H226       -8.3357  -17.5043  -49.0111 H         1 UNK         0.0600 
    227 H227      -10.4888  -18.0082  -50.1090 H         1 UNK         0.0600 
    228 H228       -9.7389  -16.6266  -50.8925 H         1 UNK         0.0600 
    229 H229       -9.6907  -18.2041  -51.6698 H         1 UNK         0.0600 
    230 H230       -6.6068  -16.3364  -49.2040 H         1 UNK         0.3000 
    231 H231       -4.7884  -15.3007  -49.7565 H         1 UNK         0.0600 
    232 H232       -5.4729  -15.7326  -52.7102 H         1 UNK         0.0600 
    233 H233       -4.3188  -14.5744  -52.0643 H         1 UNK         0.0600 
    234 H234       -6.0262  -14.3895  -51.7125 H         1 UNK         0.0600 
    235 H235       -5.0721  -18.2240  -51.7357 H         1 UNK         0.3000 
    236 H236       -3.8309  -19.9686  -52.1905 H         1 UNK         0.0600 
    237 H237       -2.0687  -20.7624  -50.6328 H         1 UNK         0.0600 
    238 H238       -2.0707  -19.2139  -49.8057 H         1 UNK         0.0600 
    239 H239       -3.5030  -20.2333  -49.7643 H         1 UNK         0.0600 
    240 H240       -1.6280  -17.2387  -51.5552 H         1 UNK         0.3000 
    241 H241       -0.2323  -17.7324  -54.1588 H         1 UNK         0.0600 
    242 H242       -2.3425  -14.4577  -54.0330 H         1 UNK         0.3800 
    243 H243       -2.7497  -15.9760  -53.2735 H         1 UNK         0.3800 
    244 H244        1.7145  -16.4328  -53.1037 H         1 UNK         0.0800 
    245 H245        0.9336  -16.6346  -51.5591 H         1 UNK         0.0800 
    246 H246        4.1872  -19.0771  -52.4849 H         1 UNK         0.0800 
    247 H247        3.8161  -17.4289  -52.9034 H         1 UNK         0.0800 
@<TRIPOS>BOND
     1    1    2 1    
     2    1  127 1    
     3    1  128 1    
     4    1  129 1    
     5    2    3 2    
     6    2    4 am   BACKBONE|DICT|INTERRES
     7    4    5 1    
     8    4  130 1    
     9    5    6 1    
    10    5   65 1    
    11    5  131 1    
    12    6    7 1    
    13    6  132 1    
    14    6  133 1    
    15    7    8 1    
    16    8    9 1    
    17    8  134 1    
    18    8  135 1    
    19    9   10 ar   
    20    9   14 ar   
    21   10   11 ar   
    22   10  136 1    
    23   11   12 ar   
    24   11  126 1    
    25   12   13 ar   
    26   12  137 1    
    27   13   14 ar   
    28   13   15 1    
    29   14  138 1    
    30   15   16 1    
    31   15  139 1    
    32   15  140 1    
    33   16   17 1    
    34   17   18 1    
    35   17  141 1    
    36   17  142 1    
    37   18   19 1    
    38   18   67 1    
    39   18  143 1    
    40   19   20 am   BACKBONE|DICT|INTERRES
    41   19  144 1    
    42   20   21 2    
    43   20   22 1    
    44   22   23 1    
    45   22   24 1    
    46   22  145 1    
    47   23  146 1    
    48   23  147 1    
    49   23  148 1    
    50   24   25 am   BACKBONE|DICT|INTERRES
    51   24  149 1    
    52   25   26 2    
    53   25   27 1    
    54   27   28 1    
    55   27   29 1    
    56   27  150 1    
    57   28  151 1    
    58   28  152 1    
    59   28  153 1    
    60   29   30 am   BACKBONE|DICT|INTERRES
    61   29  154 1    
    62   30   31 2    
    63   30   32 1    
    64   32   33 1    
    65   32   34 1    
    66   32  155 1    
    67   33  156 1    
    68   33  157 1    
    69   33  158 1    
    70   34   35 am   BACKBONE|DICT|INTERRES
    71   34  159 1    
    72   35   36 2    
    73   35   37 1    
    74   37   38 1    
    75   37   39 1    
    76   37  160 1    
    77   38  161 1    
    78   38  162 1    
    79   38  163 1    
    80   39   40 am   BACKBONE|DICT|INTERRES
    81   39  164 1    
    82   40   41 2    
    83   40   42 1    
    84   42   43 1    
    85   42   44 1    
    86   42  165 1    
    87   43  166 1    
    88   43  167 1    
    89   43  168 1    
    90   44   45 am   BACKBONE|DICT|INTERRES
    91   44  169 1    
    92   45   46 2    
    93   45   47 1    
    94   47   48 1    
    95   47   49 1    
    96   47  170 1    
    97   48  171 1    
    98   48  172 1    
    99   48  173 1    
   100   49   50 am   BACKBONE|DICT|INTERRES
   101   49  174 1    
   102   50   51 2    
   103   50   52 1    
   104   52   53 1    
   105   52   54 1    
   106   52  175 1    
   107   53  176 1    
   108   53  177 1    
   109   53  178 1    
   110   54   55 am   BACKBONE|DICT|INTERRES
   111   54  179 1    
   112   55   56 2    
   113   55   57 1    
   114   57   58 1    
   115   57   59 1    
   116   57  180 1    
   117   58  181 1    
   118   58  182 1    
   119   58  183 1    
   120   59   60 am   BACKBONE|DICT|INTERRES
   121   59  184 1    
   122   60   61 2    
   123   60   62 1    
   124   62   63 1    
   125   62   64 1    
   126   62  185 1    
   127   63  186 1    
   128   63  187 1    
   129   63  188 1    
   130   64   65 am   BACKBONE|DICT|INTERRES
   131   64  189 1    
   132   65   66 2    
   133   67   68 2    
   134   67   69 am   BACKBONE|DICT|INTERRES
   135   69   70 1    
   136   69  190 1    
   137   70   71 1    
   138   70   72 1    
   139   70  191 1    
   140   71  192 1    
   141   71  193 1    
   142   71  194 1    
   143   72   73 2    
   144   72   74 am   BACKBONE|DICT|INTERRES
   145   74   75 1    
   146   74  195 1    
   147   75   76 1    
   148   75   77 1    
   149   75  196 1    
   150   76  197 1    
   151   76  198 1    
   152   76  199 1    
   153   77   78 2    
   154   77   79 am   BACKBONE|DICT|INTERRES
   155   79   80 1    
   156   79  200 1    
   157   80   81 1    
   158   80   82 1    
   159   80  201 1    
   160   81  202 1    
   161   81  203 1    
   162   81  204 1    
   163   82   83 2    
   164   82   84 am   BACKBONE|DICT|INTERRES
   165   84   85 1    
   166   84  205 1    
   167   85   86 1    
   168   85   87 1    
   169   85  206 1    
   170   86  207 1    
   171   86  208 1    
   172   86  209 1    
   173   87   88 2    
   174   87   89 am   BACKBONE|DICT|INTERRES
   175   89   90 1    
   176   89  210 1    
   177   90   91 1    
   178   90   92 1    
   179   90  211 1    
   180   91  212 1    
   181   91  213 1    
   182   91  214 1    
   183   92   93 2    
   184   92   94 am   BACKBONE|DICT|INTERRES
   185   94   95 1    
   186   94  215 1    
   187   95   96 1    
   188   95   97 1    
   189   95  216 1    
   190   96  217 1    
   191   96  218 1    
   192   96  219 1    
   193   97   98 2    
   194   97   99 am   BACKBONE|DICT|INTERRES
   195   99  100 1    
   196   99  220 1    
   197  100  101 1    
   198  100  102 1    
   199  100  221 1    
   200  101  222 1    
   201  101  223 1    
   202  101  224 1    
   203  102  103 2    
   204  102  104 am   BACKBONE|DICT|INTERRES
   205  104  105 1    
   206  104  225 1    
   207  105  106 1    
   208  105  107 1    
   209  105  226 1    
   210  106  227 1    
   211  106  228 1    
   212  106  229 1    
   213  107  108 2    
   214  107  109 am   BACKBONE|DICT|INTERRES
   215  109  110 1    
   216  109  230 1    
   217  110  111 1    
   218  110  112 1    
   219  110  231 1    
   220  111  232 1    
   221  111  233 1    
   222  111  234 1    
   223  112  113 2    
   224  112  114 am   BACKBONE|DICT|INTERRES
   225  114  115 1    
   226  114  235 1    
   227  115  116 1    
   228  115  117 1    
   229  115  236 1    
   230  116  237 1    
   231  116  238 1    
   232  116  239 1    
   233  117  118 2    
   234  117  119 am   BACKBONE|DICT|INTERRES
   235  119  120 1    
   236  119  240 1    
   237  120  121 1    
   238  120  124 1    
   239  120  241 1    
   240  121  122 am   BACKBONE|DICT|INTERRES
   241  121  123 2    
   242  122  242 1    
   243  122  243 1    
   244  124  125 1    
   245  124  244 1    
   246  124  245 1    
   247  125  126 1    
   248  126  246 1    
   249  126  247 1    
@<TRIPOS>SUBSTRUCTURE
     1 UNK         1 GROUP             0       ****    0 ROOT    
