@<TRIPOS>MOLECULE
3R540
247   249    1
SMALL
USER_CHARGES


@<TRIPOS>ATOM
      1 CA         -2.3792  -15.9739  -48.5718 C.3       0 UNK        -0.1800 
      2 C          -2.7534  -14.7784  -47.7065 C.2       0 UNK         0.5000 
      3 O          -2.9600  -13.6877  -48.2342 O.2       0 UNK        -0.5000 
      4 N          -2.7950  -14.9886  -46.3825 N.am      1 UNK        -0.5000 
      5 CA         -3.1832  -14.0506  -45.3130 C.3       1 UNK         0.1400 
      6 C6         -4.7206  -13.8522  -45.1637 C.3       23 UNK        -0.0398 
      7 S7         -5.5307  -12.7924  -46.4180 S.3       23 UNK        -0.2404 
      8 C8         -6.9952  -13.7714  -46.8746 C.3       23 UNK        -0.0205 
      9 C9         -6.6375  -14.9866  -47.7163 C.ar      23 UNK        -0.0193 
     10 C10        -6.4089  -14.8507  -49.0879 C.ar      23 UNK        -0.1150 
     11 C11        -6.1113  -15.9692  -49.8705 C.ar      23 UNK        -0.0193 
     12 C12        -6.0226  -17.2287  -49.2672 C.ar      23 UNK        -0.1150 
     13 C13        -6.2456  -17.3796  -47.8943 C.ar      23 UNK        -0.0193 
     14 C14        -6.5674  -16.2526  -47.1304 C.ar      23 UNK        -0.1150 
     15 C15        -6.2162  -18.7711  -47.2679 C.3       23 UNK        -0.0205 
     16 S16        -5.4877  -18.8275  -45.5934 S.3       23 UNK        -0.2404 
     17 C17        -3.7088  -19.0539  -45.9433 C.3       23 UNK        -0.0398 
     18 CA         -3.2806  -20.5029  -46.2979 C.3       11 UNK         0.1400 
     19 N          -1.8262  -20.6040  -46.4735 N.am      11 UNK        -0.5000 
     20 C          -1.1887  -21.6885  -46.9380 C.2       10 UNK         0.5000 
     21 O          -1.7640  -22.7235  -47.2653 O.2       10 UNK        -0.5000 
     22 CA          0.3444  -21.6397  -47.0013 C.3       10 UNK         0.1400 
     23 CB          0.8177  -20.7435  -48.1547 C.3       10 UNK        -0.1800 
     24 N           0.9256  -21.2003  -45.7346 N.am      10 UNK        -0.5000 
     25 C           0.8229  -21.8816  -44.5832 C.2       9 UNK         0.5000 
     26 O           0.2980  -22.9911  -44.4903 O.2       9 UNK        -0.5000 
     27 CA          1.3577  -21.1952  -43.3136 C.3       9 UNK         0.1400 
     28 CB          2.8751  -21.3941  -43.1861 C.3       9 UNK        -0.1800 
     29 N           1.0431  -19.7669  -43.2613 N.am      9 UNK        -0.5000 
     30 C          -0.1955  -19.2538  -43.2235 C.2       8 UNK         0.5000 
     31 O          -1.2210  -19.9337  -43.2006 O.2       8 UNK        -0.5000 
     32 CA         -0.3072  -17.7204  -43.2895 C.3       8 UNK         0.1400 
     33 CB          0.0170  -17.0738  -41.9347 C.3       8 UNK        -0.1800 
     34 N           0.5607  -17.1625  -44.3251 N.am      8 UNK        -0.5000 
     35 C           0.3942  -17.3739  -45.6377 C.2       7 UNK         0.5000 
     36 O          -0.5566  -17.9939  -46.1151 O.2       7 UNK        -0.5000 
     37 CA          1.4935  -16.8321  -46.5647 C.3       7 UNK         0.1400 
     38 CB          1.2399  -15.3557  -46.8941 C.3       7 UNK        -0.1800 
     39 N           2.8251  -16.9832  -45.9753 N.am      7 UNK        -0.5000 
     40 C           3.4621  -18.1589  -45.8668 C.2       6 UNK         0.5000 
     41 O           2.9922  -19.2235  -46.2634 O.2       6 UNK        -0.5000 
     42 CA          4.8348  -18.1609  -45.1675 C.3       6 UNK         0.1400 
     43 CB          5.9528  -17.8653  -46.1781 C.3       6 UNK        -0.1800 
     44 N           4.9218  -17.2081  -44.0621 N.am      6 UNK        -0.5000 
     45 C           4.1650  -17.2418  -42.9565 C.2       5 UNK         0.5000 
     46 O           3.3365  -18.1210  -42.7233 O.2       5 UNK        -0.5000 
     47 CA          4.3229  -16.0690  -41.9703 C.3       5 UNK         0.1400 
     48 CB          5.3101  -16.4371  -40.8530 C.3       5 UNK        -0.1800 
     49 N           4.7507  -14.8140  -42.5993 N.am      5 UNK        -0.5000 
     50 C           4.0671  -14.1613  -43.5487 C.2       4 UNK         0.5000 
     51 O           3.0213  -14.5803  -44.0506 O.2       4 UNK        -0.5000 
     52 CA          4.6774  -12.8449  -44.0583 C.3       4 UNK         0.1400 
     53 CB          5.1743  -13.0082  -45.5035 C.3       4 UNK        -0.1800 
     54 N           3.6905  -11.7705  -44.0102 N.am      4 UNK        -0.5000 
     55 C           3.2367  -11.1993  -42.8858 C.2       3 UNK         0.5000 
     56 O           3.6999  -11.4304  -41.7679 O.2       3 UNK        -0.5000 
     57 CA          2.0647  -10.2058  -43.0297 C.3       3 UNK         0.1400 
     58 CB          2.5843   -8.7599  -43.0477 C.3       3 UNK        -0.1800 
     59 N           1.2449  -10.4332  -44.2245 N.am      3 UNK        -0.5000 
     60 C           0.4798  -11.5141  -44.4278 C.2       2 UNK         0.5000 
     61 O           0.3608  -12.4277  -43.6074 O.2       2 UNK        -0.5000 
     62 CA         -0.2404  -11.5827  -45.7900 C.3       2 UNK         0.1400 
     63 CB          0.7713  -11.7182  -46.9418 C.3       2 UNK        -0.1800 
     64 N          -1.1845  -12.6985  -45.8552 N.am      2 UNK        -0.5000 
     65 C          -2.3691  -12.7336  -45.2306 C.2       1 UNK         0.5000 
     66 O          -2.8067  -11.7862  -44.5733 O.2       1 UNK        -0.5000 
     67 C          -3.8309  -21.5812  -45.3307 C.2       11 UNK         0.5000 
     68 O          -4.8586  -22.1913  -45.6302 O.2       11 UNK        -0.5000 
     69 N          -3.1010  -21.8670  -44.2423 N.am      12 UNK        -0.5000 
     70 CA         -3.3985  -22.9499  -43.2977 C.3       12 UNK         0.1400 
     71 CB         -2.4541  -22.8430  -42.0910 C.3       12 UNK        -0.1800 
     72 C          -3.3326  -24.3643  -43.9171 C.2       12 UNK         0.5000 
     73 O          -3.9848  -25.2757  -43.4073 O.2       12 UNK        -0.5000 
     74 N          -2.5837  -24.5158  -45.0169 N.am      13 UNK        -0.5000 
     75 CA         -2.4796  -25.7270  -45.8317 C.3       13 UNK         0.1400 
     76 CB         -1.0015  -25.9376  -46.2063 C.3       13 UNK        -0.1800 
     77 C          -3.3816  -25.6546  -47.0847 C.2       13 UNK         0.5000 
     78 O          -3.1131  -26.3477  -48.0684 O.2       13 UNK        -0.5000 
     79 N          -4.4149  -24.7961  -47.0521 N.am      14 UNK        -0.5000 
     80 CA         -5.3958  -24.5342  -48.1148 C.3       14 UNK         0.1400 
     81 CB         -6.2869  -25.7712  -48.3501 C.3       14 UNK        -0.1800 
     82 C          -4.7551  -24.0064  -49.4158 C.2       14 UNK         0.5000 
     83 O          -5.2389  -24.2971  -50.5126 O.2       14 UNK        -0.5000 
     84 N          -3.6349  -23.2827  -49.2692 N.am      15 UNK        -0.5000 
     85 CA         -2.7666  -22.7474  -50.3198 C.3       15 UNK         0.1400 
     86 CB         -3.4980  -21.6444  -51.1055 C.3       15 UNK        -0.1800 
     87 C          -2.1642  -23.8323  -51.2330 C.2       15 UNK         0.5000 
     88 O          -1.7663  -23.5172  -52.3546 O.2       15 UNK        -0.5000 
     89 N          -2.1353  -25.0904  -50.7649 N.am      16 UNK        -0.5000 
     90 CA         -1.7980  -26.2985  -51.5252 C.3       16 UNK         0.1400 
     91 CB         -0.2919  -26.3270  -51.8585 C.3       16 UNK        -0.1800 
     92 C          -2.7019  -26.4816  -52.7671 C.2       16 UNK         0.5000 
     93 O          -2.2218  -26.8986  -53.8214 O.2       16 UNK        -0.5000 
     94 N          -3.9900  -26.1302  -52.6147 N.am      17 UNK        -0.5000 
     95 CA         -5.0162  -26.0375  -53.6588 C.3       17 UNK         0.1400 
     96 CB         -5.2918  -27.4092  -54.3112 C.3       17 UNK        -0.1800 
     97 C          -4.7022  -24.9178  -54.6744 C.2       17 UNK         0.5000 
     98 O          -4.7778  -25.1340  -55.8852 O.2       17 UNK        -0.5000 
     99 N          -4.3597  -23.7367  -54.1373 N.am      18 UNK        -0.5000 
    100 CA        -4.0014  -22.4993  -54.8416 C.3       18 UNK         0.1400 
    101 CB        -5.2176  -21.9253  -55.5970 C.3       18 UNK        -0.1800 
    102 C         -2.7457  -22.6528  -55.7263 C.2       18 UNK         0.5000 
    103 O         -2.7556  -22.2663  -56.8973 O.2       18 UNK        -0.5000 
    104 N         -1.6898  -23.2287  -55.1402 N.am      19 UNK        -0.5000 
    105 CA        -0.3842  -23.4376  -55.7660 C.3       19 UNK         0.1400 
    106 CB        -0.1431  -24.9444  -55.9440 C.3       19 UNK        -0.1800 
    107 C          0.7499  -22.8008  -54.9442 C.2       19 UNK         0.5000 
    108 O          1.7008  -22.2860  -55.5338 O.2       19 UNK        -0.5000 
    109 N          0.6372  -22.8299  -53.6087 N.am      20 UNK        -0.5000 
    110 CA         1.5968  -22.2296  -52.6770 C.3       20 UNK         0.1400 
    111 CB         1.6419  -23.0740  -51.3926 C.3       20 UNK        -0.1800 
    112 C          1.2490  -20.7675  -52.3401 C.2       20 UNK         0.5000 
    113 O          2.1051  -20.0439  -51.8308 O.2       20 UNK        -0.5000 
    114 N          0.0078  -20.3610  -52.6245 N.am      21 UNK        -0.5000 
    115 CA        -0.5353  -19.0230  -52.4279 C.3       21 UNK         0.1400 
    116 CB        -0.8668  -18.7925  -50.9368 C.3       21 UNK        -0.1800 
    117 C         -1.7559  -18.8537  -53.3493 C.2       21 UNK         0.5000 
    118 O         -2.0148  -19.7172  -54.1912 O.2       21 UNK        -0.5000 
    119 N         -2.4844  -17.7484  -53.1687 N.am      22 UNK        -0.5000 
    120 CA        -3.7074  -17.3776  -53.9019 C.3       22 UNK         0.1400 
    121 C         -4.9125  -18.3566  -53.7711 C.2       22 UNK         0.5000 
    122 N         -4.9670  -19.2109  -52.7578 N.am      22 UNK        -0.7600 
    123 O         -5.8150  -18.3319  -54.6030 O.2       22 UNK        -0.5000 
    124 C124       -4.1349  -15.9204  -53.5708 C.3       23 UNK        -0.0398 
    125 S125       -4.1621  -15.5510  -51.7778 S.3       23 UNK        -0.2404 
    126 C126       -5.9119  -15.8230  -51.3706 C.3       23 UNK        -0.0205 
    127 H127       -1.8728  -16.7496  -47.9999 H         1 UNK         0.0600 
    128 H128       -1.7160  -15.6640  -49.3793 H         1 UNK         0.0600 
    129 H129       -3.2739  -16.4099  -49.0129 H         1 UNK         0.0600 
    130 H130       -2.5734  -15.9173  -46.0533 H         1 UNK         0.3000 
    131 H131       -2.8781  -14.5785  -44.4081 H         1 UNK         0.0600 
    132 H132       -5.2019  -14.8288  -45.1439 H         1 UNK         0.0800 
    133 H133       -4.9378  -13.4152  -44.1878 H         1 UNK         0.0800 
    134 H134       -7.5316  -14.0682  -45.9721 H         1 UNK         0.0800 
    135 H135       -7.6796  -13.1343  -47.4365 H         1 UNK         0.0800 
    136 H136       -6.4700  -13.8739  -49.5469 H         1 UNK         0.1150 
    137 H137       -5.7974  -18.0941  -49.8747 H         1 UNK         0.1150 
    138 H138       -6.7746  -16.3611  -46.0756 H         1 UNK         0.1150 
    139 H139       -7.2447  -19.1275  -47.2013 H         1 UNK         0.0800 
    140 H140       -5.6931  -19.4762  -47.9151 H         1 UNK         0.0800 
    141 H141       -3.1612  -18.7171  -45.0617 H         1 UNK         0.0800 
    142 H142       -3.4244  -18.3757  -46.7487 H         1 UNK         0.0800 
    143 H143       -3.7150  -20.7289  -47.2738 H         1 UNK         0.0600 
    144 H144       -1.2833  -19.7792  -46.2317 H         1 UNK         0.3000 
    145 H145        0.6999  -22.6534  -47.1982 H         1 UNK         0.0600 
    146 H146        1.9010  -20.7864  -48.2682 H         1 UNK         0.0600 
    147 H147        0.3824  -21.0631  -49.1022 H         1 UNK         0.0600 
    148 H148        0.5394  -19.7015  -47.9985 H         1 UNK         0.0600 
    149 H149        1.4450  -20.3283  -45.7500 H         1 UNK         0.3000 
    150 H150        0.8795  -21.6695  -42.4543 H         1 UNK         0.0600 
    151 H151        3.1317  -22.4541  -43.1888 H         1 UNK         0.0600 
    152 H152        3.2517  -20.9699  -42.2551 H         1 UNK         0.0600 
    153 H153        3.4124  -20.9235  -44.0095 H         1 UNK         0.0600 
    154 H154        1.8363  -19.1309  -43.2326 H         1 UNK         0.3000 
    155 H155       -1.3397  -17.4712  -43.5434 H         1 UNK         0.0600 
    156 H156       -0.6515  -17.4458  -41.1575 H         1 UNK         0.0600 
    157 H157       -0.1032  -15.9909  -41.9769 H         1 UNK         0.0600 
    158 H158        1.0378  -17.2844  -41.6160 H         1 UNK         0.0600 
    159 H159        1.3720  -16.6443  -44.0176 H         1 UNK         0.3000 
    160 H160        1.4603  -17.3988  -47.4977 H         1 UNK         0.0600 
    161 H161        1.1860  -14.7488  -45.9898 H         1 UNK         0.0600 
    162 H162        0.2999  -15.2325  -47.4313 H         1 UNK         0.0600 
    163 H163        2.0299  -14.9503  -47.5264 H         1 UNK         0.0600 
    164 H164        3.2340  -16.1568  -45.5571 H         1 UNK         0.3000 
    165 H165        4.9978  -19.1605  -44.7599 H         1 UNK         0.0600 
    166 H166        6.9360  -17.9473  -45.7143 H         1 UNK         0.0600 
    167 H167        5.9262  -18.5735  -47.0075 H         1 UNK         0.0600 
    168 H168        5.8615  -16.8630  -46.5987 H         1 UNK         0.0600 
    169 H169        5.5766  -16.4477  -44.1671 H         1 UNK         0.3000 
    170 H170        3.3446  -15.8936  -41.5181 H         1 UNK         0.0600 
    171 H171        5.0051  -17.3555  -40.3493 H         1 UNK         0.0600 
    172 H172        6.3172  -16.5943  -41.2412 H         1 UNK         0.0600 
    173 H173        5.3592  -15.6546  -40.0956 H         1 UNK         0.0600 
    174 H174        5.6039  -14.4058  -42.2450 H         1 UNK         0.3000 
    175 H175        5.5262  -12.5685  -43.4290 H         1 UNK         0.0600 
    176 H176        4.3618  -13.2688  -46.1836 H         1 UNK         0.0600 
    177 H177        5.6345  -12.0897  -45.8681 H         1 UNK         0.0600 
    178 H178        5.9250  -13.7965  -45.5720 H         1 UNK         0.0600 
    179 H179        3.2289  -11.5435  -44.8773 H         1 UNK         0.3000 
    180 H180        1.4247  -10.3277  -42.1534 H         1 UNK         0.0600 
    181 H181        3.2174   -8.5703  -43.9154 H         1 UNK         0.0600 
    182 H182        3.1763   -8.5464  -42.1567 H         1 UNK         0.0600 
    183 H183        1.7618   -8.0446  -43.0679 H         1 UNK         0.0600 
    184 H184        1.2893   -9.7214  -44.9397 H         1 UNK         0.3000 
    185 H185       -0.7983  -10.6541  -45.9280 H         1 UNK         0.0600 
    186 H186        0.2687  -11.8834  -47.8952 H         1 UNK         0.0600 
    187 H187        1.4657  -12.5417  -46.7796 H         1 UNK         0.0600 
    188 H188        1.3673  -10.8114  -47.0486 H         1 UNK         0.0600 
    189 H189       -0.8897  -13.5175  -46.3628 H         1 UNK         0.3000 
    190 H190       -2.2883  -21.2933  -44.0310 H         1 UNK         0.3000 
    191 H191       -4.4197  -22.8020  -42.9409 H         1 UNK         0.0600 
    192 H192       -1.4113  -22.9601  -42.3854 H         1 UNK         0.0600 
    193 H193       -2.5556  -21.8777  -41.5947 H         1 UNK         0.0600 
    194 H194       -2.6749  -23.6134  -41.3511 H         1 UNK         0.0600 
    195 H195       -2.0931  -23.7075  -45.3814 H         1 UNK         0.3000 
    196 H196       -2.8059  -26.5937  -45.2541 H         1 UNK         0.0600 
    197 H197       -0.3714  -25.9701  -45.3172 H         1 UNK         0.0600 
    198 H198       -0.6299  -25.1377  -46.8474 H         1 UNK         0.0600 
    199 H199       -0.8589  -26.8788  -46.7383 H         1 UNK         0.0600 
    200 H200       -4.5151  -24.2097  -46.2316 H         1 UNK         0.3000 
    201 H201       -6.0354  -23.7306  -47.7478 H         1 UNK         0.0600 
    202 H202       -7.1043  -25.5405  -49.0343 H         1 UNK         0.0600 
    203 H203       -6.7342  -26.1173  -47.4184 H         1 UNK         0.0600 
    204 H204       -5.7251  -26.6003  -48.7812 H         1 UNK         0.0600 
    205 H205       -3.2624  -23.1653  -48.3304 H         1 UNK         0.3000 
    206 H206       -1.9149  -22.2805  -49.8264 H         1 UNK         0.0600 
    207 H207       -4.3713  -22.0272  -51.6327 H         1 UNK         0.0600 
    208 H208       -2.8421  -21.1903  -51.8465 H         1 UNK         0.0600 
    209 H209       -3.8337  -20.8515  -50.4372 H         1 UNK         0.0600 
    210 H210       -2.4844  -25.2594  -49.8277 H         1 UNK         0.3000 
    211 H211       -2.0081  -27.1432  -50.8676 H         1 UNK         0.0600 
    212 H212        0.3119  -26.2040  -50.9594 H         1 UNK         0.0600 
    213 H213       -0.0094  -27.2782  -52.3107 H         1 UNK         0.0600 
    214 H214       -0.0144  -25.5392  -52.5577 H         1 UNK         0.0600 
    215 H215       -4.2741  -25.7620  -51.7133 H         1 UNK         0.3000 
    216 H216       -5.9326  -25.7337  -53.1505 H         1 UNK         0.0600 
    217 H217       -6.1556  -27.3551  -54.9747 H         1 UNK         0.0600 
    218 H218       -4.4483  -27.7578  -54.9073 H         1 UNK         0.0600 
    219 H219       -5.5080  -28.1674  -53.5587 H         1 UNK         0.0600 
    220 H220       -4.3028  -23.6906  -53.1302 H         1 UNK         0.3000 
    221 H221       -3.7364  -21.7766  -54.0703 H         1 UNK         0.0600 
    222 H222       -4.9843  -20.9469  -56.0190 H         1 UNK         0.0600 
    223 H223       -5.5304  -22.5709  -56.4179 H         1 UNK         0.0600 
    224 H224       -6.0684  -21.7918  -54.9291 H         1 UNK         0.0600 
    225 H225       -1.7778  -23.4950  -54.1627 H         1 UNK         0.3000 
    226 H226       -0.3589  -22.9730  -56.7537 H         1 UNK         0.0600 
    227 H227       -0.9200  -25.3960  -56.5612 H         1 UNK         0.0600 
    228 H228        0.8137  -25.1330  -56.4321 H         1 UNK         0.0600 
    229 H229       -0.1338  -25.4671  -54.9876 H         1 UNK         0.0600 
    230 H230       -0.1917  -23.2397  -53.1867 H         1 UNK         0.3000 
    231 H231        2.5945  -22.2384  -53.1206 H         1 UNK         0.0600 
    232 H232        2.3773  -22.6780  -50.6910 H         1 UNK         0.0600 
    233 H233        1.9234  -24.1046  -51.6083 H         1 UNK         0.0600 
    234 H234        0.6797  -23.0876  -50.8812 H         1 UNK         0.0600 
    235 H235       -0.6108  -20.9873  -53.1240 H         1 UNK         0.3000 
    236 H236        0.2092  -18.2906  -52.7464 H         1 UNK         0.0600 
    237 H237        0.0306  -18.8622  -50.3231 H         1 UNK         0.0600 
    238 H238       -1.2832  -17.8006  -50.7627 H         1 UNK         0.0600 
    239 H239       -1.5828  -19.5221  -50.5604 H         1 UNK         0.0600 
    240 H240       -2.2170  -17.0996  -52.4428 H         1 UNK         0.3000 
    241 H241       -3.4420  -17.3995  -54.9605 H         1 UNK         0.0600 
    242 H242       -5.7558  -19.8317  -52.6809 H         1 UNK         0.3800 
    243 H243       -4.2402  -19.2206  -52.0642 H         1 UNK         0.3800 
    244 H244       -5.0979  -15.6696  -54.0198 H         1 UNK         0.0800 
    245 H245       -3.4204  -15.2332  -54.0256 H         1 UNK         0.0800 
    246 H246       -6.2825  -16.7170  -51.8719 H         1 UNK         0.0800 
    247 H247       -6.5042  -14.9907  -51.7537 H         1 UNK         0.0800 
@<TRIPOS>BOND
     1    1    2 1    
     2    1  127 1    
     3    1  128 1    
     4    1  129 1    
     5    2    3 2    
     6    2    4 am   BACKBONE|DICT|INTERRES
     7    4    5 1    
     8    4  130 1    
     9    5    6 1    
    10    5   65 1    
    11    5  131 1    
    12    6    7 1    
    13    6  132 1    
    14    6  133 1    
    15    7    8 1    
    16    8    9 1    
    17    8  134 1    
    18    8  135 1    
    19    9   10 ar   
    20    9   14 ar   
    21   10   11 ar   
    22   10  136 1    
    23   11   12 ar   
    24   11  126 1    
    25   12   13 ar   
    26   12  137 1    
    27   13   14 ar   
    28   13   15 1    
    29   14  138 1    
    30   15   16 1    
    31   15  139 1    
    32   15  140 1    
    33   16   17 1    
    34   17   18 1    
    35   17  141 1    
    36   17  142 1    
    37   18   19 1    
    38   18   67 1    
    39   18  143 1    
    40   19   20 am   BACKBONE|DICT|INTERRES
    41   19  144 1    
    42   20   21 2    
    43   20   22 1    
    44   22   23 1    
    45   22   24 1    
    46   22  145 1    
    47   23  146 1    
    48   23  147 1    
    49   23  148 1    
    50   24   25 am   BACKBONE|DICT|INTERRES
    51   24  149 1    
    52   25   26 2    
    53   25   27 1    
    54   27   28 1    
    55   27   29 1    
    56   27  150 1    
    57   28  151 1    
    58   28  152 1    
    59   28  153 1    
    60   29   30 am   BACKBONE|DICT|INTERRES
    61   29  154 1    
    62   30   31 2    
    63   30   32 1    
    64   32   33 1    
    65   32   34 1    
    66   32  155 1    
    67   33  156 1    
    68   33  157 1    
    69   33  158 1    
    70   34   35 am   BACKBONE|DICT|INTERRES
    71   34  159 1    
    72   35   36 2    
    73   35   37 1    
    74   37   38 1    
    75   37   39 1    
    76   37  160 1    
    77   38  161 1    
    78   38  162 1    
    79   38  163 1    
    80   39   40 am   BACKBONE|DICT|INTERRES
    81   39  164 1    
    82   40   41 2    
    83   40   42 1    
    84   42   43 1    
    85   42   44 1    
    86   42  165 1    
    87   43  166 1    
    88   43  167 1    
    89   43  168 1    
    90   44   45 am   BACKBONE|DICT|INTERRES
    91   44  169 1    
    92   45   46 2    
    93   45   47 1    
    94   47   48 1    
    95   47   49 1    
    96   47  170 1    
    97   48  171 1    
    98   48  172 1    
    99   48  173 1    
   100   49   50 am   BACKBONE|DICT|INTERRES
   101   49  174 1    
   102   50   51 2    
   103   50   52 1    
   104   52   53 1    
   105   52   54 1    
   106   52  175 1    
   107   53  176 1    
   108   53  177 1    
   109   53  178 1    
   110   54   55 am   BACKBONE|DICT|INTERRES
   111   54  179 1    
   112   55   56 2    
   113   55   57 1    
   114   57   58 1    
   115   57   59 1    
   116   57  180 1    
   117   58  181 1    
   118   58  182 1    
   119   58  183 1    
   120   59   60 am   BACKBONE|DICT|INTERRES
   121   59  184 1    
   122   60   61 2    
   123   60   62 1    
   124   62   63 1    
   125   62   64 1    
   126   62  185 1    
   127   63  186 1    
   128   63  187 1    
   129   63  188 1    
   130   64   65 am   BACKBONE|DICT|INTERRES
   131   64  189 1    
   132   65   66 2    
   133   67   68 2    
   134   67   69 am   BACKBONE|DICT|INTERRES
   135   69   70 1    
   136   69  190 1    
   137   70   71 1    
   138   70   72 1    
   139   70  191 1    
   140   71  192 1    
   141   71  193 1    
   142   71  194 1    
   143   72   73 2    
   144   72   74 am   BACKBONE|DICT|INTERRES
   145   74   75 1    
   146   74  195 1    
   147   75   76 1    
   148   75   77 1    
   149   75  196 1    
   150   76  197 1    
   151   76  198 1    
   152   76  199 1    
   153   77   78 2    
   154   77   79 am   BACKBONE|DICT|INTERRES
   155   79   80 1    
   156   79  200 1    
   157   80   81 1    
   158   80   82 1    
   159   80  201 1    
   160   81  202 1    
   161   81  203 1    
   162   81  204 1    
   163   82   83 2    
   164   82   84 am   BACKBONE|DICT|INTERRES
   165   84   85 1    
   166   84  205 1    
   167   85   86 1    
   168   85   87 1    
   169   85  206 1    
   170   86  207 1    
   171   86  208 1    
   172   86  209 1    
   173   87   88 2    
   174   87   89 am   BACKBONE|DICT|INTERRES
   175   89   90 1    
   176   89  210 1    
   177   90   91 1    
   178   90   92 1    
   179   90  211 1    
   180   91  212 1    
   181   91  213 1    
   182   91  214 1    
   183   92   93 2    
   184   92   94 am   BACKBONE|DICT|INTERRES
   185   94   95 1    
   186   94  215 1    
   187   95   96 1    
   188   95   97 1    
   189   95  216 1    
   190   96  217 1    
   191   96  218 1    
   192   96  219 1    
   193   97   98 2    
   194   97   99 am   BACKBONE|DICT|INTERRES
   195   99  100 1    
   196   99  220 1    
   197  100  101 1    
   198  100  102 1    
   199  100  221 1    
   200  101  222 1    
   201  101  223 1    
   202  101  224 1    
   203  102  103 2    
   204  102  104 am   BACKBONE|DICT|INTERRES
   205  104  105 1    
   206  104  225 1    
   207  105  106 1    
   208  105  107 1    
   209  105  226 1    
   210  106  227 1    
   211  106  228 1    
   212  106  229 1    
   213  107  108 2    
   214  107  109 am   BACKBONE|DICT|INTERRES
   215  109  110 1    
   216  109  230 1    
   217  110  111 1    
   218  110  112 1    
   219  110  231 1    
   220  111  232 1    
   221  111  233 1    
   222  111  234 1    
   223  112  113 2    
   224  112  114 am   BACKBONE|DICT|INTERRES
   225  114  115 1    
   226  114  235 1    
   227  115  116 1    
   228  115  117 1    
   229  115  236 1    
   230  116  237 1    
   231  116  238 1    
   232  116  239 1    
   233  117  118 2    
   234  117  119 am   BACKBONE|DICT|INTERRES
   235  119  120 1    
   236  119  240 1    
   237  120  121 1    
   238  120  124 1    
   239  120  241 1    
   240  121  122 am   BACKBONE|DICT|INTERRES
   241  121  123 2    
   242  122  242 1    
   243  122  243 1    
   244  124  125 1    
   245  124  244 1    
   246  124  245 1    
   247  125  126 1    
   248  126  246 1    
   249  126  247 1    
@<TRIPOS>SUBSTRUCTURE
     1 UNK         1 GROUP             0       ****    0 ROOT    
