@<TRIPOS>MOLECULE
3R540
247   249    1
SMALL
USER_CHARGES


@<TRIPOS>ATOM
      1 CA         -0.9715  -13.1904  -41.1477 C.3       0 UNK        -0.1800 
      2 C          -0.4933  -12.5465  -42.4407 C.2       0 UNK         0.5000 
      3 O           0.7118  -12.4623  -42.6703 O.2       0 UNK        -0.5000 
      4 N          -1.4305  -12.0688  -43.2712 N.am      1 UNK        -0.5000 
      5 CA         -1.2573  -11.4902  -44.6182 C.3       1 UNK         0.1400 
      6 C6         -0.5943  -12.4564  -45.6339 C.3       23 UNK        -0.0398 
      7 S7         -1.4743  -14.0415  -45.8002 S.3       23 UNK        -0.2404 
      8 C8         -2.4664  -13.7477  -47.2991 C.3       23 UNK        -0.0205 
      9 C9         -3.1833  -15.0015  -47.7877 C.ar      23 UNK        -0.0193 
     10 C10        -3.1743  -15.3240  -49.1486 C.ar      23 UNK        -0.1150 
     11 C11        -3.8439  -16.4583  -49.6174 C.ar      23 UNK        -0.0193 
     12 C12        -4.5217  -17.2806  -48.7134 C.ar      23 UNK        -0.1150 
     13 C13        -4.5380  -16.9708  -47.3505 C.ar      23 UNK        -0.0193 
     14 C14        -3.8785  -15.8263  -46.8968 C.ar      23 UNK        -0.1150 
     15 C15        -5.2679  -17.8656  -46.3620 C.3       23 UNK        -0.0205 
     16 S16        -4.1352  -19.0555  -45.5822 S.3       23 UNK        -0.2404 
     17 C17        -3.8172  -20.1882  -46.9780 C.3       23 UNK        -0.0398 
     18 CA         -3.1673  -21.5441  -46.6095 C.3       11 UNK         0.1400 
     19 N          -1.7124  -21.4593  -46.4229 N.am      11 UNK        -0.5000 
     20 C          -0.8974  -22.5262  -46.4209 C.2       10 UNK         0.5000 
     21 O          -1.3040  -23.6879  -46.4727 O.2       10 UNK        -0.5000 
     22 CA          0.6139  -22.2698  -46.3303 C.3       10 UNK         0.1400 
     23 CB          1.1539  -21.7042  -47.6526 C.3       10 UNK        -0.1800 
     24 N           0.9594  -21.3832  -45.2237 N.am      10 UNK        -0.5000 
     25 C           0.8389  -21.7066  -43.9283 C.2       9 UNK         0.5000 
     26 O           0.4715  -22.8122  -43.5307 O.2       9 UNK        -0.5000 
     27 CA          1.1558  -20.6019  -42.9034 C.3       9 UNK         0.1400 
     28 CB          2.6661  -20.5188  -42.6379 C.3       9 UNK        -0.1800 
     29 N           0.6609  -19.2906  -43.3204 N.am      9 UNK        -0.5000 
     30 C          -0.6338  -18.9835  -43.4841 C.2       8 UNK         0.5000 
     31 O          -1.5579  -19.7605  -43.2418 O.2       8 UNK        -0.5000 
     32 CA         -0.9361  -17.5828  -44.0450 C.3       8 UNK         0.1400 
     33 CB         -0.8904  -16.5268  -42.9294 C.3       8 UNK        -0.1800 
     34 N          -0.0185  -17.2117  -45.1233 N.am      8 UNK        -0.5000 
     35 C           0.0228  -17.8090  -46.3235 C.2       7 UNK         0.5000 
     36 O          -0.7202  -18.7318  -46.6586 O.2       7 UNK        -0.5000 
     37 CA          1.1308  -17.3439  -47.2865 C.3       7 UNK         0.1400 
     38 CB          0.7366  -16.0519  -48.0166 C.3       7 UNK        -0.1800 
     39 N           2.4130  -17.1526  -46.6064 N.am      7 UNK        -0.5000 
     40 C           3.1402  -18.1529  -46.0864 C.2       6 UNK         0.5000 
     41 O           2.8210  -19.3377  -46.1646 O.2       6 UNK        -0.5000 
     42 CA          4.4155  -17.7717  -45.3109 C.3       6 UNK         0.1400 
     43 CB          5.6194  -17.6934  -46.2613 C.3       6 UNK        -0.1800 
     44 N           4.2969  -16.5095  -44.5821 N.am      6 UNK        -0.5000 
     45 C           3.3885  -16.2418  -43.6332 C.2       5 UNK         0.5000 
     46 O           2.5740  -17.0679  -43.2212 O.2       5 UNK        -0.5000 
     47 CA          3.3610  -14.8057  -43.0738 C.3       5 UNK         0.1400 
     48 CB          3.9530  -14.7659  -41.6573 C.3       5 UNK        -0.1800 
     49 N           4.0593  -13.8252  -43.9148 N.am      5 UNK        -0.5000 
     50 C           3.6516  -13.4389  -45.1303 C.2       4 UNK         0.5000 
     51 O           2.6484  -13.8840  -45.6906 O.2       4 UNK        -0.5000 
     52 CA          4.5291  -12.4191  -45.8633 C.3       4 UNK         0.1400 
     53 CB          5.1422  -13.0469  -47.1309 C.3       4 UNK        -0.1800 
     54 N           3.7045  -11.2629  -46.1954 N.am      4 UNK        -0.5000 
     55 C           4.1596  -10.0712  -46.6013 C.2       3 UNK         0.5000 
     56 O           5.3508   -9.8135  -46.7800 O.2       3 UNK        -0.5000 
     57 CA          3.1043   -8.9708  -46.8192 C.3       3 UNK         0.1400 
     58 CB          2.3898   -9.1595  -48.1664 C.3       3 UNK        -0.1800 
     59 N           2.1085   -8.9227  -45.7480 N.am      3 UNK        -0.5000 
     60 C           2.3498   -8.5710  -44.4784 C.2       2 UNK         0.5000 
     61 O           3.4539   -8.2062  -44.0728 O.2       2 UNK        -0.5000 
     62 CA          1.1756   -8.6541  -43.4819 C.3       2 UNK         0.1400 
     63 CB          0.3657   -7.3438  -43.4572 C.3       2 UNK        -0.1800 
     64 N           0.3105   -9.8274  -43.6655 N.am      2 UNK        -0.5000 
     65 C          -0.5359  -10.1229  -44.6605 C.2       1 UNK         0.5000 
     66 O          -0.7374   -9.3772  -45.6196 O.2       1 UNK        -0.5000 
     67 C          -3.9036  -22.2945  -45.4763 C.2       11 UNK         0.5000 
     68 O          -4.9790  -22.8411  -45.7226 O.2       11 UNK        -0.5000 
     69 N          -3.2851  -22.3901  -44.2898 N.am      12 UNK        -0.5000 
     70 CA         -3.7273  -23.2372  -43.1779 C.3       12 UNK         0.1400 
     71 CB         -2.8469  -22.9544  -41.9519 C.3       12 UNK        -0.1800 
     72 C          -3.7257  -24.7466  -43.5129 C.2       12 UNK         0.5000 
     73 O          -4.4917  -25.4985  -42.9097 O.2       12 UNK        -0.5000 
     74 N          -2.8989  -25.1520  -44.4864 N.am      13 UNK        -0.5000 
     75 CA         -2.8480  -26.4903  -45.0776 C.3       13 UNK         0.1400 
     76 CB         -1.4049  -27.0137  -44.9696 C.3       13 UNK        -0.1800 
     77 C          -3.3331  -26.4605  -46.5440 C.2       13 UNK         0.5000 
     78 O          -2.9569  -27.3299  -47.3338 O.2       13 UNK        -0.5000 
     79 N          -4.1147  -25.4283  -46.9052 N.am      14 UNK        -0.5000 
     80 CA         -4.6498  -25.1187  -48.2379 C.3       14 UNK         0.1400 
     81 CB         -5.6976  -26.1709  -48.6544 C.3       14 UNK        -0.1800 
     82 C          -3.5699  -24.9203  -49.3229 C.2       14 UNK         0.5000 
     83 O          -3.8806  -25.0228  -50.5103 O.2       14 UNK        -0.5000 
     84 N          -2.3195  -24.6688  -48.9088 N.am      15 UNK        -0.5000 
     85 CA         -1.0961  -24.6366  -49.7158 C.3       15 UNK         0.1400 
     86 CB         -1.0757  -23.3878  -50.6193 C.3       15 UNK        -0.1800 
     87 C          -0.8528  -25.9552  -50.4839 C.2       15 UNK         0.5000 
     88 O          -0.3344  -25.9262  -51.5995 O.2       15 UNK        -0.5000 
     89 N          -1.2592  -27.0825  -49.8749 N.am      16 UNK        -0.5000 
     90 CA         -1.3245  -28.4267  -50.4598 C.3       16 UNK         0.1400 
     91 CB          0.0788  -28.9572  -50.8229 C.3       16 UNK        -0.1800 
     92 C          -2.3345  -28.4939  -51.6267 C.2       16 UNK         0.5000 
     93 O          -2.0323  -29.0490  -52.6844 O.2       16 UNK        -0.5000 
     94 N          -3.5202  -27.9125  -51.3889 N.am      17 UNK        -0.5000 
     95 CA         -4.6555  -27.7642  -52.3051 C.3       17 UNK         0.1400 
     96 CB         -5.2404  -29.1385  -52.6938 C.3       17 UNK        -0.1800 
     97 C          -4.3216  -26.8703  -53.5176 C.2       17 UNK         0.5000 
     98 O          -4.5739  -27.2535  -54.6619 O.2       17 UNK        -0.5000 
     99 N          -3.7584  -25.6891  -53.2352 N.am      18 UNK        -0.5000 
    100 CA        -3.3618  -24.6905  -54.2295 C.3       18 UNK         0.1400 
    101 CB        -1.8619  -24.8341  -54.5333 C.3       18 UNK        -0.1800 
    102 C         -3.6991  -23.2474  -53.8134 C.2       18 UNK         0.5000 
    103 O         -3.4938  -22.3426  -54.6228 O.2       18 UNK        -0.5000 
    104 N         -4.2184  -23.0233  -52.5944 N.am      19 UNK        -0.5000 
    105 CA        -4.5145  -21.6928  -52.0376 C.3       19 UNK         0.1400 
    106 CB        -4.8965  -21.8220  -50.5547 C.3       19 UNK        -0.1800 
    107 C         -5.5768  -20.8795  -52.8069 C.2       19 UNK         0.5000 
    108 O         -5.6350  -19.6615  -52.6421 O.2       19 UNK        -0.5000 
    109 N         -6.3715  -21.5493  -53.6536 N.am      20 UNK        -0.5000 
    110 CA        -7.2900  -20.9212  -54.6058 C.3       20 UNK         0.1400 
    111 CB        -8.1856  -22.0024  -55.2292 C.3       20 UNK        -0.1800 
    112 C         -6.5575  -20.1226  -55.7050 C.2       20 UNK         0.5000 
    113 O         -7.0734  -19.0973  -56.1516 O.2       20 UNK        -0.5000 
    114 N         -5.3670  -20.5937  -56.1026 N.am      21 UNK        -0.5000 
    115 CA        -4.4456  -19.8858  -56.9914 C.3       21 UNK         0.1400 
    116 CB        -3.7058  -20.9038  -57.8739 C.3       21 UNK        -0.1800 
    117 C         -3.4484  -19.0468  -56.1737 C.2       21 UNK         0.5000 
    118 O         -3.1638  -17.9073  -56.5430 O.2       21 UNK        -0.5000 
    119 N         -2.9631  -19.6210  -55.0638 N.am      22 UNK        -0.5000 
    120 CA        -2.0482  -19.0113  -54.0848 C.3       22 UNK         0.1400 
    121 C         -0.5837  -18.8219  -54.5891 C.2       22 UNK         0.5000 
    122 N         -0.1693  -19.4774  -55.6669 N.am      22 UNK        -0.7600 
    123 O          0.2015  -18.0941  -53.9881 O.2       22 UNK        -0.5000 
    124 C124       -2.6501  -17.7345  -53.4267 C.3       23 UNK        -0.0398 
    125 S125       -2.3494  -17.6434  -51.6282 S.3       23 UNK        -0.2404 
    126 C126       -3.8593  -16.7760  -51.1037 C.3       23 UNK        -0.0205 
    127 H127       -0.6851  -12.5755  -40.2947 H         1 UNK         0.0600 
    128 H128       -0.5159  -14.1732  -41.0279 H         1 UNK         0.0600 
    129 H129       -2.0544  -13.3148  -41.1334 H         1 UNK         0.0600 
    130 H130       -2.3956  -12.1453  -42.9821 H         1 UNK         0.3000 
    131 H131       -2.2700  -11.2937  -44.9739 H         1 UNK         0.0600 
    132 H132       -0.5152  -11.9939  -46.6194 H         1 UNK         0.0800 
    133 H133        0.4273  -12.6774  -45.3281 H         1 UNK         0.0800 
    134 H134       -3.2057  -12.9722  -47.0957 H         1 UNK         0.0800 
    135 H135       -1.8115  -13.3634  -48.0825 H         1 UNK         0.0800 
    136 H136       -2.6507  -14.6892  -49.8497 H         1 UNK         0.1150 
    137 H137       -5.0374  -18.1605  -49.0716 H         1 UNK         0.1150 
    138 H138       -3.8971  -15.5852  -45.8433 H         1 UNK         0.1150 
    139 H139       -5.7251  -17.2537  -45.5831 H         1 UNK         0.0800 
    140 H140       -6.0869  -18.3953  -46.8510 H         1 UNK         0.0800 
    141 H141       -3.1991  -19.6699  -47.7126 H         1 UNK         0.0800 
    142 H142       -4.7694  -20.3784  -47.4758 H         1 UNK         0.0800 
    143 H143       -3.2987  -22.1733  -47.4922 H         1 UNK         0.0600 
    144 H144       -1.3166  -20.5223  -46.3762 H         1 UNK         0.3000 
    145 H145        1.1017  -23.2312  -46.1558 H         1 UNK         0.0600 
    146 H146        2.2399  -21.6144  -47.6260 H         1 UNK         0.0600 
    147 H147        0.9049  -22.3562  -48.4899 H         1 UNK         0.0600 
    148 H148        0.7433  -20.7181  -47.8707 H         1 UNK         0.0600 
    149 H149        1.3346  -20.4734  -45.4718 H         1 UNK         0.3000 
    150 H150        0.6585  -20.8630  -41.9670 H         1 UNK         0.0600 
    151 H151        3.0493  -21.4704  -42.2676 H         1 UNK         0.0600 
    152 H152        2.8947  -19.7606  -41.8886 H         1 UNK         0.0600 
    153 H153        3.2203  -20.2724  -43.5434 H         1 UNK         0.0600 
    154 H154        1.3553  -18.5678  -43.4868 H         1 UNK         0.3000 
    155 H155       -1.9462  -17.5907  -44.4550 H         1 UNK         0.0600 
    156 H156       -1.5793  -16.7837  -42.1238 H         1 UNK         0.0600 
    157 H157       -1.1831  -15.5459  -43.3005 H         1 UNK         0.0600 
    158 H158        0.1037  -16.4358  -42.4922 H         1 UNK         0.0600 
    159 H159        0.6513  -16.4849  -44.9205 H         1 UNK         0.3000 
    160 H160        1.2576  -18.1257  -48.0386 H         1 UNK         0.0600 
    161 H161        1.4378  -15.8261  -48.8198 H         1 UNK         0.0600 
    162 H162       -0.2547  -16.1397  -48.4638 H         1 UNK         0.0600 
    163 H163        0.7210  -15.1970  -47.3412 H         1 UNK         0.0600 
    164 H164        2.7201  -16.1986  -46.4698 H         1 UNK         0.3000 
    165 H165        4.6070  -18.5590  -44.5796 H         1 UNK         0.0600 
    166 H166        6.5439  -17.5096  -45.7135 H         1 UNK         0.0600 
    167 H167        5.7472  -18.6295  -46.8068 H         1 UNK         0.0600 
    168 H168        5.5004  -16.8976  -46.9977 H         1 UNK         0.0600 
    169 H169        4.9313  -15.7721  -44.8486 H         1 UNK         0.3000 
    170 H170        2.3114  -14.5136  -43.0127 H         1 UNK         0.0600 
    171 H171        3.4373  -15.4659  -40.9984 H         1 UNK         0.0600 
    172 H172        5.0110  -15.0304  -41.6551 H         1 UNK         0.0600 
    173 H173        3.8511  -13.7740  -41.2166 H         1 UNK         0.0600 
    174 H174        4.8962  -13.4173  -43.5233 H         1 UNK         0.3000 
    175 H175        5.3342  -12.0965  -45.1999 H         1 UNK         0.0600 
    176 H176        4.3732  -13.3264  -47.8522 H         1 UNK         0.0600 
    177 H177        5.8301  -12.3619  -47.6260 H         1 UNK         0.0600 
    178 H178        5.7069  -13.9477  -46.8873 H         1 UNK         0.0600 
    179 H179        2.7115  -11.3943  -46.0626 H         1 UNK         0.3000 
    180 H180        3.6231   -8.0101  -46.8407 H         1 UNK         0.0600 
    181 H181        1.7014   -8.3378  -48.3652 H         1 UNK         0.0600 
    182 H182        1.8190  -10.0886  -48.1950 H         1 UNK         0.0600 
    183 H183        3.1068   -9.1884  -48.9880 H         1 UNK         0.0600 
    184 H184        1.1508   -9.1564  -45.9899 H         1 UNK         0.3000 
    185 H185        1.6197   -8.7779  -42.4929 H         1 UNK         0.0600 
    186 H186       -0.0796   -7.1176  -44.4262 H         1 UNK         0.0600 
    187 H187       -0.4364   -7.3898  -42.7207 H         1 UNK         0.0600 
    188 H188        1.0038   -6.5003  -43.1907 H         1 UNK         0.0600 
    189 H189        0.4690  -10.5787  -43.0003 H         1 UNK         0.3000 
    190 H190       -2.4230  -21.8769  -44.1564 H         1 UNK         0.3000 
    191 H191       -4.7537  -22.9556  -42.9349 H         1 UNK         0.0600 
    192 H192       -1.8063  -23.2234  -42.1345 H         1 UNK         0.0600 
    193 H193       -2.8772  -21.8995  -41.6782 H         1 UNK         0.0600 
    194 H194       -3.1865  -23.5254  -41.0869 H         1 UNK         0.0600 
    195 H195       -2.3077  -24.4623  -44.9409 H         1 UNK         0.3000 
    196 H196       -3.5045  -27.1755  -44.5385 H         1 UNK         0.0600 
    197 H197       -1.0671  -27.0230  -43.9333 H         1 UNK         0.0600 
    198 H198       -0.7112  -26.3960  -45.5418 H         1 UNK         0.0600 
    199 H199       -1.3252  -28.0348  -45.3443 H         1 UNK         0.0600 
    200 H200       -4.3631  -24.7548  -46.1892 H         1 UNK         0.3000 
    201 H201       -5.1621  -24.1602  -48.1491 H         1 UNK         0.0600 
    202 H202       -6.2017  -25.8820  -49.5774 H         1 UNK         0.0600 
    203 H203       -6.4673  -26.2810  -47.8906 H         1 UNK         0.0600 
    204 H204       -5.2482  -27.1505  -48.8186 H         1 UNK         0.0600 
    205 H205       -2.1606  -24.5587  -47.9109 H         1 UNK         0.3000 
    206 H206       -0.2698  -24.5461  -49.0099 H         1 UNK         0.0600 
    207 H207       -1.2763  -22.4817  -50.0474 H         1 UNK         0.0600 
    208 H208       -1.8162  -23.4545  -51.4132 H         1 UNK         0.0600 
    209 H209       -0.1015  -23.2645  -51.0934 H         1 UNK         0.0600 
    210 H210       -1.6849  -26.9982  -48.9572 H         1 UNK         0.3000 
    211 H211       -1.7228  -29.0754  -49.6781 H         1 UNK         0.0600 
    212 H212        0.7578  -28.8889  -49.9731 H         1 UNK         0.0600 
    213 H213        0.0318  -30.0062  -51.1171 H         1 UNK         0.0600 
    214 H214        0.5232  -28.4082  -51.6533 H         1 UNK         0.0600 
    215 H215       -3.6285  -27.4408  -50.5028 H         1 UNK         0.3000 
    216 H216       -5.4270  -27.2331  -51.7458 H         1 UNK         0.0600 
    217 H217       -6.1586  -29.0209  -53.2704 H         1 UNK         0.0600 
    218 H218       -4.5475  -29.7210  -53.3013 H         1 UNK         0.0600 
    219 H219       -5.4868  -29.7259  -51.8093 H         1 UNK         0.0600 
    220 H220       -3.5983  -25.4580  -52.2574 H         1 UNK         0.3000 
    221 H221       -3.9122  -24.8627  -55.1565 H         1 UNK         0.0600 
    222 H222       -1.2525  -24.5801  -53.6665 H         1 UNK         0.0600 
    223 H223       -1.6130  -25.8527  -54.8317 H         1 UNK         0.0600 
    224 H224       -1.5616  -24.1738  -55.3478 H         1 UNK         0.0600 
    225 H225       -4.3425  -23.8054  -51.9609 H         1 UNK         0.3000 
    226 H226       -3.5927  -21.1104  -52.0860 H         1 UNK         0.0600 
    227 H227       -4.0458  -22.1585  -49.9643 H         1 UNK         0.0600 
    228 H228       -5.2065  -20.8617  -50.1400 H         1 UNK         0.0600 
    229 H229       -5.7170  -22.5253  -50.4088 H         1 UNK         0.0600 
    230 H230       -6.2693  -22.5515  -53.7099 H         1 UNK         0.3000 
    231 H231       -7.9256  -20.2242  -54.0556 H         1 UNK         0.0600 
    232 H232       -8.8982  -21.5629  -55.9284 H         1 UNK         0.0600 
    233 H233       -8.7618  -22.5259  -54.4659 H         1 UNK         0.0600 
    234 H234       -7.6018  -22.7430  -55.7774 H         1 UNK         0.0600 
    235 H235       -4.9960  -21.4186  -55.6464 H         1 UNK         0.3000 
    236 H236       -5.0008  -19.2114  -57.6469 H         1 UNK         0.0600 
    237 H237       -3.0133  -20.4019  -58.5508 H         1 UNK         0.0600 
    238 H238       -3.1293  -21.6147  -57.2809 H         1 UNK         0.0600 
    239 H239       -4.4054  -21.4717  -58.4873 H         1 UNK         0.0600 
    240 H240       -3.2083  -20.5915  -54.8806 H         1 UNK         0.3000 
    241 H241       -1.9619  -19.7742  -53.3110 H         1 UNK         0.0600 
    242 H242        0.7796  -19.3590  -55.9855 H         1 UNK         0.3800 
    243 H243       -0.7948  -20.0885  -56.1665 H         1 UNK         0.3800 
    244 H244       -2.2814  -16.8251  -53.9042 H         1 UNK         0.0800 
    245 H245       -3.7311  -17.7199  -53.5738 H         1 UNK         0.0800 
    246 H246       -3.9616  -15.8508  -51.6731 H         1 UNK         0.0800 
    247 H247       -4.7302  -17.3862  -51.3489 H         1 UNK         0.0800 
@<TRIPOS>BOND
     1    1    2 1    
     2    1  127 1    
     3    1  128 1    
     4    1  129 1    
     5    2    3 2    
     6    2    4 am   BACKBONE|DICT|INTERRES
     7    4    5 1    
     8    4  130 1    
     9    5    6 1    
    10    5   65 1    
    11    5  131 1    
    12    6    7 1    
    13    6  132 1    
    14    6  133 1    
    15    7    8 1    
    16    8    9 1    
    17    8  134 1    
    18    8  135 1    
    19    9   10 ar   
    20    9   14 ar   
    21   10   11 ar   
    22   10  136 1    
    23   11   12 ar   
    24   11  126 1    
    25   12   13 ar   
    26   12  137 1    
    27   13   14 ar   
    28   13   15 1    
    29   14  138 1    
    30   15   16 1    
    31   15  139 1    
    32   15  140 1    
    33   16   17 1    
    34   17   18 1    
    35   17  141 1    
    36   17  142 1    
    37   18   19 1    
    38   18   67 1    
    39   18  143 1    
    40   19   20 am   BACKBONE|DICT|INTERRES
    41   19  144 1    
    42   20   21 2    
    43   20   22 1    
    44   22   23 1    
    45   22   24 1    
    46   22  145 1    
    47   23  146 1    
    48   23  147 1    
    49   23  148 1    
    50   24   25 am   BACKBONE|DICT|INTERRES
    51   24  149 1    
    52   25   26 2    
    53   25   27 1    
    54   27   28 1    
    55   27   29 1    
    56   27  150 1    
    57   28  151 1    
    58   28  152 1    
    59   28  153 1    
    60   29   30 am   BACKBONE|DICT|INTERRES
    61   29  154 1    
    62   30   31 2    
    63   30   32 1    
    64   32   33 1    
    65   32   34 1    
    66   32  155 1    
    67   33  156 1    
    68   33  157 1    
    69   33  158 1    
    70   34   35 am   BACKBONE|DICT|INTERRES
    71   34  159 1    
    72   35   36 2    
    73   35   37 1    
    74   37   38 1    
    75   37   39 1    
    76   37  160 1    
    77   38  161 1    
    78   38  162 1    
    79   38  163 1    
    80   39   40 am   BACKBONE|DICT|INTERRES
    81   39  164 1    
    82   40   41 2    
    83   40   42 1    
    84   42   43 1    
    85   42   44 1    
    86   42  165 1    
    87   43  166 1    
    88   43  167 1    
    89   43  168 1    
    90   44   45 am   BACKBONE|DICT|INTERRES
    91   44  169 1    
    92   45   46 2    
    93   45   47 1    
    94   47   48 1    
    95   47   49 1    
    96   47  170 1    
    97   48  171 1    
    98   48  172 1    
    99   48  173 1    
   100   49   50 am   BACKBONE|DICT|INTERRES
   101   49  174 1    
   102   50   51 2    
   103   50   52 1    
   104   52   53 1    
   105   52   54 1    
   106   52  175 1    
   107   53  176 1    
   108   53  177 1    
   109   53  178 1    
   110   54   55 am   BACKBONE|DICT|INTERRES
   111   54  179 1    
   112   55   56 2    
   113   55   57 1    
   114   57   58 1    
   115   57   59 1    
   116   57  180 1    
   117   58  181 1    
   118   58  182 1    
   119   58  183 1    
   120   59   60 am   BACKBONE|DICT|INTERRES
   121   59  184 1    
   122   60   61 2    
   123   60   62 1    
   124   62   63 1    
   125   62   64 1    
   126   62  185 1    
   127   63  186 1    
   128   63  187 1    
   129   63  188 1    
   130   64   65 am   BACKBONE|DICT|INTERRES
   131   64  189 1    
   132   65   66 2    
   133   67   68 2    
   134   67   69 am   BACKBONE|DICT|INTERRES
   135   69   70 1    
   136   69  190 1    
   137   70   71 1    
   138   70   72 1    
   139   70  191 1    
   140   71  192 1    
   141   71  193 1    
   142   71  194 1    
   143   72   73 2    
   144   72   74 am   BACKBONE|DICT|INTERRES
   145   74   75 1    
   146   74  195 1    
   147   75   76 1    
   148   75   77 1    
   149   75  196 1    
   150   76  197 1    
   151   76  198 1    
   152   76  199 1    
   153   77   78 2    
   154   77   79 am   BACKBONE|DICT|INTERRES
   155   79   80 1    
   156   79  200 1    
   157   80   81 1    
   158   80   82 1    
   159   80  201 1    
   160   81  202 1    
   161   81  203 1    
   162   81  204 1    
   163   82   83 2    
   164   82   84 am   BACKBONE|DICT|INTERRES
   165   84   85 1    
   166   84  205 1    
   167   85   86 1    
   168   85   87 1    
   169   85  206 1    
   170   86  207 1    
   171   86  208 1    
   172   86  209 1    
   173   87   88 2    
   174   87   89 am   BACKBONE|DICT|INTERRES
   175   89   90 1    
   176   89  210 1    
   177   90   91 1    
   178   90   92 1    
   179   90  211 1    
   180   91  212 1    
   181   91  213 1    
   182   91  214 1    
   183   92   93 2    
   184   92   94 am   BACKBONE|DICT|INTERRES
   185   94   95 1    
   186   94  215 1    
   187   95   96 1    
   188   95   97 1    
   189   95  216 1    
   190   96  217 1    
   191   96  218 1    
   192   96  219 1    
   193   97   98 2    
   194   97   99 am   BACKBONE|DICT|INTERRES
   195   99  100 1    
   196   99  220 1    
   197  100  101 1    
   198  100  102 1    
   199  100  221 1    
   200  101  222 1    
   201  101  223 1    
   202  101  224 1    
   203  102  103 2    
   204  102  104 am   BACKBONE|DICT|INTERRES
   205  104  105 1    
   206  104  225 1    
   207  105  106 1    
   208  105  107 1    
   209  105  226 1    
   210  106  227 1    
   211  106  228 1    
   212  106  229 1    
   213  107  108 2    
   214  107  109 am   BACKBONE|DICT|INTERRES
   215  109  110 1    
   216  109  230 1    
   217  110  111 1    
   218  110  112 1    
   219  110  231 1    
   220  111  232 1    
   221  111  233 1    
   222  111  234 1    
   223  112  113 2    
   224  112  114 am   BACKBONE|DICT|INTERRES
   225  114  115 1    
   226  114  235 1    
   227  115  116 1    
   228  115  117 1    
   229  115  236 1    
   230  116  237 1    
   231  116  238 1    
   232  116  239 1    
   233  117  118 2    
   234  117  119 am   BACKBONE|DICT|INTERRES
   235  119  120 1    
   236  119  240 1    
   237  120  121 1    
   238  120  124 1    
   239  120  241 1    
   240  121  122 am   BACKBONE|DICT|INTERRES
   241  121  123 2    
   242  122  242 1    
   243  122  243 1    
   244  124  125 1    
   245  124  244 1    
   246  124  245 1    
   247  125  126 1    
   248  126  246 1    
   249  126  247 1    
@<TRIPOS>SUBSTRUCTURE
     1 UNK         1 GROUP             0       ****    0 ROOT    
