@<TRIPOS>MOLECULE
3R540
247   249    1
SMALL
USER_CHARGES


@<TRIPOS>ATOM
      1 CA          1.4094   -9.7550  -51.3593 C.3       0 UNK        -0.1800 
      2 C           0.7294  -10.6317  -50.3168 C.2       0 UNK         0.5000 
      3 O          -0.4669  -10.4731  -50.0773 O.2       0 UNK        -0.5000 
      4 N           1.4910  -11.5525  -49.7098 N.am      1 UNK        -0.5000 
      5 CA          1.0759  -12.4805  -48.6532 C.3       1 UNK         0.1400 
      6 C6         -0.0290  -13.4748  -49.1032 C.3       23 UNK        -0.0398 
      7 S7         -0.0832  -14.9429  -48.0218 S.3       23 UNK        -0.2404 
      8 C8          1.0142  -16.0952  -48.9000 C.3       23 UNK        -0.0205 
      9 C9          0.2256  -17.0358  -49.7945 C.ar      23 UNK        -0.0193 
     10 C10         0.0266  -16.7440  -51.1482 C.ar      23 UNK        -0.1150 
     11 C11        -0.6921  -17.6260  -51.9619 C.ar      23 UNK        -0.0193 
     12 C12        -1.1991  -18.8043  -51.4122 C.ar      23 UNK        -0.1150 
     13 C13        -0.9918  -19.1183  -50.0691 C.ar      23 UNK        -0.0193 
     14 C14        -0.2907  -18.2197  -49.2610 C.ar      23 UNK        -0.1150 
     15 C15        -1.5143  -20.4335  -49.5105 C.3       23 UNK        -0.0205 
     16 S16        -0.1546  -21.5114  -48.9552 S.3       23 UNK        -0.2404 
     17 C17        -0.1728  -21.1888  -47.1565 C.3       23 UNK        -0.0398 
     18 CA         -0.7684  -22.3597  -46.3424 C.3       11 UNK         0.1400 
     19 N          -0.5813  -22.1646  -44.9059 N.am      11 UNK        -0.5000 
     20 C          -0.8442  -23.0841  -43.9675 C.2       10 UNK         0.5000 
     21 O          -1.2275  -24.2277  -44.2130 O.2       10 UNK        -0.5000 
     22 CA         -0.7115  -22.6233  -42.5075 C.3       10 UNK         0.1400 
     23 CB          0.7569  -22.6327  -42.0585 C.3       10 UNK        -0.1800 
     24 N          -1.2796  -21.2894  -42.3109 N.am      10 UNK        -0.5000 
     25 C          -2.5887  -21.0109  -42.3828 C.2       9 UNK         0.5000 
     26 O          -3.4589  -21.8575  -42.5880 O.2       9 UNK        -0.5000 
     27 CA         -2.9847  -19.5307  -42.2382 C.3       9 UNK         0.1400 
     28 CB         -3.0432  -19.1252  -40.7578 C.3       9 UNK        -0.1800 
     29 N          -2.0811  -18.6271  -42.9531 N.am      9 UNK        -0.5000 
     30 C          -1.9597  -18.5781  -44.2870 C.2       8 UNK         0.5000 
     31 O          -2.5780  -19.3077  -45.0592 O.2       8 UNK        -0.5000 
     32 CA         -0.9518  -17.5647  -44.8537 C.3       8 UNK         0.1400 
     33 CB         -1.5796  -16.1642  -44.8760 C.3       8 UNK        -0.1800 
     34 N           0.3217  -17.5205  -44.1296 N.am      8 UNK        -0.5000 
     35 C           1.1328  -18.5697  -43.9203 C.2       7 UNK         0.5000 
     36 O           0.8452  -19.7264  -44.2368 O.2       7 UNK        -0.5000 
     37 CA          2.4847  -18.2696  -43.2381 C.3       7 UNK         0.1400 
     38 CB          3.5021  -19.4200  -43.3827 C.3       7 UNK        -0.1800 
     39 N           3.0753  -16.9988  -43.6693 N.am      7 UNK        -0.5000 
     40 C           3.4377  -16.6400  -44.9121 C.2       6 UNK         0.5000 
     41 O           3.3586  -17.3834  -45.8905 O.2       6 UNK        -0.5000 
     42 CA          3.9716  -15.2052  -45.1036 C.3       6 UNK         0.1400 
     43 CB          3.1493  -14.4470  -46.1547 C.3       6 UNK        -0.1800 
     44 N           3.9439  -14.4350  -43.8602 N.am      6 UNK        -0.5000 
     45 C           4.9952  -14.2196  -43.0586 C.2       5 UNK         0.5000 
     46 O           6.1420  -14.5842  -43.3191 O.2       5 UNK        -0.5000 
     47 CA          4.7154  -13.5002  -41.7239 C.3       5 UNK         0.1400 
     48 CB          5.0830  -12.0116  -41.8202 C.3       5 UNK        -0.1800 
     49 N           3.3230  -13.6369  -41.2833 N.am      5 UNK        -0.5000 
     50 C           2.7932  -14.7791  -40.8192 C.2       4 UNK         0.5000 
     51 O           3.4328  -15.8241  -40.7021 O.2       4 UNK        -0.5000 
     52 CA          1.2907  -14.7837  -40.4792 C.3       4 UNK         0.1400 
     53 CB          1.0746  -14.4735  -38.9909 C.3       4 UNK        -0.1800 
     54 N           0.4934  -13.8561  -41.2828 N.am      4 UNK        -0.5000 
     55 C           0.3509  -13.9060  -42.6137 C.2       3 UNK         0.5000 
     56 O           0.9080  -14.7479  -43.3214 O.2       3 UNK        -0.5000 
     57 CA         -0.5508  -12.8382  -43.2717 C.3       3 UNK         0.1400 
     58 CB         -1.2360  -11.8848  -42.2672 C.3       3 UNK        -0.1800 
     59 N           0.1535  -12.0578  -44.2916 N.am      3 UNK        -0.5000 
     60 C           1.3013  -11.3812  -44.1577 C.2       2 UNK         0.5000 
     61 O           1.9733  -11.3892  -43.1245 O.2       2 UNK        -0.5000 
     62 CA          1.7627  -10.5463  -45.3780 C.3       2 UNK         0.1400 
     63 CB          3.1480   -9.9105  -45.1588 C.3       2 UNK        -0.1800 
     64 N           1.7957  -11.2909  -46.6416 N.am      2 UNK        -0.5000 
     65 C           0.7421  -11.7220  -47.3483 C.2       1 UNK         0.5000 
     66 O          -0.4275  -11.5287  -47.0098 O.2       1 UNK        -0.5000 
     67 C          -2.2475  -22.6320  -46.6912 C.2       11 UNK         0.5000 
     68 O          -2.5201  -23.5670  -47.4384 O.2       11 UNK        -0.5000 
     69 N          -3.1795  -21.8563  -46.1199 N.am      12 UNK        -0.5000 
     70 CA         -4.6218  -22.0375  -46.2993 C.3       12 UNK         0.1400 
     71 CB         -5.3760  -20.8714  -45.6439 C.3       12 UNK        -0.1800 
     72 C          -5.1347  -23.3881  -45.7646 C.2       12 UNK         0.5000 
     73 O          -5.9903  -24.0018  -46.4026 O.2       12 UNK        -0.5000 
     74 N          -4.5873  -23.8382  -44.6264 N.am      13 UNK        -0.5000 
     75 CA         -4.8833  -25.1397  -44.0266 C.3       13 UNK         0.1400 
     76 CB         -4.3316  -25.1823  -42.5933 C.3       13 UNK        -0.1800 
     77 C          -4.3408  -26.3164  -44.8607 C.2       13 UNK         0.5000 
     78 O          -5.0494  -27.3068  -45.0451 O.2       13 UNK        -0.5000 
     79 N          -3.1026  -26.1858  -45.3563 N.am      14 UNK        -0.5000 
     80 CA         -2.4338  -27.1845  -46.1947 C.3       14 UNK         0.1400 
     81 CB         -0.9227  -26.9050  -46.1821 C.3       14 UNK        -0.1800 
     82 C          -2.9464  -27.2150  -47.6481 C.2       14 UNK         0.5000 
     83 O          -2.7733  -28.2265  -48.3297 O.2       14 UNK        -0.5000 
     84 N          -3.5099  -26.0914  -48.1095 N.am      15 UNK        -0.5000 
     85 CA         -3.8992  -25.7241  -49.4744 C.3       15 UNK         0.1400 
     86 CB         -4.9127  -26.7086  -50.0869 C.3       15 UNK        -0.1800 
     87 C          -2.6844  -25.4965  -50.3931 C.2       15 UNK         0.5000 
     88 O          -2.5827  -24.4378  -51.0153 O.2       15 UNK        -0.5000 
     89 N          -1.7866  -26.4927  -50.4527 N.am      16 UNK        -0.5000 
     90 CA         -0.4705  -26.4852  -51.1061 C.3       16 UNK         0.1400 
     91 CB          0.4936  -25.5894  -50.3004 C.3       16 UNK        -0.1800 
     92 C          -0.5014  -26.1080  -52.6045 C.2       16 UNK         0.5000 
     93 O           0.4748  -25.5589  -53.1181 O.2       16 UNK        -0.5000 
     94 N          -1.6442  -26.3551  -53.2631 N.am      17 UNK        -0.5000 
     95 CA         -2.0548  -25.9296  -54.6097 C.3       17 UNK         0.1400 
     96 CB         -1.1230  -26.4994  -55.6955 C.3       17 UNK        -0.1800 
     97 C          -2.2300  -24.4030  -54.7699 C.2       17 UNK         0.5000 
     98 O          -3.1773  -23.9722  -55.4269 O.2       17 UNK        -0.5000 
     99 N          -1.3424  -23.6120  -54.1547 N.am      18 UNK        -0.5000 
    100 CA        -1.2913  -22.1507  -54.1943 C.3       18 UNK         0.1400 
    101 CB        -0.0812  -21.6735  -53.3781 C.3       18 UNK        -0.1800 
    102 C         -2.5734  -21.4549  -53.7052 C.2       18 UNK         0.5000 
    103 O         -2.9065  -20.3834  -54.2154 O.2       18 UNK        -0.5000 
    104 N         -3.2931  -22.0665  -52.7522 N.am      19 UNK        -0.5000 
    105 CA        -4.5680  -21.5553  -52.2399 C.3       19 UNK         0.1400 
    106 CB        -5.0321  -22.4067  -51.0502 C.3       19 UNK        -0.1800 
    107 C         -5.6758  -21.4685  -53.3092 C.2       19 UNK         0.5000 
    108 O         -6.5685  -20.6328  -53.1763 O.2       19 UNK        -0.5000 
    109 N         -5.5873  -22.2850  -54.3699 N.am      20 UNK        -0.5000 
    110 CA        -6.4885  -22.2183  -55.5220 C.3       20 UNK         0.1400 
    111 CB        -6.3937  -23.5258  -56.3229 C.3       20 UNK        -0.1800 
    112 C         -6.2088  -21.0038  -56.4306 C.2       20 UNK         0.5000 
    113 O         -7.1142  -20.5716  -57.1450 O.2       20 UNK        -0.5000 
    114 N         -4.9768  -20.4749  -56.3928 N.am      21 UNK        -0.5000 
    115 CA        -4.5664  -19.2882  -57.1398 C.3       21 UNK         0.1400 
    116 CB        -3.0677  -19.3730  -57.4742 C.3       21 UNK        -0.1800 
    117 C         -4.8909  -18.0043  -56.3595 C.2       21 UNK         0.5000 
    118 O         -5.4989  -17.0942  -56.9250 O.2       21 UNK        -0.5000 
    119 N         -4.4882  -17.9532  -55.0819 N.am      22 UNK        -0.5000 
    120 CA        -4.7296  -16.7992  -54.1966 C.3       22 UNK         0.1400 
    121 C         -6.1672  -16.7204  -53.6060 C.2       22 UNK         0.5000 
    122 N         -6.9462  -17.7927  -53.5661 N.am      22 UNK        -0.7600 
    123 O         -6.5948  -15.6487  -53.1858 O.2       22 UNK        -0.5000 
    124 C124       -3.6579  -16.6848  -53.0825 C.3       23 UNK        -0.0398 
    125 S125       -2.0938  -15.9824  -53.7126 S.3       23 UNK        -0.2404 
    126 C126       -0.9032  -17.3294  -53.4400 C.3       23 UNK        -0.0205 
    127 H127        2.4641  -10.0054  -51.4764 H         1 UNK         0.0600 
    128 H128        1.3395   -8.7062  -51.0707 H         1 UNK         0.0600 
    129 H129        0.9223   -9.8764  -52.3269 H         1 UNK         0.0600 
    130 H130        2.4671  -11.6082  -49.9657 H         1 UNK         0.3000 
    131 H131        1.9691  -13.0727  -48.4501 H         1 UNK         0.0600 
    132 H132       -1.0124  -13.0023  -49.1132 H         1 UNK         0.0800 
    133 H133        0.1505  -13.8018  -50.1278 H         1 UNK         0.0800 
    134 H134        1.7634  -15.5500  -49.4758 H         1 UNK         0.0800 
    135 H135        1.5683  -16.6764  -48.1607 H         1 UNK         0.0800 
    136 H136        0.4273  -15.8331  -51.5699 H         1 UNK         0.1150 
    137 H137       -1.7521  -19.4852  -52.0361 H         1 UNK         0.1150 
    138 H138       -0.1260  -18.4472  -48.2186 H         1 UNK         0.1150 
    139 H139       -2.2188  -20.2375  -48.7012 H         1 UNK         0.0800 
    140 H140       -2.0773  -20.9752  -50.2718 H         1 UNK         0.0800 
    141 H141        0.8599  -21.0180  -46.8487 H         1 UNK         0.0800 
    142 H142       -0.7024  -20.2622  -46.9342 H         1 UNK         0.0800 
    143 H143       -0.2091  -23.2598  -46.6076 H         1 UNK         0.0600 
    144 H144       -0.2328  -21.2553  -44.6129 H         1 UNK         0.3000 
    145 H145       -1.2642  -23.3270  -41.8813 H         1 UNK         0.0600 
    146 H146        0.8518  -22.3456  -41.0112 H         1 UNK         0.0600 
    147 H147        1.1887  -23.6288  -42.1633 H         1 UNK         0.0600 
    148 H148        1.3644  -21.9490  -42.6512 H         1 UNK         0.0600 
    149 H149       -0.6276  -20.5285  -42.1929 H         1 UNK         0.3000 
    150 H150       -3.9841  -19.4131  -42.6626 H         1 UNK         0.0600 
    151 H151       -3.7229  -19.7734  -40.2028 H         1 UNK         0.0600 
    152 H152       -3.4050  -18.1033  -40.6431 H         1 UNK         0.0600 
    153 H153       -2.0644  -19.1907  -40.2810 H         1 UNK         0.0600 
    154 H154       -1.5240  -17.9974  -42.3951 H         1 UNK         0.3000 
    155 H155       -0.7279  -17.8541  -45.8819 H         1 UNK         0.0600 
    156 H156       -0.8876  -15.4269  -45.2801 H         1 UNK         0.0600 
    157 H157       -1.8690  -15.8370  -43.8770 H         1 UNK         0.0600 
    158 H158       -2.4736  -16.1471  -45.5007 H         1 UNK         0.0600 
    159 H159        0.6421  -16.5977  -43.8484 H         1 UNK         0.3000 
    160 H160        2.2669  -18.1562  -42.1754 H         1 UNK         0.0600 
    161 H161        3.7108  -19.6478  -44.4284 H         1 UNK         0.0600 
    162 H162        3.1299  -20.3329  -42.9180 H         1 UNK         0.0600 
    163 H163        4.4466  -19.1739  -42.8975 H         1 UNK         0.0600 
    164 H164        3.1938  -16.3120  -42.9370 H         1 UNK         0.3000 
    165 H165        4.9950  -15.2907  -45.4737 H         1 UNK         0.0600 
    166 H166        2.1080  -14.3373  -45.8484 H         1 UNK         0.0600 
    167 H167        3.5623  -13.4531  -46.3210 H         1 UNK         0.0600 
    168 H168        3.1615  -14.9657  -47.1133 H         1 UNK         0.0600 
    169 H169        3.0294  -14.1244  -43.5550 H         1 UNK         0.3000 
    170 H170        5.3567  -13.9549  -40.9658 H         1 UNK         0.0600 
    171 H171        6.1420  -11.8883  -42.0500 H         1 UNK         0.0600 
    172 H172        4.5209  -11.5044  -42.6038 H         1 UNK         0.0600 
    173 H173        4.8924  -11.4944  -40.8799 H         1 UNK         0.0600 
    174 H174        2.7237  -12.8315  -41.4155 H         1 UNK         0.3000 
    175 H175        0.9174  -15.7913  -40.6746 H         1 UNK         0.0600 
    176 H176        1.4000  -13.4633  -38.7393 H         1 UNK         0.0600 
    177 H177        0.0237  -14.5670  -38.7163 H         1 UNK         0.0600 
    178 H178        1.6358  -15.1656  -38.3615 H         1 UNK         0.0600 
    179 H179        0.0197  -13.1198  -40.7800 H         1 UNK         0.3000 
    180 H180       -1.3366  -13.3841  -43.7938 H         1 UNK         0.0600 
    181 H181       -0.5140  -11.2863  -41.7100 H         1 UNK         0.0600 
    182 H182       -1.8463  -12.4343  -41.5492 H         1 UNK         0.0600 
    183 H183       -1.9025  -11.1939  -42.7836 H         1 UNK         0.0600 
    184 H184       -0.2995  -12.0033  -45.2005 H         1 UNK         0.3000 
    185 H185        1.0416   -9.7338  -45.4872 H         1 UNK         0.0600 
    186 H186        3.4263   -9.2701  -45.9959 H         1 UNK         0.0600 
    187 H187        3.9234  -10.6690  -45.0428 H         1 UNK         0.0600 
    188 H188        3.1592   -9.2888  -44.2625 H         1 UNK         0.0600 
    189 H189        2.7187  -11.4837  -47.0013 H         1 UNK         0.3000 
    190 H190       -2.8905  -21.0601  -45.5560 H         1 UNK         0.3000 
    191 H191       -4.8256  -22.0108  -47.3719 H         1 UNK         0.0600 
    192 H192       -5.0941  -19.9187  -46.0924 H         1 UNK         0.0600 
    193 H193       -6.4539  -20.9824  -45.7686 H         1 UNK         0.0600 
    194 H194       -5.1724  -20.8114  -44.5744 H         1 UNK         0.0600 
    195 H195       -3.9264  -23.2474  -44.1344 H         1 UNK         0.3000 
    196 H196       -5.9688  -25.2455  -43.9710 H         1 UNK         0.0600 
    197 H197       -4.5594  -26.1358  -42.1153 H         1 UNK         0.0600 
    198 H198       -4.7718  -24.3966  -41.9790 H         1 UNK         0.0600 
    199 H199       -3.2492  -25.0543  -42.5720 H         1 UNK         0.0600 
    200 H200       -2.5605  -25.3619  -45.1110 H         1 UNK         0.3000 
    201 H201       -2.6031  -28.1729  -45.7626 H         1 UNK         0.0600 
    202 H202       -0.5233  -26.9405  -45.1683 H         1 UNK         0.0600 
    203 H203       -0.6944  -25.9221  -46.5969 H         1 UNK         0.0600 
    204 H204       -0.3805  -27.6451  -46.7720 H         1 UNK         0.0600 
    205 H205       -3.4694  -25.2921  -47.4848 H         1 UNK         0.3000 
    206 H206       -4.4021  -24.7619  -49.3730 H         1 UNK         0.0600 
    207 H207       -5.7811  -26.8299  -49.4394 H         1 UNK         0.0600 
    208 H208       -5.2728  -26.3412  -51.0486 H         1 UNK         0.0600 
    209 H209       -4.4816  -27.6949  -50.2581 H         1 UNK         0.0600 
    210 H210       -1.9960  -27.3168  -49.8968 H         1 UNK         0.3000 
    211 H211       -0.0961  -27.5084  -51.0577 H         1 UNK         0.0600 
    212 H212        0.2026  -24.5392  -50.3512 H         1 UNK         0.0600 
    213 H213        1.5142  -25.6666  -50.6767 H         1 UNK         0.0600 
    214 H214        0.5146  -25.8781  -49.2494 H         1 UNK         0.0600 
    215 H215       -2.3784  -26.7856  -52.7192 H         1 UNK         0.3000 
    216 H216       -3.0413  -26.3692  -54.7654 H         1 UNK         0.0600 
    217 H217       -1.0380  -27.5829  -55.6133 H         1 UNK         0.0600 
    218 H218       -0.1193  -26.0779  -55.6379 H         1 UNK         0.0600 
    219 H219       -1.5094  -26.2781  -56.6912 H         1 UNK         0.0600 
    220 H220       -0.5936  -24.0780  -53.6511 H         1 UNK         0.3000 
    221 H221       -1.1406  -21.8594  -55.2355 H         1 UNK         0.0600 
    222 H222       -0.1827  -21.9293  -52.3221 H         1 UNK         0.0600 
    223 H223        0.8434  -22.1210  -53.7432 H         1 UNK         0.0600 
    224 H224        0.0358  -20.5915  -53.4467 H         1 UNK         0.0600 
    225 H225       -2.9524  -22.9351  -52.3496 H         1 UNK         0.3000 
    226 H226       -4.3916  -20.5404  -51.8772 H         1 UNK         0.0600 
    227 H227       -4.2937  -22.3992  -50.2480 H         1 UNK         0.0600 
    228 H228       -5.9647  -22.0237  -50.6338 H         1 UNK         0.0600 
    229 H229       -5.2048  -23.4422  -51.3450 H         1 UNK         0.0600 
    230 H230       -4.8027  -22.9224  -54.4437 H         1 UNK         0.3000 
    231 H231       -7.5122  -22.1259  -55.1526 H         1 UNK         0.0600 
    232 H232       -7.1337  -23.5441  -57.1238 H         1 UNK         0.0600 
    233 H233       -6.5779  -24.3938  -55.6897 H         1 UNK         0.0600 
    234 H234       -5.4135  -23.6465  -56.7844 H         1 UNK         0.0600 
    235 H235       -4.3016  -20.8506  -55.7391 H         1 UNK         0.3000 
    236 H236       -5.1102  -19.2537  -58.0864 H         1 UNK         0.0600 
    237 H237       -2.8419  -20.2760  -58.0416 H         1 UNK         0.0600 
    238 H238       -2.7590  -18.5216  -58.0819 H         1 UNK         0.0600 
    239 H239       -2.4443  -19.3755  -56.5803 H         1 UNK         0.0600 
    240 H240       -3.9781  -18.7390  -54.6925 H         1 UNK         0.3000 
    241 H241       -4.6438  -15.8982  -54.8081 H         1 UNK         0.0600 
    242 H242       -7.8745  -17.7029  -53.1858 H         1 UNK         0.3800 
    243 H243       -6.6074  -18.7153  -53.8098 H         1 UNK         0.3800 
    244 H244       -3.4919  -17.6548  -52.6136 H         1 UNK         0.0800 
    245 H245       -3.9876  -16.0197  -52.2820 H         1 UNK         0.0800 
    246 H246        0.0518  -17.0504  -53.8870 H         1 UNK         0.0800 
    247 H247       -1.2406  -18.2183  -53.9751 H         1 UNK         0.0800 
@<TRIPOS>BOND
     1    1    2 1    
     2    1  127 1    
     3    1  128 1    
     4    1  129 1    
     5    2    3 2    
     6    2    4 am   BACKBONE|DICT|INTERRES
     7    4    5 1    
     8    4  130 1    
     9    5    6 1    
    10    5   65 1    
    11    5  131 1    
    12    6    7 1    
    13    6  132 1    
    14    6  133 1    
    15    7    8 1    
    16    8    9 1    
    17    8  134 1    
    18    8  135 1    
    19    9   10 ar   
    20    9   14 ar   
    21   10   11 ar   
    22   10  136 1    
    23   11   12 ar   
    24   11  126 1    
    25   12   13 ar   
    26   12  137 1    
    27   13   14 ar   
    28   13   15 1    
    29   14  138 1    
    30   15   16 1    
    31   15  139 1    
    32   15  140 1    
    33   16   17 1    
    34   17   18 1    
    35   17  141 1    
    36   17  142 1    
    37   18   19 1    
    38   18   67 1    
    39   18  143 1    
    40   19   20 am   BACKBONE|DICT|INTERRES
    41   19  144 1    
    42   20   21 2    
    43   20   22 1    
    44   22   23 1    
    45   22   24 1    
    46   22  145 1    
    47   23  146 1    
    48   23  147 1    
    49   23  148 1    
    50   24   25 am   BACKBONE|DICT|INTERRES
    51   24  149 1    
    52   25   26 2    
    53   25   27 1    
    54   27   28 1    
    55   27   29 1    
    56   27  150 1    
    57   28  151 1    
    58   28  152 1    
    59   28  153 1    
    60   29   30 am   BACKBONE|DICT|INTERRES
    61   29  154 1    
    62   30   31 2    
    63   30   32 1    
    64   32   33 1    
    65   32   34 1    
    66   32  155 1    
    67   33  156 1    
    68   33  157 1    
    69   33  158 1    
    70   34   35 am   BACKBONE|DICT|INTERRES
    71   34  159 1    
    72   35   36 2    
    73   35   37 1    
    74   37   38 1    
    75   37   39 1    
    76   37  160 1    
    77   38  161 1    
    78   38  162 1    
    79   38  163 1    
    80   39   40 am   BACKBONE|DICT|INTERRES
    81   39  164 1    
    82   40   41 2    
    83   40   42 1    
    84   42   43 1    
    85   42   44 1    
    86   42  165 1    
    87   43  166 1    
    88   43  167 1    
    89   43  168 1    
    90   44   45 am   BACKBONE|DICT|INTERRES
    91   44  169 1    
    92   45   46 2    
    93   45   47 1    
    94   47   48 1    
    95   47   49 1    
    96   47  170 1    
    97   48  171 1    
    98   48  172 1    
    99   48  173 1    
   100   49   50 am   BACKBONE|DICT|INTERRES
   101   49  174 1    
   102   50   51 2    
   103   50   52 1    
   104   52   53 1    
   105   52   54 1    
   106   52  175 1    
   107   53  176 1    
   108   53  177 1    
   109   53  178 1    
   110   54   55 am   BACKBONE|DICT|INTERRES
   111   54  179 1    
   112   55   56 2    
   113   55   57 1    
   114   57   58 1    
   115   57   59 1    
   116   57  180 1    
   117   58  181 1    
   118   58  182 1    
   119   58  183 1    
   120   59   60 am   BACKBONE|DICT|INTERRES
   121   59  184 1    
   122   60   61 2    
   123   60   62 1    
   124   62   63 1    
   125   62   64 1    
   126   62  185 1    
   127   63  186 1    
   128   63  187 1    
   129   63  188 1    
   130   64   65 am   BACKBONE|DICT|INTERRES
   131   64  189 1    
   132   65   66 2    
   133   67   68 2    
   134   67   69 am   BACKBONE|DICT|INTERRES
   135   69   70 1    
   136   69  190 1    
   137   70   71 1    
   138   70   72 1    
   139   70  191 1    
   140   71  192 1    
   141   71  193 1    
   142   71  194 1    
   143   72   73 2    
   144   72   74 am   BACKBONE|DICT|INTERRES
   145   74   75 1    
   146   74  195 1    
   147   75   76 1    
   148   75   77 1    
   149   75  196 1    
   150   76  197 1    
   151   76  198 1    
   152   76  199 1    
   153   77   78 2    
   154   77   79 am   BACKBONE|DICT|INTERRES
   155   79   80 1    
   156   79  200 1    
   157   80   81 1    
   158   80   82 1    
   159   80  201 1    
   160   81  202 1    
   161   81  203 1    
   162   81  204 1    
   163   82   83 2    
   164   82   84 am   BACKBONE|DICT|INTERRES
   165   84   85 1    
   166   84  205 1    
   167   85   86 1    
   168   85   87 1    
   169   85  206 1    
   170   86  207 1    
   171   86  208 1    
   172   86  209 1    
   173   87   88 2    
   174   87   89 am   BACKBONE|DICT|INTERRES
   175   89   90 1    
   176   89  210 1    
   177   90   91 1    
   178   90   92 1    
   179   90  211 1    
   180   91  212 1    
   181   91  213 1    
   182   91  214 1    
   183   92   93 2    
   184   92   94 am   BACKBONE|DICT|INTERRES
   185   94   95 1    
   186   94  215 1    
   187   95   96 1    
   188   95   97 1    
   189   95  216 1    
   190   96  217 1    
   191   96  218 1    
   192   96  219 1    
   193   97   98 2    
   194   97   99 am   BACKBONE|DICT|INTERRES
   195   99  100 1    
   196   99  220 1    
   197  100  101 1    
   198  100  102 1    
   199  100  221 1    
   200  101  222 1    
   201  101  223 1    
   202  101  224 1    
   203  102  103 2    
   204  102  104 am   BACKBONE|DICT|INTERRES
   205  104  105 1    
   206  104  225 1    
   207  105  106 1    
   208  105  107 1    
   209  105  226 1    
   210  106  227 1    
   211  106  228 1    
   212  106  229 1    
   213  107  108 2    
   214  107  109 am   BACKBONE|DICT|INTERRES
   215  109  110 1    
   216  109  230 1    
   217  110  111 1    
   218  110  112 1    
   219  110  231 1    
   220  111  232 1    
   221  111  233 1    
   222  111  234 1    
   223  112  113 2    
   224  112  114 am   BACKBONE|DICT|INTERRES
   225  114  115 1    
   226  114  235 1    
   227  115  116 1    
   228  115  117 1    
   229  115  236 1    
   230  116  237 1    
   231  116  238 1    
   232  116  239 1    
   233  117  118 2    
   234  117  119 am   BACKBONE|DICT|INTERRES
   235  119  120 1    
   236  119  240 1    
   237  120  121 1    
   238  120  124 1    
   239  120  241 1    
   240  121  122 am   BACKBONE|DICT|INTERRES
   241  121  123 2    
   242  122  242 1    
   243  122  243 1    
   244  124  125 1    
   245  124  244 1    
   246  124  245 1    
   247  125  126 1    
   248  126  246 1    
   249  126  247 1    
@<TRIPOS>SUBSTRUCTURE
     1 UNK         1 GROUP             0       ****    0 ROOT    
