@<TRIPOS>MOLECULE
3R540
247   249    1
SMALL
USER_CHARGES


@<TRIPOS>ATOM
      1 CA          2.3118   -9.8441  -51.5952 C.3       0 UNK        -0.1800 
      2 C           2.4851  -10.8485  -50.4648 C.2       0 UNK         0.5000 
      3 O           3.3377  -10.6547  -49.5983 O.2       0 UNK        -0.5000 
      4 N           1.6800  -11.9188  -50.4704 N.am      1 UNK        -0.5000 
      5 CA          1.7094  -12.9987  -49.4732 C.3       1 UNK         0.1400 
      6 C6          0.9738  -14.2661  -49.9691 C.3       23 UNK        -0.0398 
      7 S7          1.6836  -14.9414  -51.5081 S.3       23 UNK        -0.2404 
      8 C8          0.3229  -16.0070  -52.0824 C.3       23 UNK        -0.0205 
      9 C9          0.0006  -17.1015  -51.0762 C.ar      23 UNK        -0.0193 
     10 C10        -1.1354  -17.0059  -50.2682 C.ar      23 UNK        -0.1150 
     11 C11        -1.4185  -18.0001  -49.3299 C.ar      23 UNK        -0.0193 
     12 C12        -0.5618  -19.0971  -49.2084 C.ar      23 UNK        -0.1150 
     13 C13         0.5886  -19.2038  -50.0017 C.ar      23 UNK        -0.0193 
     14 C14         0.8539  -18.1995  -50.9379 C.ar      23 UNK        -0.1150 
     15 C15         1.5976  -20.3464  -49.8554 C.3       23 UNK        -0.0205 
     16 S16         0.9326  -21.9145  -49.1990 S.3       23 UNK        -0.2404 
     17 C17         1.0932  -21.6020  -47.4078 C.3       23 UNK        -0.0398 
     18 CA          0.2308  -22.4884  -46.4787 C.3       11 UNK         0.1400 
     19 N           0.4765  -22.1282  -45.0792 N.am      11 UNK        -0.5000 
     20 C           0.0488  -22.8054  -44.0056 C.2       10 UNK         0.5000 
     21 O          -0.6108  -23.8428  -44.0682 O.2       10 UNK        -0.5000 
     22 CA          0.3876  -22.1923  -42.6342 C.3       10 UNK         0.1400 
     23 CB          1.8546  -22.4550  -42.2613 C.3       10 UNK        -0.1800 
     24 N           0.1240  -20.7530  -42.6036 N.am      10 UNK        -0.5000 
     25 C          -1.1034  -20.2141  -42.6321 C.2       9 UNK         0.5000 
     26 O          -2.1385  -20.8774  -42.5727 O.2       9 UNK        -0.5000 
     27 CA         -1.1952  -18.6838  -42.7826 C.3       9 UNK         0.1400 
     28 CB         -1.1043  -17.9978  -41.4112 C.3       9 UNK        -0.1800 
     29 N          -0.1726  -18.1317  -43.6715 N.am      9 UNK        -0.5000 
     30 C          -0.0544  -18.4057  -44.9769 C.2       8 UNK         0.5000 
     31 O          -0.8092  -19.1586  -45.5850 O.2       8 UNK        -0.5000 
     32 CA          1.1458  -17.7912  -45.7161 C.3       8 UNK         0.1400 
     33 CB          0.8639  -16.3465  -46.1467 C.3       8 UNK        -0.1800 
     34 N           2.3627  -17.8435  -44.9092 N.am      8 UNK        -0.5000 
     35 C           3.0179  -18.9734  -44.6102 C.2       7 UNK         0.5000 
     36 O           2.6745  -20.0887  -45.0036 O.2       7 UNK        -0.5000 
     37 CA          4.2364  -18.8334  -43.6809 C.3       7 UNK         0.1400 
     38 CB          5.4702  -18.3656  -44.4671 C.3       7 UNK        -0.1800 
     39 N           3.9873  -17.9133  -42.5698 N.am      7 UNK        -0.5000 
     40 C           3.1194  -18.1544  -41.5777 C.2       6 UNK         0.5000 
     41 O           2.4551  -19.1871  -41.4860 O.2       6 UNK        -0.5000 
     42 CA          2.9348  -17.0379  -40.5323 C.3       6 UNK         0.1400 
     43 CB          4.0289  -17.1211  -39.4573 C.3       6 UNK        -0.1800 
     44 N           2.8975  -15.6773  -41.0837 N.am      6 UNK        -0.5000 
     45 C           2.0367  -15.2517  -42.0177 C.2       5 UNK         0.5000 
     46 O           1.2795  -15.9958  -42.6397 O.2       5 UNK        -0.5000 
     47 CA          2.0202  -13.7450  -42.3281 C.3       5 UNK         0.1400 
     48 CB          2.8416  -13.4495  -43.5924 C.3       5 UNK        -0.1800 
     49 N           0.6503  -13.2727  -42.5329 N.am      5 UNK        -0.5000 
     50 C          -0.3040  -13.2415  -41.5902 C.2       4 UNK         0.5000 
     51 O          -0.0961  -13.4915  -40.4019 O.2       4 UNK        -0.5000 
     52 CA         -1.7290  -12.8594  -42.0400 C.3       4 UNK         0.1400 
     53 CB         -2.0454  -11.4085  -41.6457 C.3       4 UNK        -0.1800 
     54 N          -1.9343  -13.0063  -43.4809 N.am      4 UNK        -0.5000 
     55 C          -2.1093  -14.1612  -44.1336 C.2       3 UNK         0.5000 
     56 O          -2.1977  -15.2514  -43.5716 O.2       3 UNK        -0.5000 
     57 CA         -2.1624  -14.1015  -45.6746 C.3       3 UNK         0.1400 
     58 CB         -3.6124  -14.0194  -46.1867 C.3       3 UNK        -0.1800 
     59 N          -1.3133  -13.0597  -46.2764 N.am      3 UNK        -0.5000 
     60 C          -1.4380  -11.7254  -46.2353 C.2       2 UNK         0.5000 
     61 O          -2.3433  -11.1485  -45.6331 O.2       2 UNK        -0.5000 
     62 CA         -0.3676  -10.8746  -46.9512 C.3       2 UNK         0.1400 
     63 CB          0.6616  -10.3371  -45.9374 C.3       2 UNK        -0.1800 
     64 N           0.3020  -11.5155  -48.0938 N.am      2 UNK        -0.5000 
     65 C           1.1356  -12.5670  -48.1061 C.2       1 UNK         0.5000 
     66 O           1.4265  -13.2140  -47.1008 O.2       1 UNK        -0.5000 
     67 C          -1.2751  -22.4863  -46.8381 C.2       11 UNK         0.5000 
     68 O          -1.7076  -23.3365  -47.6163 O.2       11 UNK        -0.5000 
     69 N          -2.0637  -21.5940  -46.2201 N.am      12 UNK        -0.5000 
     70 CA         -3.5181  -21.4635  -46.3748 C.3       12 UNK         0.1400 
     71 CB         -4.0198  -20.2798  -45.5320 C.3       12 UNK        -0.1800 
     72 C          -4.3318  -22.7281  -46.0270 C.2       12 UNK         0.5000 
     73 O          -5.4853  -22.8279  -46.4448 O.2       12 UNK        -0.5000 
     74 N          -3.7323  -23.6800  -45.2957 N.am      13 UNK        -0.5000 
     75 CA         -4.2974  -25.0094  -45.0546 C.3       13 UNK         0.1400 
     76 CB         -3.4606  -25.7281  -43.9862 C.3       13 UNK        -0.1800 
     77 C          -4.3850  -25.8626  -46.3382 C.2       13 UNK         0.5000 
     78 O          -5.2786  -26.7035  -46.4438 O.2       13 UNK        -0.5000 
     79 N          -3.4708  -25.6209  -47.2872 N.am      14 UNK        -0.5000 
     80 CA         -3.4613  -26.2159  -48.6213 C.3       14 UNK         0.1400 
     81 CB         -2.0217  -26.6159  -48.9777 C.3       14 UNK        -0.1800 
     82 C          -4.0245  -25.2323  -49.6609 C.2       14 UNK         0.5000 
     83 O          -4.7850  -25.6515  -50.5348 O.2       14 UNK        -0.5000 
     84 N          -3.6449  -23.9489  -49.5431 N.am      15 UNK        -0.5000 
     85 CA         -4.0244  -22.8149  -50.3913 C.3       15 UNK         0.1400 
     86 CB         -5.4643  -22.3583  -50.0710 C.3       15 UNK        -0.1800 
     87 C          -3.7825  -23.1197  -51.8815 C.2       15 UNK         0.5000 
     88 O          -2.6254  -23.2252  -52.2881 O.2       15 UNK        -0.5000 
     89 N          -4.8643  -23.3176  -52.6487 N.am      16 UNK        -0.5000 
     90 CA         -4.8680  -23.6334  -54.0796 C.3       16 UNK         0.1400 
     91 CB         -6.3256  -23.7676  -54.5474 C.3       16 UNK        -0.1800 
     92 C          -4.0800  -24.9038  -54.4596 C.2       16 UNK         0.5000 
     93 O          -3.6204  -25.0111  -55.5968 O.2       16 UNK        -0.5000 
     94 N          -3.9348  -25.8416  -53.5125 N.am      17 UNK        -0.5000 
     95 CA         -3.1464  -27.0619  -53.6813 C.3       17 UNK         0.1400 
     96 CB         -3.6240  -28.1108  -52.6649 C.3       17 UNK        -0.1800 
     97 C          -1.6262  -26.8298  -53.5553 C.2       17 UNK         0.5000 
     98 O          -0.8604  -27.6955  -53.9814 O.2       17 UNK        -0.5000 
     99 N          -1.2118  -25.6949  -52.9740 N.am      18 UNK        -0.5000 
    100 CA         0.1890  -25.3335  -52.7552 C.3       18 UNK         0.1400 
    101 CB         0.4053  -25.0267  -51.2651 C.3       18 UNK        -0.1800 
    102 C          0.6181  -24.1364  -53.6179 C.2       18 UNK         0.5000 
    103 O          1.7086  -24.1701  -54.1902 O.2       18 UNK        -0.5000 
    104 N         -0.2263  -23.1019  -53.6947 N.am      19 UNK        -0.5000 
    105 CA         0.0505  -21.8431  -54.3781 C.3       19 UNK         0.1400 
    106 CB         0.9707  -20.9638  -53.5035 C.3       19 UNK        -0.1800 
    107 C         -1.2784  -21.1703  -54.7649 C.2       19 UNK         0.5000 
    108 O         -2.0886  -21.7894  -55.4561 O.2       19 UNK        -0.5000 
    109 N         -1.4703  -19.9120  -54.3485 N.am      20 UNK        -0.5000 
    110 CA        -2.6629  -19.1092  -54.6048 C.3       20 UNK         0.1400 
    111 CB        -2.3626  -17.6488  -54.2325 C.3       20 UNK        -0.1800 
    112 C         -3.8774  -19.6141  -53.8091 C.2       20 UNK         0.5000 
    113 O         -3.7295  -20.0424  -52.6629 O.2       20 UNK        -0.5000 
    114 N         -5.0685  -19.4940  -54.4069 N.am      21 UNK        -0.5000 
    115 CA        -6.3605  -19.8345  -53.8080 C.3       21 UNK         0.1400 
    116 CB        -7.3817  -20.0530  -54.9393 C.3       21 UNK        -0.1800 
    117 C         -6.8189  -18.7674  -52.7900 C.2       21 UNK         0.5000 
    118 O         -7.8485  -18.1191  -52.9845 O.2       21 UNK        -0.5000 
    119 N         -6.0182  -18.5836  -51.7361 N.am      22 UNK        -0.5000 
    120 CA        -6.2079  -17.5853  -50.6743 C.3       22 UNK         0.1400 
    121 C         -7.3446  -17.8912  -49.6523 C.2       22 UNK         0.5000 
    122 N         -7.9633  -19.0656  -49.6714 N.am      22 UNK        -0.7600 
    123 O         -7.6830  -17.0373  -48.8372 O.2       22 UNK        -0.5000 
    124 C124       -4.8624  -17.2522  -49.9811 C.3       23 UNK        -0.0398 
    125 S125       -4.0990  -18.6725  -49.1225 S.3       23 UNK        -0.2404 
    126 C126       -2.6249  -17.8796  -48.4140 C.3       23 UNK        -0.0205 
    127 H127        1.5254  -10.1446  -52.2881 H         1 UNK         0.0600 
    128 H128        3.2408   -9.7478  -52.1571 H         1 UNK         0.0600 
    129 H129        2.0534   -8.8653  -51.1912 H         1 UNK         0.0600 
    130 H130        1.0196  -12.0381  -51.2255 H         1 UNK         0.3000 
    131 H131        2.7544  -13.2664  -49.3017 H         1 UNK         0.0600 
    132 H132        1.0191  -15.0543  -49.2145 H         1 UNK         0.0800 
    133 H133       -0.0846  -14.0534  -50.1306 H         1 UNK         0.0800 
    134 H134       -0.5575  -15.3952  -52.2856 H         1 UNK         0.0800 
    135 H135        0.6046  -16.4611  -53.0334 H         1 UNK         0.0800 
    136 H136       -1.7919  -16.1525  -50.3597 H         1 UNK         0.1150 
    137 H137       -0.8017  -19.8534  -48.4777 H         1 UNK         0.1150 
    138 H138        1.7421  -18.2589  -51.5514 H         1 UNK         0.1150 
    139 H139        2.0471  -20.5631  -50.8243 H         1 UNK         0.0800 
    140 H140        2.4170  -20.0079  -49.2199 H         1 UNK         0.0800 
    141 H141        2.1456  -21.7375  -47.1542 H         1 UNK         0.0800 
    142 H142        0.8824  -20.5532  -47.2102 H         1 UNK         0.0800 
    143 H143        0.5736  -23.5177  -46.6031 H         1 UNK         0.0600 
    144 H144        1.0417  -21.2987  -44.9296 H         1 UNK         0.3000 
    145 H145       -0.2440  -22.6746  -41.8853 H         1 UNK         0.0600 
    146 H146        2.0769  -22.0857  -41.2600 H         1 UNK         0.0600 
    147 H147        2.0751  -23.5231  -42.2712 H         1 UNK         0.0600 
    148 H148        2.5425  -21.9698  -42.9544 H         1 UNK         0.0600 
    149 H149        0.9294  -20.1374  -42.5801 H         1 UNK         0.3000 
    150 H150       -2.1690  -18.4495  -43.2176 H         1 UNK         0.0600 
    151 H151       -1.8858  -18.3579  -40.7413 H         1 UNK         0.0600 
    152 H152       -1.2245  -16.9178  -41.5021 H         1 UNK         0.0600 
    153 H153       -0.1445  -18.1874  -40.9308 H         1 UNK         0.0600 
    154 H154        0.4600  -17.4458  -43.2618 H         1 UNK         0.3000 
    155 H155        1.3190  -18.3723  -46.6234 H         1 UNK         0.0600 
    156 H156        1.7243  -15.9151  -46.6582 H         1 UNK         0.0600 
    157 H157        0.6226  -15.7065  -45.2974 H         1 UNK         0.0600 
    158 H158        0.0264  -16.3120  -46.8438 H         1 UNK         0.0600 
    159 H159        2.6620  -16.9795  -44.4821 H         1 UNK         0.3000 
    160 H160        4.4516  -19.8201  -43.2648 H         1 UNK         0.0600 
    161 H161        5.3292  -17.3688  -44.8867 H         1 UNK         0.0600 
    162 H162        5.6846  -19.0432  -45.2947 H         1 UNK         0.0600 
    163 H163        6.3557  -18.3404  -43.8317 H         1 UNK         0.0600 
    164 H164        4.4871  -17.0365  -42.5736 H         1 UNK         0.3000 
    165 H165        1.9732  -17.2112  -40.0452 H         1 UNK         0.0600 
    166 H166        5.0156  -16.9048  -39.8687 H         1 UNK         0.0600 
    167 H167        3.8406  -16.4167  -38.6468 H         1 UNK         0.0600 
    168 H168        4.0683  -18.1179  -39.0158 H         1 UNK         0.0600 
    169 H169        3.5007  -15.0018  -40.6370 H         1 UNK         0.3000 
    170 H170        2.4522  -13.1990  -41.4870 H         1 UNK         0.0600 
    171 H171        3.8747  -13.7788  -43.4746 H         1 UNK         0.0600 
    172 H172        2.4328  -13.9568  -44.4677 H         1 UNK         0.0600 
    173 H173        2.8646  -12.3810  -43.8074 H         1 UNK         0.0600 
    174 H174        0.3768  -13.0864  -43.4850 H         1 UNK         0.3000 
    175 H175       -2.4270  -13.5185  -41.5195 H         1 UNK         0.0600 
    176 H176       -3.0717  -11.1452  -41.9023 H         1 UNK         0.0600 
    177 H177       -1.9319  -11.2607  -40.5709 H         1 UNK         0.0600 
    178 H178       -1.3824  -10.7021  -42.1471 H         1 UNK         0.0600 
    179 H179       -1.9504  -12.1556  -44.0347 H         1 UNK         0.3000 
    180 H180       -1.7584  -15.0497  -46.0281 H         1 UNK         0.0600 
    181 H181       -3.6471  -14.0365  -47.2760 H         1 UNK         0.0600 
    182 H182       -4.1970  -14.8684  -45.8302 H         1 UNK         0.0600 
    183 H183       -4.1161  -13.1142  -45.8473 H         1 UNK         0.0600 
    184 H184       -0.4570  -13.3980  -46.7044 H         1 UNK         0.3000 
    185 H185       -0.8943  -10.0146  -47.3679 H         1 UNK         0.0600 
    186 H186        1.3882   -9.6851  -46.4221 H         1 UNK         0.0600 
    187 H187        0.1719   -9.7535  -45.1568 H         1 UNK         0.0600 
    188 H188        1.2090  -11.1410  -45.4447 H         1 UNK         0.0600 
    189 H189        0.1123  -11.0852  -48.9880 H         1 UNK         0.3000 
    190 H190       -1.6128  -20.8745  -45.6612 H         1 UNK         0.3000 
    191 H191       -3.7054  -21.2386  -47.4261 H         1 UNK         0.0600 
    192 H192       -5.0751  -20.0851  -45.7268 H         1 UNK         0.0600 
    193 H193       -3.4797  -19.3620  -45.7545 H         1 UNK         0.0600 
    194 H194       -3.9167  -20.4758  -44.4653 H         1 UNK         0.0600 
    195 H195       -2.7864  -23.5216  -44.9721 H         1 UNK         0.3000 
    196 H196       -5.3107  -24.8829  -44.6678 H         1 UNK         0.0600 
    197 H197       -3.8930  -26.6988  -43.7401 H         1 UNK         0.0600 
    198 H198       -3.4139  -25.1487  -43.0639 H         1 UNK         0.0600 
    199 H199       -2.4387  -25.9011  -44.3258 H         1 UNK         0.0600 
    200 H200       -2.7957  -24.8796  -47.1300 H         1 UNK         0.3000 
    201 H201       -4.0785  -27.1165  -48.6435 H         1 UNK         0.0600 
    202 H202       -1.6537  -27.3915  -48.3062 H         1 UNK         0.0600 
    203 H203       -1.3416  -25.7668  -48.9078 H         1 UNK         0.0600 
    204 H204       -1.9570  -27.0068  -49.9932 H         1 UNK         0.0600 
    205 H205       -2.9516  -23.7299  -48.8303 H         1 UNK         0.3000 
    206 H206       -3.3527  -21.9931  -50.1364 H         1 UNK         0.0600 
    207 H207       -5.5424  -22.0218  -49.0379 H         1 UNK         0.0600 
    208 H208       -5.7569  -21.5153  -50.6980 H         1 UNK         0.0600 
    209 H209       -6.1937  -23.1566  -50.2114 H         1 UNK         0.0600 
    210 H210       -5.7671  -23.2785  -52.2003 H         1 UNK         0.3000 
    211 H211       -4.4132  -22.7897  -54.6007 H         1 UNK         0.0600 
    212 H212       -6.8188  -24.6206  -54.0793 H         1 UNK         0.0600 
    213 H213       -6.3766  -23.9114  -55.6275 H         1 UNK         0.0600 
    214 H214       -6.9080  -22.8787  -54.3114 H         1 UNK         0.0600 
    215 H215       -4.3427  -25.6835  -52.5967 H         1 UNK         0.3000 
    216 H216       -3.3312  -27.4606  -54.6811 H         1 UNK         0.0600 
    217 H217       -3.0869  -29.0516  -52.7914 H         1 UNK         0.0600 
    218 H218       -4.6857  -28.3246  -52.7890 H         1 UNK         0.0600 
    219 H219       -3.4682  -27.7807  -51.6388 H         1 UNK         0.0600 
    220 H220       -1.9001  -25.0013  -52.7001 H         1 UNK         0.3000 
    221 H221        0.8468  -26.1653  -53.0157 H         1 UNK         0.0600 
    222 H222        0.2934  -25.9282  -50.6643 H         1 UNK         0.0600 
    223 H223        1.4097  -24.6422  -51.0824 H         1 UNK         0.0600 
    224 H224       -0.3032  -24.2834  -50.8965 H         1 UNK         0.0600 
    225 H225       -1.1243  -23.1465  -53.2128 H         1 UNK         0.3000 
    226 H226        0.5676  -22.0572  -55.3156 H         1 UNK         0.0600 
    227 H227        0.4885  -20.7162  -52.5581 H         1 UNK         0.0600 
    228 H228        1.9069  -21.4727  -53.2743 H         1 UNK         0.0600 
    229 H229        1.2332  -20.0325  -54.0068 H         1 UNK         0.0600 
    230 H230       -0.7777  -19.4982  -53.7429 H         1 UNK         0.3000 
    231 H231       -2.8879  -19.1616  -55.6721 H         1 UNK         0.0600 
    232 H232       -3.2139  -17.0047  -54.4561 H         1 UNK         0.0600 
    233 H233       -1.5087  -17.2637  -54.7903 H         1 UNK         0.0600 
    234 H234       -2.1453  -17.5443  -53.1687 H         1 UNK         0.0600 
    235 H235       -5.1073  -19.0891  -55.3312 H         1 UNK         0.3000 
    236 H236       -6.2565  -20.7749  -53.2642 H         1 UNK         0.0600 
    237 H237       -7.5478  -19.1415  -55.5150 H         1 UNK         0.0600 
    238 H238       -7.0472  -20.8258  -55.6315 H         1 UNK         0.0600 
    239 H239       -8.3455  -20.3706  -54.5396 H         1 UNK         0.0600 
    240 H240       -5.1670  -19.1361  -51.6819 H         1 UNK         0.3000 
    241 H241       -6.5273  -16.6676  -51.1719 H         1 UNK         0.0600 
    242 H242       -8.7010  -19.2482  -49.0097 H         1 UNK         0.3800 
    243 H243       -7.6995  -19.7711  -50.3381 H         1 UNK         0.3800 
    244 H244       -4.1549  -16.8837  -50.7248 H         1 UNK         0.0800 
    245 H245       -4.9964  -16.4375  -49.2673 H         1 UNK         0.0800 
    246 H246       -2.8269  -16.8333  -48.1807 H         1 UNK         0.0800 
    247 H247       -2.3994  -18.3560  -47.4623 H         1 UNK         0.0800 
@<TRIPOS>BOND
     1    1    2 1    
     2    1  127 1    
     3    1  128 1    
     4    1  129 1    
     5    2    3 2    
     6    2    4 am   BACKBONE|DICT|INTERRES
     7    4    5 1    
     8    4  130 1    
     9    5    6 1    
    10    5   65 1    
    11    5  131 1    
    12    6    7 1    
    13    6  132 1    
    14    6  133 1    
    15    7    8 1    
    16    8    9 1    
    17    8  134 1    
    18    8  135 1    
    19    9   10 ar   
    20    9   14 ar   
    21   10   11 ar   
    22   10  136 1    
    23   11   12 ar   
    24   11  126 1    
    25   12   13 ar   
    26   12  137 1    
    27   13   14 ar   
    28   13   15 1    
    29   14  138 1    
    30   15   16 1    
    31   15  139 1    
    32   15  140 1    
    33   16   17 1    
    34   17   18 1    
    35   17  141 1    
    36   17  142 1    
    37   18   19 1    
    38   18   67 1    
    39   18  143 1    
    40   19   20 am   BACKBONE|DICT|INTERRES
    41   19  144 1    
    42   20   21 2    
    43   20   22 1    
    44   22   23 1    
    45   22   24 1    
    46   22  145 1    
    47   23  146 1    
    48   23  147 1    
    49   23  148 1    
    50   24   25 am   BACKBONE|DICT|INTERRES
    51   24  149 1    
    52   25   26 2    
    53   25   27 1    
    54   27   28 1    
    55   27   29 1    
    56   27  150 1    
    57   28  151 1    
    58   28  152 1    
    59   28  153 1    
    60   29   30 am   BACKBONE|DICT|INTERRES
    61   29  154 1    
    62   30   31 2    
    63   30   32 1    
    64   32   33 1    
    65   32   34 1    
    66   32  155 1    
    67   33  156 1    
    68   33  157 1    
    69   33  158 1    
    70   34   35 am   BACKBONE|DICT|INTERRES
    71   34  159 1    
    72   35   36 2    
    73   35   37 1    
    74   37   38 1    
    75   37   39 1    
    76   37  160 1    
    77   38  161 1    
    78   38  162 1    
    79   38  163 1    
    80   39   40 am   BACKBONE|DICT|INTERRES
    81   39  164 1    
    82   40   41 2    
    83   40   42 1    
    84   42   43 1    
    85   42   44 1    
    86   42  165 1    
    87   43  166 1    
    88   43  167 1    
    89   43  168 1    
    90   44   45 am   BACKBONE|DICT|INTERRES
    91   44  169 1    
    92   45   46 2    
    93   45   47 1    
    94   47   48 1    
    95   47   49 1    
    96   47  170 1    
    97   48  171 1    
    98   48  172 1    
    99   48  173 1    
   100   49   50 am   BACKBONE|DICT|INTERRES
   101   49  174 1    
   102   50   51 2    
   103   50   52 1    
   104   52   53 1    
   105   52   54 1    
   106   52  175 1    
   107   53  176 1    
   108   53  177 1    
   109   53  178 1    
   110   54   55 am   BACKBONE|DICT|INTERRES
   111   54  179 1    
   112   55   56 2    
   113   55   57 1    
   114   57   58 1    
   115   57   59 1    
   116   57  180 1    
   117   58  181 1    
   118   58  182 1    
   119   58  183 1    
   120   59   60 am   BACKBONE|DICT|INTERRES
   121   59  184 1    
   122   60   61 2    
   123   60   62 1    
   124   62   63 1    
   125   62   64 1    
   126   62  185 1    
   127   63  186 1    
   128   63  187 1    
   129   63  188 1    
   130   64   65 am   BACKBONE|DICT|INTERRES
   131   64  189 1    
   132   65   66 2    
   133   67   68 2    
   134   67   69 am   BACKBONE|DICT|INTERRES
   135   69   70 1    
   136   69  190 1    
   137   70   71 1    
   138   70   72 1    
   139   70  191 1    
   140   71  192 1    
   141   71  193 1    
   142   71  194 1    
   143   72   73 2    
   144   72   74 am   BACKBONE|DICT|INTERRES
   145   74   75 1    
   146   74  195 1    
   147   75   76 1    
   148   75   77 1    
   149   75  196 1    
   150   76  197 1    
   151   76  198 1    
   152   76  199 1    
   153   77   78 2    
   154   77   79 am   BACKBONE|DICT|INTERRES
   155   79   80 1    
   156   79  200 1    
   157   80   81 1    
   158   80   82 1    
   159   80  201 1    
   160   81  202 1    
   161   81  203 1    
   162   81  204 1    
   163   82   83 2    
   164   82   84 am   BACKBONE|DICT|INTERRES
   165   84   85 1    
   166   84  205 1    
   167   85   86 1    
   168   85   87 1    
   169   85  206 1    
   170   86  207 1    
   171   86  208 1    
   172   86  209 1    
   173   87   88 2    
   174   87   89 am   BACKBONE|DICT|INTERRES
   175   89   90 1    
   176   89  210 1    
   177   90   91 1    
   178   90   92 1    
   179   90  211 1    
   180   91  212 1    
   181   91  213 1    
   182   91  214 1    
   183   92   93 2    
   184   92   94 am   BACKBONE|DICT|INTERRES
   185   94   95 1    
   186   94  215 1    
   187   95   96 1    
   188   95   97 1    
   189   95  216 1    
   190   96  217 1    
   191   96  218 1    
   192   96  219 1    
   193   97   98 2    
   194   97   99 am   BACKBONE|DICT|INTERRES
   195   99  100 1    
   196   99  220 1    
   197  100  101 1    
   198  100  102 1    
   199  100  221 1    
   200  101  222 1    
   201  101  223 1    
   202  101  224 1    
   203  102  103 2    
   204  102  104 am   BACKBONE|DICT|INTERRES
   205  104  105 1    
   206  104  225 1    
   207  105  106 1    
   208  105  107 1    
   209  105  226 1    
   210  106  227 1    
   211  106  228 1    
   212  106  229 1    
   213  107  108 2    
   214  107  109 am   BACKBONE|DICT|INTERRES
   215  109  110 1    
   216  109  230 1    
   217  110  111 1    
   218  110  112 1    
   219  110  231 1    
   220  111  232 1    
   221  111  233 1    
   222  111  234 1    
   223  112  113 2    
   224  112  114 am   BACKBONE|DICT|INTERRES
   225  114  115 1    
   226  114  235 1    
   227  115  116 1    
   228  115  117 1    
   229  115  236 1    
   230  116  237 1    
   231  116  238 1    
   232  116  239 1    
   233  117  118 2    
   234  117  119 am   BACKBONE|DICT|INTERRES
   235  119  120 1    
   236  119  240 1    
   237  120  121 1    
   238  120  124 1    
   239  120  241 1    
   240  121  122 am   BACKBONE|DICT|INTERRES
   241  121  123 2    
   242  122  242 1    
   243  122  243 1    
   244  124  125 1    
   245  124  244 1    
   246  124  245 1    
   247  125  126 1    
   248  126  246 1    
   249  126  247 1    
@<TRIPOS>SUBSTRUCTURE
     1 UNK         1 GROUP             0       ****    0 ROOT    
