@<TRIPOS>MOLECULE
3R540
247   249    1
SMALL
USER_CHARGES


@<TRIPOS>ATOM
      1 CA          2.8167  -10.6347  -49.0906 C.3       0 UNK        -0.1800 
      2 C           1.8560  -11.7171  -48.6229 C.2       0 UNK         0.5000 
      3 O           1.5934  -11.8234  -47.4243 O.2       0 UNK        -0.5000 
      4 N           1.3084  -12.5031  -49.5596 N.am      1 UNK        -0.5000 
      5 CA          0.3788  -13.6233  -49.3410 C.3       1 UNK         0.1400 
      6 C6          0.4034  -14.5939  -50.5519 C.3       23 UNK        -0.0398 
      7 S7         -0.0295  -16.3140  -50.1134 S.3       23 UNK        -0.2404 
      8 C8          1.2940  -17.2427  -50.9517 C.3       23 UNK        -0.0205 
      9 C9          0.7933  -18.5833  -51.4618 C.ar      23 UNK        -0.0193 
     10 C10         0.1543  -18.6572  -52.7011 C.ar      23 UNK        -0.1150 
     11 C11        -0.3078  -19.8803  -53.1921 C.ar      23 UNK        -0.0193 
     12 C12        -0.1178  -21.0371  -52.4322 C.ar      23 UNK        -0.1150 
     13 C13         0.5343  -20.9868  -51.1954 C.ar      23 UNK        -0.0193 
     14 C14         0.9822  -19.7484  -50.7138 C.ar      23 UNK        -0.1150 
     15 C15         0.7103  -22.2915  -50.4185 C.3       23 UNK        -0.0205 
     16 S16         2.1071  -22.3261  -49.2398 S.3       23 UNK        -0.2404 
     17 C17         1.3269  -21.6865  -47.7178 C.3       23 UNK        -0.0398 
     18 CA          0.9021  -22.8243  -46.7568 C.3       11 UNK         0.1400 
     19 N           0.7754  -22.3717  -45.3701 N.am      11 UNK        -0.5000 
     20 C           0.5656  -23.1802  -44.3204 C.2       10 UNK         0.5000 
     21 O           0.5120  -24.4075  -44.4001 O.2       10 UNK        -0.5000 
     22 CA          0.3208  -22.5030  -42.9604 C.3       10 UNK         0.1400 
     23 CB          1.6456  -22.0693  -42.3160 C.3       10 UNK        -0.1800 
     24 N          -0.5845  -21.3576  -43.0623 N.am      10 UNK        -0.5000 
     25 C          -1.8658  -21.4427  -43.4494 C.2       9 UNK         0.5000 
     26 O          -2.4335  -22.5057  -43.7025 O.2       9 UNK        -0.5000 
     27 CA         -2.6311  -20.1190  -43.6279 C.3       9 UNK         0.1400 
     28 CB         -3.1284  -19.5931  -42.2735 C.3       9 UNK        -0.1800 
     29 N          -1.8445  -19.0853  -44.3051 N.am      9 UNK        -0.5000 
     30 C          -1.3555  -19.1939  -45.5494 C.2       8 UNK         0.5000 
     31 O          -1.5280  -20.1796  -46.2630 O.2       8 UNK        -0.5000 
     32 CA         -0.4620  -18.0470  -46.0571 C.3       8 UNK         0.1400 
     33 CB         -1.2932  -16.8178  -46.4550 C.3       8 UNK        -0.1800 
     34 N           0.5513  -17.6673  -45.0734 N.am      8 UNK        -0.5000 
     35 C           1.5087  -18.4884  -44.6179 C.2       7 UNK         0.5000 
     36 O           1.6823  -19.6354  -45.0288 O.2       7 UNK        -0.5000 
     37 CA          2.3836  -17.9584  -43.4713 C.3       7 UNK         0.1400 
     38 CB          3.5070  -17.0597  -44.0084 C.3       7 UNK        -0.1800 
     39 N           1.5902  -17.2315  -42.4800 N.am      7 UNK        -0.5000 
     40 C           0.7177  -17.8123  -41.6436 C.2       6 UNK         0.5000 
     41 O           0.5159  -19.0255  -41.6007 O.2       6 UNK        -0.5000 
     42 CA         -0.0921  -16.8771  -40.7272 C.3       6 UNK         0.1400 
     43 CB          0.7174  -16.5102  -39.4747 C.3       6 UNK        -0.1800 
     44 N          -0.5189  -15.6532  -41.4063 N.am      6 UNK        -0.5000 
     45 C          -1.4009  -15.6174  -42.4149 C.2       5 UNK         0.5000 
     46 O          -1.9694  -16.6118  -42.8620 O.2       5 UNK        -0.5000 
     47 CA         -1.6573  -14.2462  -43.0636 C.3       5 UNK         0.1400 
     48 CB         -2.7467  -13.4838  -42.2955 C.3       5 UNK        -0.1800 
     49 N          -0.4600  -13.4091  -43.1648 N.am      5 UNK        -0.5000 
     50 C           0.6638  -13.7341  -43.8180 C.2       4 UNK         0.5000 
     51 O           0.8405  -14.8236  -44.3663 O.2       4 UNK        -0.5000 
     52 CA          1.7420  -12.6364  -43.8883 C.3       4 UNK         0.1400 
     53 CB          3.0339  -13.1101  -44.5771 C.3       4 UNK        -0.1800 
     54 N           1.2145  -11.4842  -44.6136 N.am      4 UNK        -0.5000 
     55 C           0.4957  -10.4911  -44.0739 C.2       3 UNK         0.5000 
     56 O           0.2685  -10.3898  -42.8677 O.2       3 UNK        -0.5000 
     57 CA         -0.1301   -9.4896  -45.0597 C.3       3 UNK         0.1400 
     58 CB          0.9284   -8.5133  -45.5961 C.3       3 UNK        -0.1800 
     59 N          -0.7729  -10.1739  -46.1822 N.am      3 UNK        -0.5000 
     60 C          -1.8928  -10.9091  -46.0940 C.2       2 UNK         0.5000 
     61 O          -2.5619  -11.0237  -45.0679 O.2       2 UNK        -0.5000 
     62 CA         -2.3065  -11.6718  -47.3597 C.3       2 UNK         0.1400 
     63 CB         -2.9938  -10.7215  -48.3606 C.3       2 UNK        -0.1800 
     64 N          -1.1189  -12.2972  -47.9350 N.am      2 UNK        -0.5000 
     65 C          -1.0465  -13.1339  -48.9723 C.2       1 UNK         0.5000 
     66 O          -2.0267  -13.4873  -49.6275 O.2       1 UNK        -0.5000 
     67 C          -0.3817  -23.5236  -47.2435 C.2       11 UNK         0.5000 
     68 O          -0.2968  -24.6229  -47.7876 O.2       11 UNK        -0.5000 
     69 N          -1.5426  -22.8954  -47.0099 N.am      12 UNK        -0.5000 
     70 CA         -2.8627  -23.4215  -47.3569 C.3       12 UNK         0.1400 
     71 CB         -3.9436  -22.3908  -46.9960 C.3       12 UNK        -0.1800 
     72 C          -3.1620  -24.7748  -46.6904 C.2       12 UNK         0.5000 
     73 O          -3.6321  -25.6924  -47.3635 O.2       12 UNK        -0.5000 
     74 N          -2.8412  -24.8858  -45.3937 N.am      13 UNK        -0.5000 
     75 CA         -2.9650  -26.1133  -44.6093 C.3       13 UNK         0.1400 
     76 CB         -2.7086  -25.8012  -43.1272 C.3       13 UNK        -0.1800 
     77 C          -2.0335  -27.2371  -45.1001 C.2       13 UNK         0.5000 
     78 O          -2.4657  -28.3877  -45.1746 O.2       13 UNK        -0.5000 
     79 N          -0.7842  -26.8868  -45.4371 N.am      14 UNK        -0.5000 
     80 CA          0.2214  -27.8127  -45.9591 C.3       14 UNK         0.1400 
     81 CB          1.6048  -27.1452  -45.9191 C.3       14 UNK        -0.1800 
     82 C          -0.1038  -28.3085  -47.3798 C.2       14 UNK         0.5000 
     83 O           0.0228  -29.5035  -47.6503 O.2       14 UNK        -0.5000 
     84 N          -0.5161  -27.3857  -48.2585 N.am      15 UNK        -0.5000 
     85 CA         -0.8663  -27.6626  -49.6516 C.3       15 UNK         0.1400 
     86 CB         -0.8583  -26.3433  -50.4418 C.3       15 UNK        -0.1800 
     87 C          -2.2286  -28.3606  -49.8113 C.2       15 UNK         0.5000 
     88 O          -2.4275  -29.0565  -50.8078 O.2       15 UNK        -0.5000 
     89 N          -3.1404  -28.1345  -48.8522 N.am      16 UNK        -0.5000 
     90 CA         -4.5643  -28.4877  -48.8795 C.3       16 UNK         0.1400 
     91 CB         -4.7644  -30.0175  -48.8594 C.3       16 UNK        -0.1800 
     92 C          -5.2823  -27.7824  -50.0499 C.2       16 UNK         0.5000 
     93 O          -6.0098  -28.4158  -50.8176 O.2       16 UNK        -0.5000 
     94 N          -5.0153  -26.4789  -50.1836 N.am      17 UNK        -0.5000 
     95 CA         -5.4285  -25.6248  -51.2923 C.3       17 UNK         0.1400 
     96 CB         -4.4490  -25.8140  -52.4681 C.3       17 UNK        -0.1800 
     97 C          -5.4716  -24.1626  -50.8197 C.2       17 UNK         0.5000 
     98 O          -5.1895  -23.8850  -49.6530 O.2       17 UNK        -0.5000 
     99 N          -5.8285  -23.2484  -51.7289 N.am      18 UNK        -0.5000 
    100 CA        -5.8171  -21.8038  -51.4942 C.3       18 UNK         0.1400 
    101 CB        -6.5925  -21.1142  -52.6286 C.3       18 UNK        -0.1800 
    102 C         -4.3860  -21.2362  -51.4038 C.2       18 UNK         0.5000 
    103 O         -3.4564  -21.8074  -51.9783 O.2       18 UNK        -0.5000 
    104 N         -4.2582  -20.0961  -50.7191 N.am      19 UNK        -0.5000 
    105 CA        -3.0368  -19.3088  -50.6064 C.3       19 UNK         0.1400 
    106 CB        -2.2718  -19.7088  -49.3352 C.3       19 UNK        -0.1800 
    107 C         -3.4583  -17.8365  -50.5819 C.2       19 UNK         0.5000 
    108 O         -3.9639  -17.3717  -49.5582 O.2       19 UNK        -0.5000 
    109 N         -3.3174  -17.1537  -51.7220 N.am      20 UNK        -0.5000 
    110 CA        -3.7258  -15.7658  -51.9197 C.3       20 UNK         0.1400 
    111 CB        -5.2708  -15.6558  -51.9514 C.3       20 UNK        -0.1800 
    112 C         -3.0354  -15.2118  -53.1801 C.2       20 UNK         0.5000 
    113 O         -1.8329  -15.4174  -53.3621 O.2       20 UNK        -0.5000 
    114 N         -3.8129  -14.5525  -54.0523 N.am      21 UNK        -0.5000 
    115 CA        -3.3993  -13.9169  -55.3099 C.3       21 UNK         0.1400 
    116 CB        -4.6054  -13.1647  -55.8950 C.3       21 UNK        -0.1800 
    117 C         -2.7903  -14.8686  -56.3627 C.2       21 UNK         0.5000 
    118 O         -2.2265  -14.3933  -57.3497 O.2       21 UNK        -0.5000 
    119 N         -2.8880  -16.1827  -56.1279 N.am      22 UNK        -0.5000 
    120 CA        -2.1377  -17.2346  -56.8274 C.3       22 UNK         0.1400 
    121 C         -0.5866  -17.1201  -56.7025 C.2       22 UNK         0.5000 
    122 N         -0.0504  -16.4341  -55.6979 N.am      22 UNK        -0.7600 
    123 O          0.1368  -17.6604  -57.5346 O.2       22 UNK        -0.5000 
    124 C124       -2.6366  -18.6468  -56.4155 C.3       23 UNK        -0.0398 
    125 S125       -2.5214  -18.9796  -54.6174 S.3       23 UNK        -0.2404 
    126 C126       -0.9806  -19.9520  -54.5544 C.3       23 UNK        -0.0205 
    127 H127        2.4378   -9.6517  -48.8108 H         1 UNK         0.0600 
    128 H128        2.9540  -10.6529  -50.1719 H         1 UNK         0.0600 
    129 H129        3.7905  -10.7719  -48.6207 H         1 UNK         0.0600 
    130 H130        1.5380  -12.3232  -50.5266 H         1 UNK         0.3000 
    131 H131        0.7500  -14.1717  -48.4719 H         1 UNK         0.0600 
    132 H132        1.4069  -14.6016  -50.9782 H         1 UNK         0.0800 
    133 H133       -0.2473  -14.2539  -51.3593 H         1 UNK         0.0800 
    134 H134        1.6805  -16.6751  -51.7993 H         1 UNK         0.0800 
    135 H135        2.1307  -17.3778  -50.2648 H         1 UNK         0.0800 
    136 H136        0.0094  -17.7575  -53.2819 H         1 UNK         0.1150 
    137 H137       -0.4797  -21.9846  -52.8066 H         1 UNK         0.1150 
    138 H138        1.4780  -19.6779  -49.7575 H         1 UNK         0.1150 
    139 H139       -0.2242  -22.5239  -49.9083 H         1 UNK         0.0800 
    140 H140        0.8733  -23.1052  -51.1269 H         1 UNK         0.0800 
    141 H141        0.4923  -21.0252  -47.9579 H         1 UNK         0.0800 
    142 H142        2.0739  -21.0567  -47.2340 H         1 UNK         0.0800 
    143 H143        1.6964  -23.5743  -46.7534 H         1 UNK         0.0600 
    144 H144        0.8435  -21.3702  -45.2114 H         1 UNK         0.3000 
    145 H145       -0.1482  -23.2394  -42.3045 H         1 UNK         0.0600 
    146 H146        1.4833  -21.6674  -41.3158 H         1 UNK         0.0600 
    147 H147        2.3281  -22.9145  -42.2201 H         1 UNK         0.0600 
    148 H148        2.1506  -21.3041  -42.9055 H         1 UNK         0.0600 
    149 H149       -0.2006  -20.4495  -42.8206 H         1 UNK         0.3000 
    150 H150       -3.5042  -20.3251  -44.2500 H         1 UNK         0.0600 
    151 H151       -3.7219  -20.3470  -41.7549 H         1 UNK         0.0600 
    152 H152       -3.7599  -18.7138  -42.4006 H         1 UNK         0.0600 
    153 H153       -2.3002  -19.3186  -41.6196 H         1 UNK         0.0600 
    154 H154       -1.6909  -18.2237  -43.7872 H         1 UNK         0.3000 
    155 H155        0.0592  -18.4018  -46.9490 H         1 UNK         0.0600 
    156 H156       -0.6586  -16.0233  -46.8483 H         1 UNK         0.0600 
    157 H157       -2.0142  -17.0722  -47.2334 H         1 UNK         0.0600 
    158 H158       -1.8498  -16.4136  -45.6099 H         1 UNK         0.0600 
    159 H159        0.5097  -16.7199  -44.7088 H         1 UNK         0.3000 
    160 H160        2.8450  -18.8150  -42.9753 H         1 UNK         0.0600 
    161 H161        3.1146  -16.2170  -44.5770 H         1 UNK         0.0600 
    162 H162        4.1646  -17.6205  -44.6736 H         1 UNK         0.0600 
    163 H163        4.1219  -16.6654  -43.1993 H         1 UNK         0.0600 
    164 H164        1.6478  -16.2242  -42.5021 H         1 UNK         0.3000 
    165 H165       -0.9863  -17.4170  -40.4086 H         1 UNK         0.0600 
    166 H166        0.1235  -15.9128  -38.7827 H         1 UNK         0.0600 
    167 H167        1.0343  -17.4063  -38.9393 H         1 UNK         0.0600 
    168 H168        1.6145  -15.9425  -39.7247 H         1 UNK         0.0600 
    169 H169       -0.0971  -14.7876  -41.1036 H         1 UNK         0.3000 
    170 H170       -2.0173  -14.4239  -44.0788 H         1 UNK         0.0600 
    171 H171       -3.6609  -14.0747  -42.2244 H         1 UNK         0.0600 
    172 H172       -2.4304  -13.2428  -41.2799 H         1 UNK         0.0600 
    173 H173       -3.0033  -12.5505  -42.7967 H         1 UNK         0.0600 
    174 H174       -0.5233  -12.4780  -42.7719 H         1 UNK         0.3000 
    175 H175        1.9946  -12.3468  -42.8663 H         1 UNK         0.0600 
    176 H176        3.5017  -13.9162  -44.0120 H         1 UNK         0.0600 
    177 H177        2.8453  -13.4780  -45.5865 H         1 UNK         0.0600 
    178 H178        3.7612  -12.3013  -44.6482 H         1 UNK         0.0600 
    179 H179        1.3325  -11.5131  -45.6237 H         1 UNK         0.3000 
    180 H180       -0.8886   -8.9147  -44.5242 H         1 UNK         0.0600 
    181 H181        1.7032   -9.0281  -46.1659 H         1 UNK         0.0600 
    182 H182        1.4191   -7.9832  -44.7789 H         1 UNK         0.0600 
    183 H183        0.4781   -7.7625  -46.2456 H         1 UNK         0.0600 
    184 H184       -0.2965  -10.1177  -47.0700 H         1 UNK         0.3000 
    185 H185       -3.0062  -12.4587  -47.0713 H         1 UNK         0.0600 
    186 H186       -3.8202  -10.1893  -47.8877 H         1 UNK         0.0600 
    187 H187       -2.3005   -9.9746  -48.7486 H         1 UNK         0.0600 
    188 H188       -3.4099  -11.2636  -49.2092 H         1 UNK         0.0600 
    189 H189       -0.2402  -12.0869  -47.4684 H         1 UNK         0.3000 
    190 H190       -1.5234  -21.9693  -46.5860 H         1 UNK         0.3000 
    191 H191       -2.8761  -23.5732  -48.4375 H         1 UNK         0.0600 
    192 H192       -3.9082  -22.1189  -45.9417 H         1 UNK         0.0600 
    193 H193       -4.9415  -22.7807  -47.1989 H         1 UNK         0.0600 
    194 H194       -3.8303  -21.4803  -47.5812 H         1 UNK         0.0600 
    195 H195       -2.4944  -24.0655  -44.9044 H         1 UNK         0.3000 
    196 H196       -3.9929  -26.4682  -44.7083 H         1 UNK         0.0600 
    197 H197       -2.8079  -26.6984  -42.5151 H         1 UNK         0.0600 
    198 H198       -3.4227  -25.0689  -42.7502 H         1 UNK         0.0600 
    199 H199       -1.7064  -25.4020  -42.9675 H         1 UNK         0.0600 
    200 H200       -0.4914  -25.9233  -45.3081 H         1 UNK         0.3000 
    201 H201        0.2505  -28.6845  -45.3021 H         1 UNK         0.0600 
    202 H202        1.8805  -26.8728  -44.9002 H         1 UNK         0.0600 
    203 H203        1.6334  -26.2392  -46.5255 H         1 UNK         0.0600 
    204 H204        2.3756  -27.8185  -46.2960 H         1 UNK         0.0600 
    205 H205       -0.5439  -26.4083  -47.9710 H         1 UNK         0.3000 
    206 H206       -0.1034  -28.3186  -50.0758 H         1 UNK         0.0600 
    207 H207        0.1139  -25.8532  -50.3836 H         1 UNK         0.0600 
    208 H208       -1.0729  -26.5171  -51.4969 H         1 UNK         0.0600 
    209 H209       -1.6074  -25.6452  -50.0650 H         1 UNK         0.0600 
    210 H210       -2.8833  -27.4937  -48.1099 H         1 UNK         0.3000 
    211 H211       -4.9990  -28.0874  -47.9625 H         1 UNK         0.0600 
    212 H212       -4.4079  -30.4900  -49.7749 H         1 UNK         0.0600 
    213 H213       -5.8203  -30.2686  -48.7540 H         1 UNK         0.0600 
    214 H214       -4.2370  -30.4711  -48.0202 H         1 UNK         0.0600 
    215 H215       -4.4893  -26.0044  -49.4563 H         1 UNK         0.3000 
    216 H216       -6.4369  -25.9019  -51.6059 H         1 UNK         0.0600 
    217 H217       -3.4415  -25.4911  -52.2025 H         1 UNK         0.0600 
    218 H218       -4.7581  -25.2411  -53.3427 H         1 UNK         0.0600 
    219 H219       -4.3929  -26.8586  -52.7749 H         1 UNK         0.0600 
    220 H220       -6.0156  -23.5454  -52.6749 H         1 UNK         0.3000 
    221 H221       -6.3301  -21.6055  -50.5504 H         1 UNK         0.0600 
    222 H222       -7.6183  -21.4788  -52.6851 H         1 UNK         0.0600 
    223 H223       -6.1209  -21.2832  -53.5977 H         1 UNK         0.0600 
    224 H224       -6.6409  -20.0356  -52.4729 H         1 UNK         0.0600 
    225 H225       -5.0748  -19.6731  -50.2990 H         1 UNK         0.3000 
    226 H226       -2.3988  -19.4784  -51.4731 H         1 UNK         0.0600 
    227 H227       -1.9783  -20.7580  -49.3596 H         1 UNK         0.0600 
    228 H228       -1.3651  -19.1149  -49.2221 H         1 UNK         0.0600 
    229 H229       -2.8756  -19.5485  -48.4427 H         1 UNK         0.0600 
    230 H230       -2.8567  -17.5880  -52.5121 H         1 UNK         0.3000 
    231 H231       -3.3538  -15.1783  -51.0799 H         1 UNK         0.0600 
    232 H232       -5.6999  -16.2316  -52.7725 H         1 UNK         0.0600 
    233 H233       -5.5959  -14.6199  -52.0552 H         1 UNK         0.0600 
    234 H234       -5.7179  -16.0226  -51.0279 H         1 UNK         0.0600 
    235 H235       -4.7918  -14.4600  -53.8225 H         1 UNK         0.3000 
    236 H236       -2.6268  -13.1855  -55.0645 H         1 UNK         0.0600 
    237 H237       -4.9841  -12.4191  -55.1956 H         1 UNK         0.0600 
    238 H238       -4.3342  -12.6376  -56.8108 H         1 UNK         0.0600 
    239 H239       -5.4226  -13.8450  -56.1380 H         1 UNK         0.0600 
    240 H240       -3.3630  -16.4750  -55.2879 H         1 UNK         0.3000 
    241 H241       -2.3574  -17.1140  -57.8898 H         1 UNK         0.0600 
    242 H242        0.9513  -16.3554  -55.6309 H         1 UNK         0.3800 
    243 H243       -0.6396  -16.0172  -54.9860 H         1 UNK         0.3800 
    244 H244       -2.1080  -19.4225  -56.9725 H         1 UNK         0.0800 
    245 H245       -3.6839  -18.7529  -56.7011 H         1 UNK         0.0800 
    246 H246       -1.2082  -20.9845  -54.8236 H         1 UNK         0.0800 
    247 H247       -0.2719  -19.5905  -55.2993 H         1 UNK         0.0800 
@<TRIPOS>BOND
     1    1    2 1    
     2    1  127 1    
     3    1  128 1    
     4    1  129 1    
     5    2    3 2    
     6    2    4 am   BACKBONE|DICT|INTERRES
     7    4    5 1    
     8    4  130 1    
     9    5    6 1    
    10    5   65 1    
    11    5  131 1    
    12    6    7 1    
    13    6  132 1    
    14    6  133 1    
    15    7    8 1    
    16    8    9 1    
    17    8  134 1    
    18    8  135 1    
    19    9   10 ar   
    20    9   14 ar   
    21   10   11 ar   
    22   10  136 1    
    23   11   12 ar   
    24   11  126 1    
    25   12   13 ar   
    26   12  137 1    
    27   13   14 ar   
    28   13   15 1    
    29   14  138 1    
    30   15   16 1    
    31   15  139 1    
    32   15  140 1    
    33   16   17 1    
    34   17   18 1    
    35   17  141 1    
    36   17  142 1    
    37   18   19 1    
    38   18   67 1    
    39   18  143 1    
    40   19   20 am   BACKBONE|DICT|INTERRES
    41   19  144 1    
    42   20   21 2    
    43   20   22 1    
    44   22   23 1    
    45   22   24 1    
    46   22  145 1    
    47   23  146 1    
    48   23  147 1    
    49   23  148 1    
    50   24   25 am   BACKBONE|DICT|INTERRES
    51   24  149 1    
    52   25   26 2    
    53   25   27 1    
    54   27   28 1    
    55   27   29 1    
    56   27  150 1    
    57   28  151 1    
    58   28  152 1    
    59   28  153 1    
    60   29   30 am   BACKBONE|DICT|INTERRES
    61   29  154 1    
    62   30   31 2    
    63   30   32 1    
    64   32   33 1    
    65   32   34 1    
    66   32  155 1    
    67   33  156 1    
    68   33  157 1    
    69   33  158 1    
    70   34   35 am   BACKBONE|DICT|INTERRES
    71   34  159 1    
    72   35   36 2    
    73   35   37 1    
    74   37   38 1    
    75   37   39 1    
    76   37  160 1    
    77   38  161 1    
    78   38  162 1    
    79   38  163 1    
    80   39   40 am   BACKBONE|DICT|INTERRES
    81   39  164 1    
    82   40   41 2    
    83   40   42 1    
    84   42   43 1    
    85   42   44 1    
    86   42  165 1    
    87   43  166 1    
    88   43  167 1    
    89   43  168 1    
    90   44   45 am   BACKBONE|DICT|INTERRES
    91   44  169 1    
    92   45   46 2    
    93   45   47 1    
    94   47   48 1    
    95   47   49 1    
    96   47  170 1    
    97   48  171 1    
    98   48  172 1    
    99   48  173 1    
   100   49   50 am   BACKBONE|DICT|INTERRES
   101   49  174 1    
   102   50   51 2    
   103   50   52 1    
   104   52   53 1    
   105   52   54 1    
   106   52  175 1    
   107   53  176 1    
   108   53  177 1    
   109   53  178 1    
   110   54   55 am   BACKBONE|DICT|INTERRES
   111   54  179 1    
   112   55   56 2    
   113   55   57 1    
   114   57   58 1    
   115   57   59 1    
   116   57  180 1    
   117   58  181 1    
   118   58  182 1    
   119   58  183 1    
   120   59   60 am   BACKBONE|DICT|INTERRES
   121   59  184 1    
   122   60   61 2    
   123   60   62 1    
   124   62   63 1    
   125   62   64 1    
   126   62  185 1    
   127   63  186 1    
   128   63  187 1    
   129   63  188 1    
   130   64   65 am   BACKBONE|DICT|INTERRES
   131   64  189 1    
   132   65   66 2    
   133   67   68 2    
   134   67   69 am   BACKBONE|DICT|INTERRES
   135   69   70 1    
   136   69  190 1    
   137   70   71 1    
   138   70   72 1    
   139   70  191 1    
   140   71  192 1    
   141   71  193 1    
   142   71  194 1    
   143   72   73 2    
   144   72   74 am   BACKBONE|DICT|INTERRES
   145   74   75 1    
   146   74  195 1    
   147   75   76 1    
   148   75   77 1    
   149   75  196 1    
   150   76  197 1    
   151   76  198 1    
   152   76  199 1    
   153   77   78 2    
   154   77   79 am   BACKBONE|DICT|INTERRES
   155   79   80 1    
   156   79  200 1    
   157   80   81 1    
   158   80   82 1    
   159   80  201 1    
   160   81  202 1    
   161   81  203 1    
   162   81  204 1    
   163   82   83 2    
   164   82   84 am   BACKBONE|DICT|INTERRES
   165   84   85 1    
   166   84  205 1    
   167   85   86 1    
   168   85   87 1    
   169   85  206 1    
   170   86  207 1    
   171   86  208 1    
   172   86  209 1    
   173   87   88 2    
   174   87   89 am   BACKBONE|DICT|INTERRES
   175   89   90 1    
   176   89  210 1    
   177   90   91 1    
   178   90   92 1    
   179   90  211 1    
   180   91  212 1    
   181   91  213 1    
   182   91  214 1    
   183   92   93 2    
   184   92   94 am   BACKBONE|DICT|INTERRES
   185   94   95 1    
   186   94  215 1    
   187   95   96 1    
   188   95   97 1    
   189   95  216 1    
   190   96  217 1    
   191   96  218 1    
   192   96  219 1    
   193   97   98 2    
   194   97   99 am   BACKBONE|DICT|INTERRES
   195   99  100 1    
   196   99  220 1    
   197  100  101 1    
   198  100  102 1    
   199  100  221 1    
   200  101  222 1    
   201  101  223 1    
   202  101  224 1    
   203  102  103 2    
   204  102  104 am   BACKBONE|DICT|INTERRES
   205  104  105 1    
   206  104  225 1    
   207  105  106 1    
   208  105  107 1    
   209  105  226 1    
   210  106  227 1    
   211  106  228 1    
   212  106  229 1    
   213  107  108 2    
   214  107  109 am   BACKBONE|DICT|INTERRES
   215  109  110 1    
   216  109  230 1    
   217  110  111 1    
   218  110  112 1    
   219  110  231 1    
   220  111  232 1    
   221  111  233 1    
   222  111  234 1    
   223  112  113 2    
   224  112  114 am   BACKBONE|DICT|INTERRES
   225  114  115 1    
   226  114  235 1    
   227  115  116 1    
   228  115  117 1    
   229  115  236 1    
   230  116  237 1    
   231  116  238 1    
   232  116  239 1    
   233  117  118 2    
   234  117  119 am   BACKBONE|DICT|INTERRES
   235  119  120 1    
   236  119  240 1    
   237  120  121 1    
   238  120  124 1    
   239  120  241 1    
   240  121  122 am   BACKBONE|DICT|INTERRES
   241  121  123 2    
   242  122  242 1    
   243  122  243 1    
   244  124  125 1    
   245  124  244 1    
   246  124  245 1    
   247  125  126 1    
   248  126  246 1    
   249  126  247 1    
@<TRIPOS>SUBSTRUCTURE
     1 UNK         1 GROUP             0       ****    0 ROOT    
