@<TRIPOS>MOLECULE
3R540
247   249    1
SMALL
USER_CHARGES


@<TRIPOS>ATOM
      1 CA         -1.8096  -12.7264  -44.1468 C.3       0 UNK        -0.1800 
      2 C          -0.7314  -12.7823  -45.2203 C.2       0 UNK         0.5000 
      3 O           0.0444  -13.7371  -45.2634 O.2       0 UNK        -0.5000 
      4 N          -0.6923  -11.7595  -46.0816 N.am      1 UNK        -0.5000 
      5 CA          0.2755  -11.5669  -47.1689 C.3       1 UNK         0.1400 
      6 C6          0.3006  -12.7270  -48.2099 C.3       23 UNK        -0.0398 
      7 S7         -1.3375  -12.9446  -48.9890 S.3       23 UNK        -0.2404 
      8 C8         -0.9506  -14.0014  -50.4185 C.3       23 UNK        -0.0205 
      9 C9         -1.3401  -15.4502  -50.1694 C.ar      23 UNK        -0.0193 
     10 C10        -2.6674  -15.8540  -50.3477 C.ar      23 UNK        -0.1150 
     11 C11        -3.0356  -17.1904  -50.1686 C.ar      23 UNK        -0.0193 
     12 C12        -2.0644  -18.1248  -49.8016 C.ar      23 UNK        -0.1150 
     13 C13        -0.7363  -17.7333  -49.6139 C.ar      23 UNK        -0.0193 
     14 C14        -0.3781  -16.3937  -49.7955 C.ar      23 UNK        -0.1150 
     15 C15         0.3066  -18.7675  -49.2290 C.3       23 UNK        -0.0205 
     16 S16         0.4938  -18.8580  -47.4247 S.3       23 UNK        -0.2404 
     17 C17         1.3263  -20.4714  -47.2389 C.3       23 UNK        -0.0398 
     18 CA          0.4350  -21.5960  -46.6572 C.3       11 UNK         0.1400 
     19 N           0.0669  -21.3864  -45.2532 N.am      11 UNK        -0.5000 
     20 C          -0.3672  -22.3754  -44.4578 C.2       10 UNK         0.5000 
     21 O          -0.4816  -23.5461  -44.8249 O.2       10 UNK        -0.5000 
     22 CA         -0.7902  -21.9884  -43.0322 C.3       10 UNK         0.1400 
     23 CB          0.4337  -21.7609  -42.1322 C.3       10 UNK        -0.1800 
     24 N          -1.6632  -20.8141  -43.0043 N.am      10 UNK        -0.5000 
     25 C          -2.9140  -20.8009  -43.4894 C.2       9 UNK         0.5000 
     26 O          -3.4272  -21.7586  -44.0652 O.2       9 UNK        -0.5000 
     27 CA         -3.7426  -19.5161  -43.3068 C.3       9 UNK         0.1400 
     28 CB         -4.6269  -19.6241  -42.0557 C.3       9 UNK        -0.1800 
     29 N          -2.9323  -18.3041  -43.2141 N.am      9 UNK        -0.5000 
     30 C          -2.2234  -17.7864  -44.2246 C.2       8 UNK         0.5000 
     31 O          -2.1939  -18.2838  -45.3515 O.2       8 UNK        -0.5000 
     32 CA         -1.4154  -16.5025  -43.9315 C.3       8 UNK         0.1400 
     33 CB         -1.4640  -16.0424  -42.4570 C.3       8 UNK        -0.1800 
     34 N          -0.0236  -16.5970  -44.3740 N.am      8 UNK        -0.5000 
     35 C           0.8624  -17.5511  -44.0533 C.2       7 UNK         0.5000 
     36 O           0.5960  -18.5013  -43.3151 O.2       7 UNK        -0.5000 
     37 CA          2.2718  -17.4478  -44.6751 C.3       7 UNK         0.1400 
     38 CB          2.4513  -16.2609  -45.6460 C.3       7 UNK        -0.1800 
     39 N           3.2931  -17.3607  -43.6374 N.am      7 UNK        -0.5000 
     40 C           3.8324  -18.3890  -42.9697 C.2       6 UNK         0.5000 
     41 O           3.5537  -19.5694  -43.1836 O.2       6 UNK        -0.5000 
     42 CA          4.8805  -18.0497  -41.8940 C.3       6 UNK         0.1400 
     43 CB          6.2895  -18.0533  -42.5082 C.3       6 UNK        -0.1800 
     44 N           4.6388  -16.7400  -41.2851 N.am      6 UNK        -0.5000 
     45 C           4.3154  -16.5283  -40.0024 C.2       5 UNK         0.5000 
     46 O           4.2048  -17.4260  -39.1661 O.2       5 UNK        -0.5000 
     47 CA          4.0791  -15.0652  -39.5676 C.3       5 UNK         0.1400 
     48 CB          5.3676  -14.4659  -38.9836 C.3       5 UNK        -0.1800 
     49 N           3.6030  -14.2006  -40.6496 N.am      5 UNK        -0.5000 
     50 C           2.4054  -14.3105  -41.2396 C.2       4 UNK         0.5000 
     51 O           1.5364  -15.0962  -40.8630 O.2       4 UNK        -0.5000 
     52 CA          2.1252  -13.4134  -42.4644 C.3       4 UNK         0.1400 
     53 CB          1.2902  -12.1957  -42.0398 C.3       4 UNK        -0.1800 
     54 N           3.2905  -12.9371  -43.2263 N.am      4 UNK        -0.5000 
     55 C           4.3142  -13.6690  -43.6885 C.2       3 UNK         0.5000 
     56 O           4.4735  -14.8601  -43.4261 O.2       3 UNK        -0.5000 
     57 CA          5.3051  -12.9529  -44.6160 C.3       3 UNK         0.1400 
     58 CB          6.3472  -13.9042  -45.2349 C.3       3 UNK        -0.1800 
     59 N           4.5733  -12.2751  -45.6835 N.am      3 UNK        -0.5000 
     60 C           4.8493  -11.0489  -46.1388 C.2       2 UNK         0.5000 
     61 O           5.7551  -10.3445  -45.6903 O.2       2 UNK        -0.5000 
     62 CA          3.9884  -10.5068  -47.2980 C.3       2 UNK         0.1400 
     63 CB          4.7736  -10.5779  -48.6177 C.3       2 UNK        -0.1800 
     64 N           2.6854  -11.1539  -47.4978 N.am      2 UNK        -0.5000 
     65 C           1.6637  -11.1367  -46.6297 C.2       1 UNK         0.5000 
     66 O           1.7755  -10.7200  -45.4735 O.2       1 UNK        -0.5000 
     67 C          -0.8013  -21.8949  -47.5299 C.2       11 UNK         0.5000 
     68 O          -0.7128  -22.7275  -48.4307 O.2       11 UNK        -0.5000 
     69 N          -1.9376  -21.2502  -47.2213 N.am      12 UNK        -0.5000 
     70 CA         -3.2215  -21.4789  -47.8810 C.3       12 UNK         0.1400 
     71 CB         -4.2427  -20.4335  -47.4110 C.3       12 UNK        -0.1800 
     72 C          -3.7439  -22.9073  -47.6552 C.2       12 UNK         0.5000 
     73 O          -4.1858  -23.5407  -48.6123 O.2       12 UNK        -0.5000 
     74 N          -3.6380  -23.4058  -46.4149 N.am      13 UNK        -0.5000 
     75 CA         -3.9741  -24.7788  -46.0393 C.3       13 UNK         0.1400 
     76 CB         -3.9352  -24.9272  -44.5111 C.3       13 UNK        -0.1800 
     77 C          -3.0584  -25.8159  -46.7113 C.2       13 UNK         0.5000 
     78 O          -3.5599  -26.8196  -47.2174 O.2       13 UNK        -0.5000 
     79 N          -1.7459  -25.5397  -46.7480 N.am      14 UNK        -0.5000 
     80 CA         -0.7421  -26.3725  -47.4190 C.3       14 UNK         0.1400 
     81 CB          0.6635  -25.8479  -47.0904 C.3       14 UNK        -0.1800 
     82 C          -0.9518  -26.4553  -48.9443 C.2       14 UNK         0.5000 
     83 O          -0.7842  -27.5263  -49.5280 O.2       14 UNK        -0.5000 
     84 N          -1.3525  -25.3311  -49.5507 N.am      15 UNK        -0.5000 
     85 CA         -1.7204  -25.2109  -50.9618 C.3       15 UNK         0.1400 
     86 CB         -1.6504  -23.7244  -51.3456 C.3       15 UNK        -0.1800 
     87 C          -3.1204  -25.7700  -51.2908 C.2       15 UNK         0.5000 
     88 O          -3.4710  -25.8474  -52.4705 O.2       15 UNK        -0.5000 
     89 N          -3.9132  -26.0854  -50.2535 N.am      16 UNK        -0.5000 
     90 CA         -5.3310  -26.4652  -50.2898 C.3       16 UNK         0.1400 
     91 CB         -5.4942  -27.8727  -50.8981 C.3       16 UNK        -0.1800 
     92 C          -6.2067  -25.4027  -50.9905 C.2       16 UNK         0.5000 
     93 O          -7.1558  -25.7488  -51.6966 O.2       16 UNK        -0.5000 
     94 N          -5.8173  -24.1278  -50.8338 N.am      17 UNK        -0.5000 
     95 CA         -6.2580  -22.9102  -51.5251 C.3       17 UNK         0.1400 
     96 CB         -7.7341  -22.5993  -51.2228 C.3       17 UNK        -0.1800 
     97 C          -5.9874  -22.8999  -53.0450 C.2       17 UNK         0.5000 
     98 O          -5.5411  -21.8802  -53.5716 O.2       17 UNK        -0.5000 
     99 N          -6.2575  -24.0228  -53.7193 N.am      18 UNK        -0.5000 
    100 CA        -6.1930  -24.2240  -55.1639 C.3       18 UNK         0.1400 
    101 CB        -6.6473  -25.6543  -55.4910 C.3       18 UNK        -0.1800 
    102 C         -4.8166  -23.9386  -55.7849 C.2       18 UNK         0.5000 
    103 O         -4.7546  -23.2444  -56.7998 O.2       18 UNK        -0.5000 
    104 N         -3.7363  -24.4381  -55.1650 N.am      19 UNK        -0.5000 
    105 CA        -2.3698  -24.2606  -55.6739 C.3       19 UNK         0.1400 
    106 CB        -1.4324  -25.2951  -55.0332 C.3       19 UNK        -0.1800 
    107 C         -1.8303  -22.8274  -55.4900 C.2       19 UNK         0.5000 
    108 O         -0.8973  -22.4386  -56.1930 O.2       19 UNK        -0.5000 
    109 N         -2.4402  -22.0632  -54.5742 N.am      20 UNK        -0.5000 
    110 CA        -2.1721  -20.6418  -54.3530 C.3       20 UNK         0.1400 
    111 CB        -2.3383  -20.3407  -52.8536 C.3       20 UNK        -0.1800 
    112 C         -3.0883  -19.7373  -55.2054 C.2       20 UNK         0.5000 
    113 O         -2.8829  -18.5236  -55.2203 O.2       20 UNK        -0.5000 
    114 N         -4.0759  -20.3380  -55.8908 N.am      21 UNK        -0.5000 
    115 CA        -5.1509  -19.7073  -56.6642 C.3       21 UNK         0.1400 
    116 CB        -4.5892  -18.9346  -57.8760 C.3       21 UNK        -0.1800 
    117 C         -6.1060  -18.8646  -55.7900 C.2       21 UNK         0.5000 
    118 O         -6.6549  -17.8660  -56.2600 O.2       21 UNK        -0.5000 
    119 N         -6.2927  -19.2916  -54.5354 N.am      22 UNK        -0.5000 
    120 CA        -7.1340  -18.6314  -53.5234 C.3       22 UNK         0.1400 
    121 C         -8.5745  -19.2143  -53.4376 C.2       22 UNK         0.5000 
    122 N         -8.9262  -20.2426  -54.2005 N.am      22 UNK        -0.7600 
    123 O         -9.3956  -18.7165  -52.6724 O.2       22 UNK        -0.5000 
    124 C124       -6.4488  -18.6277  -52.1314 C.3       23 UNK        -0.0398 
    125 S125       -4.8316  -17.7872  -52.1637 S.3       23 UNK        -0.2404 
    126 C126       -4.4750  -17.6283  -50.3899 C.3       23 UNK        -0.0205 
    127 H127       -1.3852  -12.9570  -43.1710 H         1 UNK         0.0600 
    128 H128       -2.2678  -11.7390  -44.0873 H         1 UNK         0.0600 
    129 H129       -2.5938  -13.4515  -44.3613 H         1 UNK         0.0600 
    130 H130       -1.3504  -11.0027  -45.9646 H         1 UNK         0.3000 
    131 H131       -0.0811  -10.6828  -47.6999 H         1 UNK         0.0600 
    132 H132        0.6162  -13.6693  -47.7609 H         1 UNK         0.0800 
    133 H133        1.0105  -12.5144  -49.0093 H         1 UNK         0.0800 
    134 H134        0.1057  -13.9264  -50.6798 H         1 UNK         0.0800 
    135 H135       -1.4988  -13.6272  -51.2845 H         1 UNK         0.0800 
    136 H136       -3.4137  -15.1293  -50.6422 H         1 UNK         0.1150 
    137 H137       -2.3393  -19.1608  -49.6684 H         1 UNK         0.1150 
    138 H138        0.6494  -16.0894  -49.6539 H         1 UNK         0.1150 
    139 H139        0.0165  -19.7434  -49.6221 H         1 UNK         0.0800 
    140 H140        1.2683  -18.5238  -49.6827 H         1 UNK         0.0800 
    141 H141        1.7318  -20.7830  -48.2030 H         1 UNK         0.0800 
    142 H142        2.1963  -20.3323  -46.5965 H         1 UNK         0.0800 
    143 H143        1.0471  -22.5003  -46.6840 H         1 UNK         0.0600 
    144 H144        0.1106  -20.4422  -44.8931 H         1 UNK         0.3000 
    145 H145       -1.3530  -22.8281  -42.6183 H         1 UNK         0.0600 
    146 H146        0.1352  -21.5243  -41.1109 H         1 UNK         0.0600 
    147 H147        1.0552  -22.6562  -42.0901 H         1 UNK         0.0600 
    148 H148        1.0620  -20.9476  -42.4951 H         1 UNK         0.0600 
    149 H149       -1.2794  -19.9671  -42.6073 H         1 UNK         0.3000 
    150 H150       -4.3962  -19.4195  -44.1760 H         1 UNK         0.0600 
    151 H151       -5.2667  -20.5064  -42.1051 H         1 UNK         0.0600 
    152 H152       -5.2799  -18.7567  -41.9570 H         1 UNK         0.0600 
    153 H153       -4.0302  -19.7022  -41.1460 H         1 UNK         0.0600 
    154 H154       -2.9000  -17.8459  -42.3151 H         1 UNK         0.3000 
    155 H155       -1.8729  -15.7239  -44.5410 H         1 UNK         0.0600 
    156 H156       -0.8840  -15.1307  -42.3171 H         1 UNK         0.0600 
    157 H157       -1.0517  -16.7920  -41.7803 H         1 UNK         0.0600 
    158 H158       -2.4837  -15.8210  -42.1401 H         1 UNK         0.0600 
    159 H159        0.2714  -15.8441  -44.9854 H         1 UNK         0.3000 
    160 H160        2.4374  -18.3643  -45.2418 H         1 UNK         0.0600 
    161 H161        2.3014  -15.3021  -45.1509 H         1 UNK         0.0600 
    162 H162        1.7498  -16.3146  -46.4791 H         1 UNK         0.0600 
    163 H163        3.4538  -16.2562  -46.0741 H         1 UNK         0.0600 
    164 H164        3.6342  -16.4247  -43.4368 H         1 UNK         0.3000 
    165 H165        4.8365  -18.8382  -41.1400 H         1 UNK         0.0600 
    166 H166        6.3961  -17.2827  -43.2732 H         1 UNK         0.0600 
    167 H167        7.0501  -17.8774  -41.7475 H         1 UNK         0.0600 
    168 H168        6.5113  -19.0142  -42.9745 H         1 UNK         0.0600 
    169 H169        4.6826  -15.9420  -41.9125 H         1 UNK         0.3000 
    170 H170        3.3202  -15.0739  -38.7824 H         1 UNK         0.0600 
    171 H171        5.7381  -15.0696  -38.1540 H         1 UNK         0.0600 
    172 H172        6.1607  -14.4125  -39.7305 H         1 UNK         0.0600 
    173 H173        5.1971  -13.4596  -38.6005 H         1 UNK         0.0600 
    174 H174        4.2594  -13.5298  -41.0203 H         1 UNK         0.3000 
    175 H175        1.5267  -14.0151  -43.1487 H         1 UNK         0.0600 
    176 H176        1.8577  -11.5296  -41.3889 H         1 UNK         0.0600 
    177 H177        0.9626  -11.6191  -42.9047 H         1 UNK         0.0600 
    178 H178        0.3953  -12.5014  -41.4962 H         1 UNK         0.0600 
    179 H179        3.2416  -11.9731  -43.5267 H         1 UNK         0.3000 
    180 H180        5.8320  -12.2271  -43.9934 H         1 UNK         0.0600 
    181 H181        5.8748  -14.6709  -45.8503 H         1 UNK         0.0600 
    182 H182        6.9247  -14.4117  -44.4610 H         1 UNK         0.0600 
    183 H183        7.0539  -13.3601  -45.8615 H         1 UNK         0.0600 
    184 H184        3.7904  -12.7743  -46.0815 H         1 UNK         0.3000 
    185 H185        3.7960   -9.4546  -47.0782 H         1 UNK         0.0600 
    186 H186        5.7377  -10.0750  -48.5296 H         1 UNK         0.0600 
    187 H187        4.9683  -11.6097  -48.9132 H         1 UNK         0.0600 
    188 H188        4.2309  -10.0915  -49.4285 H         1 UNK         0.0600 
    189 H189        2.5215  -11.5084  -48.4282 H         1 UNK         0.3000 
    190 H190       -1.9189  -20.5601  -46.4821 H         1 UNK         0.3000 
    191 H191       -3.0711  -21.3479  -48.9545 H         1 UNK         0.0600 
    192 H192       -5.1810  -20.5334  -47.9580 H         1 UNK         0.0600 
    193 H193       -3.8754  -19.4198  -47.5726 H         1 UNK         0.0600 
    194 H194       -4.4688  -20.5395  -46.3503 H         1 UNK         0.0600 
    195 H195       -3.3181  -22.8001  -45.6639 H         1 UNK         0.3000 
    196 H196       -4.9957  -24.9742  -46.3719 H         1 UNK         0.0600 
    197 H197       -4.1775  -25.9471  -44.2098 H         1 UNK         0.0600 
    198 H198       -4.6598  -24.2672  -44.0340 H         1 UNK         0.0600 
    199 H199       -2.9505  -24.6890  -44.1075 H         1 UNK         0.0600 
    200 H200       -1.4064  -24.7110  -46.2709 H         1 UNK         0.3000 
    201 H201       -0.8288  -27.3843  -47.0176 H         1 UNK         0.0600 
    202 H202        0.8397  -25.8378  -46.0146 H         1 UNK         0.0600 
    203 H203        0.8124  -24.8348  -47.4636 H         1 UNK         0.0600 
    204 H204        1.4305  -26.4792  -47.5405 H         1 UNK         0.0600 
    205 H205       -1.3884  -24.4735  -49.0068 H         1 UNK         0.3000 
    206 H206       -0.9952  -25.7618  -51.5636 H         1 UNK         0.0600 
    207 H207       -0.6432  -23.3288  -51.2138 H         1 UNK         0.0600 
    208 H208       -1.9248  -23.5699  -52.3865 H         1 UNK         0.0600 
    209 H209       -2.3287  -23.1213  -50.7412 H         1 UNK         0.0600 
    210 H210       -3.5292  -25.9659  -49.3251 H         1 UNK         0.3000 
    211 H211       -5.6667  -26.5054  -49.2528 H         1 UNK         0.0600 
    212 H212       -5.2261  -27.8902  -51.9550 H         1 UNK         0.0600 
    213 H213       -6.5253  -28.2181  -50.8156 H         1 UNK         0.0600 
    214 H214       -4.8672  -28.5990  -50.3808 H         1 UNK         0.0600 
    215 H215       -5.0593  -23.9762  -50.1704 H         1 UNK         0.3000 
    216 H216       -5.6589  -22.1033  -51.0999 H         1 UNK         0.0600 
    217 H217       -8.4030  -23.3583  -51.6292 H         1 UNK         0.0600 
    218 H218       -8.0276  -21.6431  -51.6559 H         1 UNK         0.0600 
    219 H219       -7.9105  -22.5368  -50.1490 H         1 UNK         0.0600 
    220 H220       -6.6177  -24.8004  -53.1716 H         1 UNK         0.3000 
    221 H221       -6.9049  -23.5308  -55.6163 H         1 UNK         0.0600 
    222 H222       -6.0064  -26.3977  -55.0147 H         1 UNK         0.0600 
    223 H223       -7.6690  -25.8296  -55.1536 H         1 UNK         0.0600 
    224 H224       -6.6240  -25.8380  -56.5660 H         1 UNK         0.0600 
    225 H225       -3.8458  -24.9788  -54.3118 H         1 UNK         0.3000 
    226 H226       -2.3846  -24.4589  -56.7479 H         1 UNK         0.0600 
    227 H227       -1.8053  -26.3093  -55.1775 H         1 UNK         0.0600 
    228 H228       -0.4388  -25.2475  -55.4804 H         1 UNK         0.0600 
    229 H229       -1.3134  -25.1317  -53.9644 H         1 UNK         0.0600 
    230 H230       -3.2216  -22.4540  -54.0661 H         1 UNK         0.3000 
    231 H231       -1.1410  -20.4122  -54.6291 H         1 UNK         0.0600 
    232 H232       -3.3483  -20.5597  -52.5058 H         1 UNK         0.0600 
    233 H233       -1.6409  -20.9238  -52.2529 H         1 UNK         0.0600 
    234 H234       -2.1399  -19.2891  -52.6424 H         1 UNK         0.0600 
    235 H235       -4.1415  -21.3456  -55.8257 H         1 UNK         0.3000 
    236 H236       -5.7542  -20.5278  -57.0552 H         1 UNK         0.0600 
    237 H237       -3.9195  -19.5602  -58.4659 H         1 UNK         0.0600 
    238 H238       -5.3929  -18.6084  -58.5371 H         1 UNK         0.0600 
    239 H239       -4.0378  -18.0448  -57.5715 H         1 UNK         0.0600 
    240 H240       -5.8327  -20.1471  -54.2342 H         1 UNK         0.3000 
    241 H241       -7.2677  -17.5871  -53.8113 H         1 UNK         0.0600 
    242 H242       -8.2659  -20.6506  -54.8416 H         1 UNK         0.3800 
    243 H243       -9.8651  -20.6046  -54.1447 H         1 UNK         0.3800 
    244 H244       -7.0776  -18.1237  -51.3952 H         1 UNK         0.0800 
    245 H245       -6.3036  -19.6476  -51.7728 H         1 UNK         0.0800 
    246 H246       -4.6618  -18.5828  -49.8959 H         1 UNK         0.0800 
    247 H247       -5.1576  -16.9047  -49.9419 H         1 UNK         0.0800 
@<TRIPOS>BOND
     1    1    2 1    
     2    1  127 1    
     3    1  128 1    
     4    1  129 1    
     5    2    3 2    
     6    2    4 am   BACKBONE|DICT|INTERRES
     7    4    5 1    
     8    4  130 1    
     9    5    6 1    
    10    5   65 1    
    11    5  131 1    
    12    6    7 1    
    13    6  132 1    
    14    6  133 1    
    15    7    8 1    
    16    8    9 1    
    17    8  134 1    
    18    8  135 1    
    19    9   10 ar   
    20    9   14 ar   
    21   10   11 ar   
    22   10  136 1    
    23   11   12 ar   
    24   11  126 1    
    25   12   13 ar   
    26   12  137 1    
    27   13   14 ar   
    28   13   15 1    
    29   14  138 1    
    30   15   16 1    
    31   15  139 1    
    32   15  140 1    
    33   16   17 1    
    34   17   18 1    
    35   17  141 1    
    36   17  142 1    
    37   18   19 1    
    38   18   67 1    
    39   18  143 1    
    40   19   20 am   BACKBONE|DICT|INTERRES
    41   19  144 1    
    42   20   21 2    
    43   20   22 1    
    44   22   23 1    
    45   22   24 1    
    46   22  145 1    
    47   23  146 1    
    48   23  147 1    
    49   23  148 1    
    50   24   25 am   BACKBONE|DICT|INTERRES
    51   24  149 1    
    52   25   26 2    
    53   25   27 1    
    54   27   28 1    
    55   27   29 1    
    56   27  150 1    
    57   28  151 1    
    58   28  152 1    
    59   28  153 1    
    60   29   30 am   BACKBONE|DICT|INTERRES
    61   29  154 1    
    62   30   31 2    
    63   30   32 1    
    64   32   33 1    
    65   32   34 1    
    66   32  155 1    
    67   33  156 1    
    68   33  157 1    
    69   33  158 1    
    70   34   35 am   BACKBONE|DICT|INTERRES
    71   34  159 1    
    72   35   36 2    
    73   35   37 1    
    74   37   38 1    
    75   37   39 1    
    76   37  160 1    
    77   38  161 1    
    78   38  162 1    
    79   38  163 1    
    80   39   40 am   BACKBONE|DICT|INTERRES
    81   39  164 1    
    82   40   41 2    
    83   40   42 1    
    84   42   43 1    
    85   42   44 1    
    86   42  165 1    
    87   43  166 1    
    88   43  167 1    
    89   43  168 1    
    90   44   45 am   BACKBONE|DICT|INTERRES
    91   44  169 1    
    92   45   46 2    
    93   45   47 1    
    94   47   48 1    
    95   47   49 1    
    96   47  170 1    
    97   48  171 1    
    98   48  172 1    
    99   48  173 1    
   100   49   50 am   BACKBONE|DICT|INTERRES
   101   49  174 1    
   102   50   51 2    
   103   50   52 1    
   104   52   53 1    
   105   52   54 1    
   106   52  175 1    
   107   53  176 1    
   108   53  177 1    
   109   53  178 1    
   110   54   55 am   BACKBONE|DICT|INTERRES
   111   54  179 1    
   112   55   56 2    
   113   55   57 1    
   114   57   58 1    
   115   57   59 1    
   116   57  180 1    
   117   58  181 1    
   118   58  182 1    
   119   58  183 1    
   120   59   60 am   BACKBONE|DICT|INTERRES
   121   59  184 1    
   122   60   61 2    
   123   60   62 1    
   124   62   63 1    
   125   62   64 1    
   126   62  185 1    
   127   63  186 1    
   128   63  187 1    
   129   63  188 1    
   130   64   65 am   BACKBONE|DICT|INTERRES
   131   64  189 1    
   132   65   66 2    
   133   67   68 2    
   134   67   69 am   BACKBONE|DICT|INTERRES
   135   69   70 1    
   136   69  190 1    
   137   70   71 1    
   138   70   72 1    
   139   70  191 1    
   140   71  192 1    
   141   71  193 1    
   142   71  194 1    
   143   72   73 2    
   144   72   74 am   BACKBONE|DICT|INTERRES
   145   74   75 1    
   146   74  195 1    
   147   75   76 1    
   148   75   77 1    
   149   75  196 1    
   150   76  197 1    
   151   76  198 1    
   152   76  199 1    
   153   77   78 2    
   154   77   79 am   BACKBONE|DICT|INTERRES
   155   79   80 1    
   156   79  200 1    
   157   80   81 1    
   158   80   82 1    
   159   80  201 1    
   160   81  202 1    
   161   81  203 1    
   162   81  204 1    
   163   82   83 2    
   164   82   84 am   BACKBONE|DICT|INTERRES
   165   84   85 1    
   166   84  205 1    
   167   85   86 1    
   168   85   87 1    
   169   85  206 1    
   170   86  207 1    
   171   86  208 1    
   172   86  209 1    
   173   87   88 2    
   174   87   89 am   BACKBONE|DICT|INTERRES
   175   89   90 1    
   176   89  210 1    
   177   90   91 1    
   178   90   92 1    
   179   90  211 1    
   180   91  212 1    
   181   91  213 1    
   182   91  214 1    
   183   92   93 2    
   184   92   94 am   BACKBONE|DICT|INTERRES
   185   94   95 1    
   186   94  215 1    
   187   95   96 1    
   188   95   97 1    
   189   95  216 1    
   190   96  217 1    
   191   96  218 1    
   192   96  219 1    
   193   97   98 2    
   194   97   99 am   BACKBONE|DICT|INTERRES
   195   99  100 1    
   196   99  220 1    
   197  100  101 1    
   198  100  102 1    
   199  100  221 1    
   200  101  222 1    
   201  101  223 1    
   202  101  224 1    
   203  102  103 2    
   204  102  104 am   BACKBONE|DICT|INTERRES
   205  104  105 1    
   206  104  225 1    
   207  105  106 1    
   208  105  107 1    
   209  105  226 1    
   210  106  227 1    
   211  106  228 1    
   212  106  229 1    
   213  107  108 2    
   214  107  109 am   BACKBONE|DICT|INTERRES
   215  109  110 1    
   216  109  230 1    
   217  110  111 1    
   218  110  112 1    
   219  110  231 1    
   220  111  232 1    
   221  111  233 1    
   222  111  234 1    
   223  112  113 2    
   224  112  114 am   BACKBONE|DICT|INTERRES
   225  114  115 1    
   226  114  235 1    
   227  115  116 1    
   228  115  117 1    
   229  115  236 1    
   230  116  237 1    
   231  116  238 1    
   232  116  239 1    
   233  117  118 2    
   234  117  119 am   BACKBONE|DICT|INTERRES
   235  119  120 1    
   236  119  240 1    
   237  120  121 1    
   238  120  124 1    
   239  120  241 1    
   240  121  122 am   BACKBONE|DICT|INTERRES
   241  121  123 2    
   242  122  242 1    
   243  122  243 1    
   244  124  125 1    
   245  124  244 1    
   246  124  245 1    
   247  125  126 1    
   248  126  246 1    
   249  126  247 1    
@<TRIPOS>SUBSTRUCTURE
     1 UNK         1 GROUP             0       ****    0 ROOT    
