@<TRIPOS>MOLECULE
3R540
247   249    1
SMALL
USER_CHARGES


@<TRIPOS>ATOM
      1 CA          1.9991  -15.7828  -42.9127 C.3       0 UNK        -0.1800 
      2 C           1.1261  -17.0224  -43.0500 C.2       0 UNK         0.5000 
      3 O           0.7363  -17.5995  -42.0349 O.2       0 UNK        -0.5000 
      4 N           0.8368  -17.4356  -44.2937 N.am      1 UNK        -0.5000 
      5 CA          0.0020  -18.5910  -44.6448 C.3       1 UNK         0.1400 
      6 C6         -0.0639  -18.8627  -46.1696 C.3       23 UNK        -0.0398 
      7 S7         -0.9113  -17.6140  -47.2026 S.3       23 UNK        -0.2404 
      8 C8         -1.7140  -18.6291  -48.4927 C.3       23 UNK        -0.0205 
      9 C9         -0.7020  -19.3355  -49.3854 C.ar      23 UNK        -0.0193 
     10 C10        -0.2361  -18.7391  -50.5609 C.ar      23 UNK        -0.1150 
     11 C11         0.7105  -19.3901  -51.3624 C.ar      23 UNK        -0.0193 
     12 C12         1.2130  -20.6323  -50.9566 C.ar      23 UNK        -0.1150 
     13 C13         0.7387  -21.2496  -49.7965 C.ar      23 UNK        -0.0193 
     14 C14        -0.2373  -20.6034  -49.0359 C.ar      23 UNK        -0.1150 
     15 C15         1.2663  -22.6166  -49.3769 C.3       23 UNK        -0.0205 
     16 S16         2.5073  -22.5037  -48.0425 S.3       23 UNK        -0.2404 
     17 C17         1.4633  -22.1894  -46.5784 C.3       23 UNK        -0.0398 
     18 CA          1.8367  -23.0494  -45.3526 C.3       11 UNK         0.1400 
     19 N           3.1601  -22.6914  -44.8412 N.am      11 UNK        -0.5000 
     20 C           3.9693  -23.4932  -44.1352 C.2       10 UNK         0.5000 
     21 O           3.7302  -24.6830  -43.9238 O.2       10 UNK        -0.5000 
     22 CA          5.2192  -22.8427  -43.5067 C.3       10 UNK         0.1400 
     23 CB          6.4273  -22.9805  -44.4450 C.3       10 UNK        -0.1800 
     24 N           5.0216  -21.4266  -43.1879 N.am      10 UNK        -0.5000 
     25 C           4.1095  -20.9460  -42.3297 C.2       9 UNK         0.5000 
     26 O           3.4308  -21.6595  -41.5911 O.2       9 UNK        -0.5000 
     27 CA          3.8859  -19.4205  -42.3113 C.3       9 UNK         0.1400 
     28 CB          4.3179  -18.8183  -40.9654 C.3       9 UNK        -0.1800 
     29 N           4.5512  -18.6842  -43.3924 N.am      9 UNK        -0.5000 
     30 C           4.2607  -18.7657  -44.6979 C.2       8 UNK         0.5000 
     31 O           3.4136  -19.5290  -45.1684 O.2       8 UNK        -0.5000 
     32 CA          5.1378  -17.8971  -45.6205 C.3       8 UNK         0.1400 
     33 CB          6.4357  -18.6463  -45.9628 C.3       8 UNK        -0.1800 
     34 N           4.4889  -17.4998  -46.8700 N.am      8 UNK        -0.5000 
     35 C           3.3911  -16.7417  -46.9752 C.2       7 UNK         0.5000 
     36 O           2.7605  -16.3064  -46.0102 O.2       7 UNK        -0.5000 
     37 CA          2.9386  -16.3891  -48.4000 C.3       7 UNK         0.1400 
     38 CB          2.7916  -17.6382  -49.2818 C.3       7 UNK        -0.1800 
     39 N           1.6584  -15.6889  -48.3434 N.am      7 UNK        -0.5000 
     40 C           1.3229  -14.5974  -49.0373 C.2       6 UNK         0.5000 
     41 O           2.0604  -14.0547  -49.8611 O.2       6 UNK        -0.5000 
     42 CA         -0.0780  -14.0111  -48.7755 C.3       6 UNK         0.1400 
     43 CB         -1.0656  -14.4950  -49.8479 C.3       6 UNK        -0.1800 
     44 N          -0.6168  -14.3654  -47.4614 N.am      6 UNK        -0.5000 
     45 C          -0.3286  -13.7490  -46.3078 C.2       5 UNK         0.5000 
     46 O           0.4548  -12.8019  -46.2244 O.2       5 UNK        -0.5000 
     47 CA         -1.0327  -14.2889  -45.0386 C.3       5 UNK         0.1400 
     48 CB         -1.1942  -13.2221  -43.9367 C.3       5 UNK        -0.1800 
     49 N          -2.3058  -14.9787  -45.2979 N.am      5 UNK        -0.5000 
     50 C          -3.4044  -14.4482  -45.8541 C.2       4 UNK         0.5000 
     51 O          -3.5016  -13.2585  -46.1578 O.2       4 UNK        -0.5000 
     52 CA         -4.5868  -15.3788  -46.1726 C.3       4 UNK         0.1400 
     53 CB         -4.5632  -15.7703  -47.6621 C.3       4 UNK        -0.1800 
     54 N          -4.6905  -16.5901  -45.3440 N.am      4 UNK        -0.5000 
     55 C          -5.8656  -17.2106  -45.1417 C.2       3 UNK         0.5000 
     56 O          -6.9368  -16.7631  -45.5550 O.2       3 UNK        -0.5000 
     57 CA         -5.8960  -18.5527  -44.3856 C.3       3 UNK         0.1400 
     58 CB         -6.4804  -19.6615  -45.2710 C.3       3 UNK        -0.1800 
     59 N          -4.5880  -19.0032  -43.9198 N.am      3 UNK        -0.5000 
     60 C          -4.2088  -19.0194  -42.6385 C.2       2 UNK         0.5000 
     61 O          -4.8913  -18.5726  -41.7151 O.2       2 UNK        -0.5000 
     62 CA         -2.8426  -19.6550  -42.3165 C.3       2 UNK         0.1400 
     63 CB         -3.0285  -21.1144  -41.8798 C.3       2 UNK        -0.1800 
     64 N          -1.8150  -19.6106  -43.3635 N.am      2 UNK        -0.5000 
     65 C          -1.3938  -18.5078  -43.9942 C.2       1 UNK         0.5000 
     66 O          -2.0289  -17.4513  -44.0465 O.2       1 UNK        -0.5000 
     67 C           0.7957  -22.9283  -44.2120 C.2       11 UNK         0.5000 
     68 O          -0.0962  -22.0755  -44.2538 O.2       11 UNK        -0.5000 
     69 N           0.9599  -23.7739  -43.1879 N.am      12 UNK        -0.5000 
     70 CA          0.2139  -23.7457  -41.9288 C.3       12 UNK         0.1400 
     71 CB          1.0518  -24.4624  -40.8578 C.3       12 UNK        -0.1800 
     72 C          -1.1968  -24.3634  -42.0072 C.2       12 UNK         0.5000 
     73 O          -1.9645  -24.2128  -41.0563 O.2       12 UNK        -0.5000 
     74 N          -1.5131  -25.0568  -43.1077 N.am      13 UNK        -0.5000 
     75 CA         -2.7858  -25.7532  -43.3206 C.3       13 UNK         0.1400 
     76 CB         -2.5902  -27.2529  -43.0291 C.3       13 UNK        -0.1800 
     77 C          -3.3578  -25.5014  -44.7292 C.2       13 UNK         0.5000 
     78 O          -4.2012  -26.2728  -45.1903 O.2       13 UNK        -0.5000 
     79 N          -2.8882  -24.4423  -45.4016 N.am      14 UNK        -0.5000 
     80 CA         -3.3502  -24.0425  -46.7303 C.3       14 UNK         0.1400 
     81 CB         -2.3007  -23.1190  -47.3590 C.3       14 UNK        -0.1800 
     82 C          -4.7162  -23.3372  -46.6811 C.2       14 UNK         0.5000 
     83 O          -5.0282  -22.6671  -45.6944 O.2       14 UNK        -0.5000 
     84 N          -5.4810  -23.4730  -47.7699 N.am      15 UNK        -0.5000 
     85 CA         -6.7252  -22.7444  -48.0093 C.3       15 UNK         0.1400 
     86 CB         -7.5862  -23.5523  -48.9935 C.3       15 UNK        -0.1800 
     87 C          -6.4348  -21.3471  -48.5840 C.2       15 UNK         0.5000 
     88 O          -5.3777  -21.1332  -49.1824 O.2       15 UNK        -0.5000 
     89 N          -7.4026  -20.4305  -48.4401 N.am      16 UNK        -0.5000 
     90 CA         -7.3190  -19.0414  -48.9110 C.3       16 UNK         0.1400 
     91 CB         -8.5633  -18.2707  -48.4455 C.3       16 UNK        -0.1800 
     92 C          -7.1533  -18.9104  -50.4373 C.2       16 UNK         0.5000 
     93 O          -6.5612  -17.9380  -50.9038 O.2       16 UNK        -0.5000 
     94 N          -7.6352  -19.9161  -51.1821 N.am      17 UNK        -0.5000 
     95 CA         -7.5046  -20.0462  -52.6343 C.3       17 UNK         0.1400 
     96 CB         -8.2781  -21.2917  -53.0921 C.3       17 UNK        -0.1800 
     97 C          -6.0471  -20.1057  -53.1342 C.2       17 UNK         0.5000 
     98 O          -5.7970  -19.7528  -54.2864 O.2       17 UNK        -0.5000 
     99 N          -5.1041  -20.5050  -52.2662 N.am      18 UNK        -0.5000 
    100 CA        -3.6693  -20.5142  -52.5564 C.3       18 UNK         0.1400 
    101 CB        -2.9209  -21.2081  -51.4105 C.3       18 UNK        -0.1800 
    102 C         -3.0953  -19.1073  -52.8166 C.2       18 UNK         0.5000 
    103 O         -2.1677  -18.9759  -53.6113 O.2       18 UNK        -0.5000 
    104 N         -3.6904  -18.0697  -52.2078 N.am      19 UNK        -0.5000 
    105 CA        -3.3180  -16.6686  -52.4226 C.3       19 UNK         0.1400 
    106 CB        -3.9902  -15.7982  -51.3531 C.3       19 UNK        -0.1800 
    107 C         -3.6586  -16.1486  -53.8341 C.2       19 UNK         0.5000 
    108 O         -3.0447  -15.1798  -54.2813 O.2       19 UNK        -0.5000 
    109 N         -4.6137  -16.7997  -54.5134 N.am      20 UNK        -0.5000 
    110 CA        -4.9730  -16.5304  -55.9068 C.3       20 UNK         0.1400 
    111 CB        -6.4657  -16.8417  -56.1036 C.3       20 UNK        -0.1800 
    112 C         -4.1082  -17.3316  -56.9028 C.2       20 UNK         0.5000 
    113 O         -4.1857  -17.0732  -58.1051 O.2       20 UNK        -0.5000 
    114 N         -3.3132  -18.2846  -56.3994 N.am      21 UNK        -0.5000 
    115 CA        -2.3700  -19.1009  -57.1566 C.3       21 UNK         0.1400 
    116 CB        -2.5431  -20.5709  -56.7227 C.3       21 UNK        -0.1800 
    117 C         -0.9368  -18.5679  -56.9457 C.2       21 UNK         0.5000 
    118 O         -0.7539  -17.3690  -56.7200 O.2       21 UNK        -0.5000 
    119 N          0.0556  -19.4628  -57.0413 N.am      22 UNK        -0.5000 
    120 CA         1.4922  -19.2050  -56.8167 C.3       22 UNK         0.1400 
    121 C          2.1816  -18.3279  -57.9080 C.2       22 UNK         0.5000 
    122 N          1.5789  -18.1243  -59.0732 N.am      22 UNK        -0.7600 
    123 O          3.2966  -17.8500  -57.7150 O.2       22 UNK        -0.5000 
    124 C124        1.8135  -18.7163  -55.3739 C.3       23 UNK        -0.0398 
    125 S125        1.1789  -19.8377  -54.0813 S.3       23 UNK        -0.2404 
    126 C126        1.2211  -18.7265  -52.6369 C.3       23 UNK        -0.0205 
    127 H127        3.0383  -16.0718  -42.7580 H         1 UNK         0.0600 
    128 H128        1.6778  -15.1862  -42.0589 H         1 UNK         0.0600 
    129 H129        1.9462  -15.1504  -43.7985 H         1 UNK         0.0600 
    130 H130        1.2908  -16.9606  -45.0689 H         1 UNK         0.3000 
    131 H131        0.5161  -19.4463  -44.2014 H         1 UNK         0.0600 
    132 H132        0.9480  -18.9680  -46.5619 H         1 UNK         0.0800 
    133 H133       -0.5503  -19.8257  -46.3192 H         1 UNK         0.0800 
    134 H134       -2.3822  -19.3549  -48.0261 H         1 UNK         0.0800 
    135 H135       -2.3484  -17.9875  -49.1051 H         1 UNK         0.0800 
    136 H136       -0.6050  -17.7654  -50.8474 H         1 UNK         0.1150 
    137 H137        1.9657  -21.1253  -51.5551 H         1 UNK         0.1150 
    138 H138       -0.6346  -21.0788  -48.1578 H         1 UNK         0.1150 
    139 H139        0.4417  -23.2612  -49.0719 H         1 UNK         0.0800 
    140 H140        1.7283  -23.1117  -50.2322 H         1 UNK         0.0800 
    141 H141        0.4278  -22.3840  -46.8408 H         1 UNK         0.0800 
    142 H142        1.5366  -21.1320  -46.3342 H         1 UNK         0.0800 
    143 H143        1.8444  -24.0944  -45.6700 H         1 UNK         0.0600 
    144 H144        3.4161  -21.7163  -44.9443 H         1 UNK         0.3000 
    145 H145        5.4380  -23.3713  -42.5768 H         1 UNK         0.0600 
    146 H146        7.3328  -22.5856  -43.9838 H         1 UNK         0.0600 
    147 H147        6.6165  -24.0274  -44.6861 H         1 UNK         0.0600 
    148 H148        6.2695  -22.4502  -45.3852 H         1 UNK         0.0600 
    149 H149        5.5403  -20.7629  -43.7425 H         1 UNK         0.3000 
    150 H150        2.8112  -19.2750  -42.4213 H         1 UNK         0.0600 
    151 H151        5.3923  -18.9177  -40.8067 H         1 UNK         0.0600 
    152 H152        3.8154  -19.3143  -40.1338 H         1 UNK         0.0600 
    153 H153        4.0637  -17.7598  -40.9077 H         1 UNK         0.0600 
    154 H154        5.2888  -18.0582  -43.1022 H         1 UNK         0.3000 
    155 H155        5.3946  -16.9814  -45.0838 H         1 UNK         0.0600 
    156 H156        6.2348  -19.5634  -46.5186 H         1 UNK         0.0600 
    157 H157        6.9836  -18.9226  -45.0610 H         1 UNK         0.0600 
    158 H158        7.1018  -18.0282  -46.5653 H         1 UNK         0.0600 
    159 H159        4.9206  -17.8392  -47.7163 H         1 UNK         0.3000 
    160 H160        3.7030  -15.7373  -48.8273 H         1 UNK         0.0600 
    161 H161        2.1044  -18.3611  -48.8407 H         1 UNK         0.0600 
    162 H162        3.7459  -18.1417  -49.4362 H         1 UNK         0.0600 
    163 H163        2.4126  -17.3669  -50.2658 H         1 UNK         0.0600 
    164 H164        1.0102  -16.0364  -47.6505 H         1 UNK         0.3000 
    165 H165       -0.0023  -12.9239  -48.8453 H         1 UNK         0.0600 
    166 H166       -0.7191  -14.2353  -50.8490 H         1 UNK         0.0600 
    167 H167       -1.1960  -15.5772  -49.8153 H         1 UNK         0.0600 
    168 H168       -2.0440  -14.0341  -49.7125 H         1 UNK         0.0600 
    169 H169       -1.2489  -15.1527  -47.4307 H         1 UNK         0.3000 
    170 H170       -0.3675  -15.0530  -44.6452 H         1 UNK         0.0600 
    171 H171       -0.2251  -12.8287  -43.6277 H         1 UNK         0.0600 
    172 H172       -1.7971  -12.3785  -44.2733 H         1 UNK         0.0600 
    173 H173       -1.6684  -13.6426  -43.0499 H         1 UNK         0.0600 
    174 H174       -2.3028  -15.9596  -45.0284 H         1 UNK         0.3000 
    175 H175       -5.4744  -14.7652  -46.0027 H         1 UNK         0.0600 
    176 H176       -5.4886  -16.2615  -47.9627 H         1 UNK         0.0600 
    177 H177       -4.4464  -14.8927  -48.2995 H         1 UNK         0.0600 
    178 H178       -3.7389  -16.4480  -47.8791 H         1 UNK         0.0600 
    179 H179       -3.8453  -16.9634  -44.9265 H         1 UNK         0.3000 
    180 H180       -6.5770  -18.4151  -43.5434 H         1 UNK         0.0600 
    181 H181       -5.8448  -19.8475  -46.1363 H         1 UNK         0.0600 
    182 H182       -7.4756  -19.4023  -45.6312 H         1 UNK         0.0600 
    183 H183       -6.5746  -20.5964  -44.7184 H         1 UNK         0.0600 
    184 H184       -3.9582  -19.3793  -44.6132 H         1 UNK         0.3000 
    185 H185       -2.4404  -19.1010  -41.4659 H         1 UNK         0.0600 
    186 H186       -2.1072  -21.5088  -41.4536 H         1 UNK         0.0600 
    187 H187       -3.7999  -21.2065  -41.1140 H         1 UNK         0.0600 
    188 H188       -3.3165  -21.7526  -42.7166 H         1 UNK         0.0600 
    189 H189       -1.2490  -20.4475  -43.4518 H         1 UNK         0.3000 
    190 H190        1.7463  -24.4125  -43.2298 H         1 UNK         0.3000 
    191 H191        0.0964  -22.7038  -41.6239 H         1 UNK         0.0600 
    192 H192        1.2114  -25.5119  -41.1082 H         1 UNK         0.0600 
    193 H193        0.5607  -24.4270  -39.8845 H         1 UNK         0.0600 
    194 H194        2.0289  -23.9925  -40.7428 H         1 UNK         0.0600 
    195 H195       -0.8182  -25.1527  -43.8342 H         1 UNK         0.3000 
    196 H196       -3.5408  -25.3711  -42.6307 H         1 UNK         0.0600 
    197 H197       -3.5293  -27.8002  -43.1181 H         1 UNK         0.0600 
    198 H198       -2.2216  -27.4114  -42.0155 H         1 UNK         0.0600 
    199 H199       -1.8772  -27.7048  -43.7195 H         1 UNK         0.0600 
    200 H200       -2.2626  -23.8072  -44.9283 H         1 UNK         0.3000 
    201 H201       -3.4404  -24.9346  -47.3543 H         1 UNK         0.0600 
    202 H202       -2.6238  -22.7576  -48.3368 H         1 UNK         0.0600 
    203 H203       -2.1101  -22.2477  -46.7310 H         1 UNK         0.0600 
    204 H204       -1.3628  -23.6526  -47.5048 H         1 UNK         0.0600 
    205 H205       -5.1211  -23.9969  -48.5539 H         1 UNK         0.3000 
    206 H206       -7.2696  -22.6346  -47.0688 H         1 UNK         0.0600 
    207 H207       -7.7984  -24.5484  -48.6045 H         1 UNK         0.0600 
    208 H208       -8.5457  -23.0647  -49.1703 H         1 UNK         0.0600 
    209 H209       -7.0940  -23.6682  -49.9603 H         1 UNK         0.0600 
    210 H210       -8.2517  -20.6871  -47.9573 H         1 UNK         0.3000 
    211 H211       -6.4408  -18.5866  -48.4479 H         1 UNK         0.0600 
    212 H212       -9.4789  -18.6962  -48.8579 H         1 UNK         0.0600 
    213 H213       -8.5147  -17.2271  -48.7598 H         1 UNK         0.0600 
    214 H214       -8.6509  -18.2722  -47.3595 H         1 UNK         0.0600 
    215 H215       -8.1022  -20.6720  -50.7042 H         1 UNK         0.3000 
    216 H216       -7.9668  -19.1670  -53.0878 H         1 UNK         0.0600 
    217 H217       -8.2252  -21.4086  -54.1755 H         1 UNK         0.0600 
    218 H218       -9.3330  -21.2220  -52.8260 H         1 UNK         0.0600 
    219 H219       -7.8766  -22.2014  -52.6435 H         1 UNK         0.0600 
    220 H220       -5.3740  -20.7557  -51.3219 H         1 UNK         0.3000 
    221 H221       -3.5175  -21.1022  -53.4639 H         1 UNK         0.0600 
    222 H222       -3.0407  -20.6696  -50.4704 H         1 UNK         0.0600 
    223 H223       -3.2795  -22.2263  -51.2601 H         1 UNK         0.0600 
    224 H224       -1.8525  -21.2664  -51.6227 H         1 UNK         0.0600 
    225 H225       -4.4942  -18.2386  -51.6148 H         1 UNK         0.3000 
    226 H226       -2.2365  -16.5845  -52.2973 H         1 UNK         0.0600 
    227 H227       -3.6787  -14.7572  -51.4444 H         1 UNK         0.0600 
    228 H228       -5.0767  -15.8199  -51.4378 H         1 UNK         0.0600 
    229 H229       -3.7219  -16.1344  -50.3531 H         1 UNK         0.0600 
    230 H230       -5.0528  -17.6060  -54.0880 H         1 UNK         0.3000 
    231 H231       -4.8217  -15.4707  -56.1224 H         1 UNK         0.0600 
    232 H232       -6.6815  -17.9004  -55.9597 H         1 UNK         0.0600 
    233 H233       -6.7889  -16.5780  -57.1114 H         1 UNK         0.0600 
    234 H234       -7.0832  -16.2747  -55.4068 H         1 UNK         0.0600 
    235 H235       -3.2444  -18.3734  -55.3934 H         1 UNK         0.3000 
    236 H236       -2.5866  -19.0356  -58.2244 H         1 UNK         0.0600 
    237 H237       -1.9919  -21.2476  -57.3762 H         1 UNK         0.0600 
    238 H238       -2.1952  -20.7353  -55.7021 H         1 UNK         0.0600 
    239 H239       -3.5903  -20.8719  -56.7665 H         1 UNK         0.0600 
    240 H240       -0.1842  -20.4238  -57.2360 H         1 UNK         0.3000 
    241 H241        1.9693  -20.1793  -56.9265 H         1 UNK         0.0600 
    242 H242        0.6689  -18.5162  -59.2548 H         1 UNK         0.3800 
    243 H243        2.0351  -17.5661  -59.7779 H         1 UNK         0.3800 
    244 H244        1.4077  -17.7166  -55.2134 H         1 UNK         0.0800 
    245 H245        2.8917  -18.6329  -55.2289 H         1 UNK         0.0800 
    246 H246        2.2453  -18.3892  -52.4752 H         1 UNK         0.0800 
    247 H247        0.6267  -17.8399  -52.8641 H         1 UNK         0.0800 
@<TRIPOS>BOND
     1    1    2 1    
     2    1  127 1    
     3    1  128 1    
     4    1  129 1    
     5    2    3 2    
     6    2    4 am   BACKBONE|DICT|INTERRES
     7    4    5 1    
     8    4  130 1    
     9    5    6 1    
    10    5   65 1    
    11    5  131 1    
    12    6    7 1    
    13    6  132 1    
    14    6  133 1    
    15    7    8 1    
    16    8    9 1    
    17    8  134 1    
    18    8  135 1    
    19    9   10 ar   
    20    9   14 ar   
    21   10   11 ar   
    22   10  136 1    
    23   11   12 ar   
    24   11  126 1    
    25   12   13 ar   
    26   12  137 1    
    27   13   14 ar   
    28   13   15 1    
    29   14  138 1    
    30   15   16 1    
    31   15  139 1    
    32   15  140 1    
    33   16   17 1    
    34   17   18 1    
    35   17  141 1    
    36   17  142 1    
    37   18   19 1    
    38   18   67 1    
    39   18  143 1    
    40   19   20 am   BACKBONE|DICT|INTERRES
    41   19  144 1    
    42   20   21 2    
    43   20   22 1    
    44   22   23 1    
    45   22   24 1    
    46   22  145 1    
    47   23  146 1    
    48   23  147 1    
    49   23  148 1    
    50   24   25 am   BACKBONE|DICT|INTERRES
    51   24  149 1    
    52   25   26 2    
    53   25   27 1    
    54   27   28 1    
    55   27   29 1    
    56   27  150 1    
    57   28  151 1    
    58   28  152 1    
    59   28  153 1    
    60   29   30 am   BACKBONE|DICT|INTERRES
    61   29  154 1    
    62   30   31 2    
    63   30   32 1    
    64   32   33 1    
    65   32   34 1    
    66   32  155 1    
    67   33  156 1    
    68   33  157 1    
    69   33  158 1    
    70   34   35 am   BACKBONE|DICT|INTERRES
    71   34  159 1    
    72   35   36 2    
    73   35   37 1    
    74   37   38 1    
    75   37   39 1    
    76   37  160 1    
    77   38  161 1    
    78   38  162 1    
    79   38  163 1    
    80   39   40 am   BACKBONE|DICT|INTERRES
    81   39  164 1    
    82   40   41 2    
    83   40   42 1    
    84   42   43 1    
    85   42   44 1    
    86   42  165 1    
    87   43  166 1    
    88   43  167 1    
    89   43  168 1    
    90   44   45 am   BACKBONE|DICT|INTERRES
    91   44  169 1    
    92   45   46 2    
    93   45   47 1    
    94   47   48 1    
    95   47   49 1    
    96   47  170 1    
    97   48  171 1    
    98   48  172 1    
    99   48  173 1    
   100   49   50 am   BACKBONE|DICT|INTERRES
   101   49  174 1    
   102   50   51 2    
   103   50   52 1    
   104   52   53 1    
   105   52   54 1    
   106   52  175 1    
   107   53  176 1    
   108   53  177 1    
   109   53  178 1    
   110   54   55 am   BACKBONE|DICT|INTERRES
   111   54  179 1    
   112   55   56 2    
   113   55   57 1    
   114   57   58 1    
   115   57   59 1    
   116   57  180 1    
   117   58  181 1    
   118   58  182 1    
   119   58  183 1    
   120   59   60 am   BACKBONE|DICT|INTERRES
   121   59  184 1    
   122   60   61 2    
   123   60   62 1    
   124   62   63 1    
   125   62   64 1    
   126   62  185 1    
   127   63  186 1    
   128   63  187 1    
   129   63  188 1    
   130   64   65 am   BACKBONE|DICT|INTERRES
   131   64  189 1    
   132   65   66 2    
   133   67   68 2    
   134   67   69 am   BACKBONE|DICT|INTERRES
   135   69   70 1    
   136   69  190 1    
   137   70   71 1    
   138   70   72 1    
   139   70  191 1    
   140   71  192 1    
   141   71  193 1    
   142   71  194 1    
   143   72   73 2    
   144   72   74 am   BACKBONE|DICT|INTERRES
   145   74   75 1    
   146   74  195 1    
   147   75   76 1    
   148   75   77 1    
   149   75  196 1    
   150   76  197 1    
   151   76  198 1    
   152   76  199 1    
   153   77   78 2    
   154   77   79 am   BACKBONE|DICT|INTERRES
   155   79   80 1    
   156   79  200 1    
   157   80   81 1    
   158   80   82 1    
   159   80  201 1    
   160   81  202 1    
   161   81  203 1    
   162   81  204 1    
   163   82   83 2    
   164   82   84 am   BACKBONE|DICT|INTERRES
   165   84   85 1    
   166   84  205 1    
   167   85   86 1    
   168   85   87 1    
   169   85  206 1    
   170   86  207 1    
   171   86  208 1    
   172   86  209 1    
   173   87   88 2    
   174   87   89 am   BACKBONE|DICT|INTERRES
   175   89   90 1    
   176   89  210 1    
   177   90   91 1    
   178   90   92 1    
   179   90  211 1    
   180   91  212 1    
   181   91  213 1    
   182   91  214 1    
   183   92   93 2    
   184   92   94 am   BACKBONE|DICT|INTERRES
   185   94   95 1    
   186   94  215 1    
   187   95   96 1    
   188   95   97 1    
   189   95  216 1    
   190   96  217 1    
   191   96  218 1    
   192   96  219 1    
   193   97   98 2    
   194   97   99 am   BACKBONE|DICT|INTERRES
   195   99  100 1    
   196   99  220 1    
   197  100  101 1    
   198  100  102 1    
   199  100  221 1    
   200  101  222 1    
   201  101  223 1    
   202  101  224 1    
   203  102  103 2    
   204  102  104 am   BACKBONE|DICT|INTERRES
   205  104  105 1    
   206  104  225 1    
   207  105  106 1    
   208  105  107 1    
   209  105  226 1    
   210  106  227 1    
   211  106  228 1    
   212  106  229 1    
   213  107  108 2    
   214  107  109 am   BACKBONE|DICT|INTERRES
   215  109  110 1    
   216  109  230 1    
   217  110  111 1    
   218  110  112 1    
   219  110  231 1    
   220  111  232 1    
   221  111  233 1    
   222  111  234 1    
   223  112  113 2    
   224  112  114 am   BACKBONE|DICT|INTERRES
   225  114  115 1    
   226  114  235 1    
   227  115  116 1    
   228  115  117 1    
   229  115  236 1    
   230  116  237 1    
   231  116  238 1    
   232  116  239 1    
   233  117  118 2    
   234  117  119 am   BACKBONE|DICT|INTERRES
   235  119  120 1    
   236  119  240 1    
   237  120  121 1    
   238  120  124 1    
   239  120  241 1    
   240  121  122 am   BACKBONE|DICT|INTERRES
   241  121  123 2    
   242  122  242 1    
   243  122  243 1    
   244  124  125 1    
   245  124  244 1    
   246  124  245 1    
   247  125  126 1    
   248  126  246 1    
   249  126  247 1    
@<TRIPOS>SUBSTRUCTURE
     1 UNK         1 GROUP             0       ****    0 ROOT    
