@<TRIPOS>MOLECULE
3R540
247   249    1
SMALL
USER_CHARGES


@<TRIPOS>ATOM
      1 CA         -2.5710   -9.3431  -44.7036 C.3       0 UNK        -0.1800 
      2 C          -1.9582  -10.2283  -45.7783 C.2       0 UNK         0.5000 
      3 O          -0.7400  -10.3905  -45.8170 O.2       0 UNK        -0.5000 
      4 N          -2.7941  -10.8163  -46.6422 N.am      1 UNK        -0.5000 
      5 CA         -2.3960  -11.7150  -47.7345 C.3       1 UNK         0.1400 
      6 C6         -3.5795  -12.0259  -48.6850 C.3       23 UNK        -0.0398 
      7 S7         -5.0728  -12.6515  -47.8284 S.3       23 UNK        -0.2404 
      8 C8         -5.6406  -13.9718  -48.9452 C.3       23 UNK        -0.0205 
      9 C9         -4.6673  -15.1386  -49.0088 C.ar      23 UNK        -0.0193 
     10 C10        -3.9195  -15.3672  -50.1670 C.ar      23 UNK        -0.1150 
     11 C11        -3.0249  -16.4369  -50.2325 C.ar      23 UNK        -0.0193 
     12 C12        -2.8994  -17.2926  -49.1348 C.ar      23 UNK        -0.1150 
     13 C13        -3.6423  -17.0835  -47.9706 C.ar      23 UNK        -0.0193 
     14 C14        -4.5203  -15.9948  -47.9133 C.ar      23 UNK        -0.1150 
     15 C15        -3.4325  -18.0037  -46.7712 C.3       23 UNK        -0.0205 
     16 S16        -4.9655  -18.4212  -45.8731 S.3       23 UNK        -0.2404 
     17 C17        -5.4061  -20.0636  -46.5443 C.3       23 UNK        -0.0398 
     18 CA         -4.4779  -21.2239  -46.0906 C.3       11 UNK         0.1400 
     19 N          -4.0579  -21.0965  -44.6862 N.am      11 UNK        -0.5000 
     20 C          -3.1504  -21.8634  -44.0699 C.2       10 UNK         0.5000 
     21 O          -2.6807  -22.8907  -44.5594 O.2       10 UNK        -0.5000 
     22 CA         -2.6382  -21.3652  -42.7070 C.3       10 UNK         0.1400 
     23 CB         -2.3140  -22.5296  -41.7550 C.3       10 UNK        -0.1800 
     24 N          -1.4275  -20.5824  -42.9341 N.am      10 UNK        -0.5000 
     25 C          -1.4126  -19.3370  -43.4287 C.2       9 UNK         0.5000 
     26 O          -2.4140  -18.6266  -43.4983 O.2       9 UNK        -0.5000 
     27 CA         -0.0665  -18.8062  -43.9648 C.3       9 UNK         0.1400 
     28 CB          0.5919  -17.8794  -42.9323 C.3       9 UNK        -0.1800 
     29 N           0.8799  -19.8636  -44.3439 N.am      9 UNK        -0.5000 
     30 C           0.6812  -20.7651  -45.3200 C.2       8 UNK         0.5000 
     31 O          -0.3154  -20.7732  -46.0426 O.2       8 UNK        -0.5000 
     32 CA          1.7755  -21.8450  -45.4808 C.3       8 UNK         0.1400 
     33 CB          1.6080  -22.7071  -46.7502 C.3       8 UNK        -0.1800 
     34 N           3.1322  -21.2919  -45.3837 N.am      8 UNK        -0.5000 
     35 C           3.6805  -20.3822  -46.2006 C.2       7 UNK         0.5000 
     36 O           3.1409  -19.9432  -47.2155 O.2       7 UNK        -0.5000 
     37 CA          5.0589  -19.8375  -45.7964 C.3       7 UNK         0.1400 
     38 CB          6.1200  -20.1551  -46.8612 C.3       7 UNK        -0.1800 
     39 N           4.9643  -18.3917  -45.6272 N.am      7 UNK        -0.5000 
     40 C           4.3670  -17.7813  -44.5987 C.2       6 UNK         0.5000 
     41 O           3.9536  -18.3788  -43.6040 O.2       6 UNK        -0.5000 
     42 CA          4.1843  -16.2553  -44.7020 C.3       6 UNK         0.1400 
     43 CB          5.5351  -15.5172  -44.6267 C.3       6 UNK        -0.1800 
     44 N           3.3967  -15.8252  -45.8640 N.am      6 UNK        -0.5000 
     45 C           3.6919  -15.9156  -47.1705 C.2       5 UNK         0.5000 
     46 O           4.7259  -16.4155  -47.6167 O.2       5 UNK        -0.5000 
     47 CA          2.6673  -15.2988  -48.1415 C.3       5 UNK         0.1400 
     48 CB          1.4152  -16.1810  -48.2559 C.3       5 UNK        -0.1800 
     49 N           2.2841  -13.9449  -47.7397 N.am      5 UNK        -0.5000 
     50 C           3.1088  -12.8867  -47.7603 C.2       4 UNK         0.5000 
     51 O           4.2517  -12.9166  -48.2185 O.2       4 UNK        -0.5000 
     52 CA          2.5808  -11.5776  -47.1438 C.3       4 UNK         0.1400 
     53 CB          1.7632  -10.7779  -48.1695 C.3       4 UNK        -0.1800 
     54 N           1.7735  -11.8097  -45.9467 N.am      4 UNK        -0.5000 
     55 C           2.2455  -12.2881  -44.7867 C.2       3 UNK         0.5000 
     56 O           3.4374  -12.5009  -44.5666 O.2       3 UNK        -0.5000 
     57 CA          1.2075  -12.6129  -43.6977 C.3       3 UNK         0.1400 
     58 CB          0.9104  -11.3782  -42.8331 C.3       3 UNK        -0.1800 
     59 N          -0.0413  -13.1323  -44.2568 N.am      3 UNK        -0.5000 
     60 C          -0.1735  -14.3423  -44.8179 C.2       2 UNK         0.5000 
     61 O           0.7427  -15.1601  -44.9007 O.2       2 UNK        -0.5000 
     62 CA         -1.5519  -14.6774  -45.4160 C.3       2 UNK         0.1400 
     63 CB         -2.5097  -15.1694  -44.3220 C.3       2 UNK        -0.1800 
     64 N          -2.1573  -13.5365  -46.1010 N.am      2 UNK        -0.5000 
     65 C          -1.6885  -12.9948  -47.2336 C.2       1 UNK         0.5000 
     66 O          -0.7039  -13.4236  -47.8356 O.2       1 UNK        -0.5000 
     67 C          -5.1050  -22.5935  -46.4439 C.2       11 UNK         0.5000 
     68 O          -5.0609  -23.0033  -47.6043 O.2       11 UNK        -0.5000 
     69 N          -5.6440  -23.2922  -45.4346 N.am      12 UNK        -0.5000 
     70 CA         -6.1456  -24.6627  -45.5354 C.3       12 UNK         0.1400 
     71 CB         -6.9383  -25.0012  -44.2642 C.3       12 UNK        -0.1800 
     72 C          -5.0304  -25.7034  -45.7660 C.2       12 UNK         0.5000 
     73 O          -5.2809  -26.7159  -46.4192 O.2       12 UNK        -0.5000 
     74 N          -3.8201  -25.4389  -45.2508 N.am      13 UNK        -0.5000 
     75 CA         -2.6425  -26.2915  -45.4334 C.3       13 UNK         0.1400 
     76 CB         -1.6384  -26.0356  -44.2978 C.3       13 UNK        -0.1800 
     77 C          -1.9768  -26.0742  -46.8042 C.2       13 UNK         0.5000 
     78 O          -1.2850  -26.9696  -47.2910 O.2       13 UNK        -0.5000 
     79 N          -2.2209  -24.9114  -47.4252 N.am      14 UNK        -0.5000 
     80 CA         -1.7686  -24.5396  -48.7656 C.3       14 UNK         0.1400 
     81 CB         -1.7799  -23.0073  -48.8775 C.3       14 UNK        -0.1800 
     82 C          -2.6303  -25.2218  -49.8479 C.2       14 UNK         0.5000 
     83 O          -3.3400  -24.5493  -50.6005 O.2       14 UNK        -0.5000 
     84 N          -2.5939  -26.5628  -49.8575 N.am      15 UNK        -0.5000 
     85 CA         -3.3051  -27.4891  -50.7510 C.3       15 UNK         0.1400 
     86 CB         -2.7669  -27.3445  -52.1900 C.3       15 UNK        -0.1800 
     87 C          -4.8461  -27.3713  -50.6989 C.2       15 UNK         0.5000 
     88 O          -5.5222  -27.8378  -51.6166 O.2       15 UNK        -0.5000 
     89 N          -5.3671  -26.7107  -49.6523 N.am      16 UNK        -0.5000 
     90 CA         -6.7440  -26.2287  -49.4873 C.3       16 UNK         0.1400 
     91 CB         -7.7235  -27.4076  -49.3181 C.3       16 UNK        -0.1800 
     92 C          -7.1844  -25.2325  -50.5863 C.2       16 UNK         0.5000 
     93 O          -8.3842  -25.0423  -50.7929 O.2       16 UNK        -0.5000 
     94 N          -6.2103  -24.6200  -51.2724 N.am      17 UNK        -0.5000 
     95 CA         -6.4041  -23.7464  -52.4270 C.3       17 UNK         0.1400 
     96 CB         -5.5634  -24.3001  -53.5893 C.3       17 UNK        -0.1800 
     97 C          -5.9944  -22.2951  -52.1352 C.2       17 UNK         0.5000 
     98 O          -6.3110  -21.4184  -52.9404 O.2       17 UNK        -0.5000 
     99 N          -5.2704  -22.0648  -51.0280 N.am      18 UNK        -0.5000 
    100 CA        -4.6561  -20.8085  -50.5787 C.3       18 UNK         0.1400 
    101 CB        -5.6979  -19.6852  -50.4068 C.3       18 UNK        -0.1800 
    102 C         -3.4855  -20.3548  -51.4701 C.2       18 UNK         0.5000 
    103 O         -2.3894  -20.1243  -50.9612 O.2       18 UNK        -0.5000 
    104 N         -3.7285  -20.2693  -52.7848 N.am      19 UNK        -0.5000 
    105 CA        -2.8308  -19.7815  -53.8358 C.3       19 UNK         0.1400 
    106 CB        -3.5351  -19.9294  -55.1920 C.3       19 UNK        -0.1800 
    107 C         -1.4432  -20.4476  -53.8818 C.2       19 UNK         0.5000 
    108 O         -0.4846  -19.8043  -54.3090 O.2       19 UNK        -0.5000 
    109 N         -1.3442  -21.6961  -53.4050 N.am      20 UNK        -0.5000 
    110 CA        -0.0945  -22.4476  -53.2710 C.3       20 UNK         0.1400 
    111 CB        -0.4222  -23.8878  -52.8478 C.3       20 UNK        -0.1800 
    112 C          0.9177  -21.8090  -52.2951 C.2       20 UNK         0.5000 
    113 O          2.1178  -22.0418  -52.4426 O.2       20 UNK        -0.5000 
    114 N          0.4304  -21.0108  -51.3337 N.am      21 UNK        -0.5000 
    115 CA         1.2578  -20.2319  -50.4128 C.3       21 UNK         0.1400 
    116 CB         0.3991  -19.8141  -49.2131 C.3       21 UNK        -0.1800 
    117 C          1.8482  -18.9844  -51.0950 C.2       21 UNK         0.5000 
    118 O          3.0160  -18.6610  -50.8772 O.2       21 UNK        -0.5000 
    119 N          1.0215  -18.3059  -51.9012 N.am      22 UNK        -0.5000 
    120 CA         1.3865  -17.0863  -52.6372 C.3       22 UNK         0.1400 
    121 C          2.2356  -17.3694  -53.9068 C.2       22 UNK         0.5000 
    122 N          1.9920  -18.4559  -54.6286 N.am      22 UNK        -0.7600 
    123 O          3.1284  -16.5947  -54.2389 O.2       22 UNK        -0.5000 
    124 C124        0.1444  -16.2301  -52.9931 C.3       23 UNK        -0.0398 
    125 S125       -0.7236  -15.6032  -51.5141 S.3       23 UNK        -0.2404 
    126 C126       -2.1978  -16.6650  -51.4877 C.3       23 UNK        -0.0205 
    127 H127       -2.3108   -9.7206  -43.7147 H         1 UNK         0.0600 
    128 H128       -3.6579   -9.3060  -44.7796 H         1 UNK         0.0600 
    129 H129       -2.1876   -8.3268  -44.7932 H         1 UNK         0.0600 
    130 H130       -3.7888  -10.6598  -46.5561 H         1 UNK         0.3000 
    131 H131       -1.6529  -11.1732  -48.3235 H         1 UNK         0.0600 
    132 H132       -3.2648  -12.7203  -49.4648 H         1 UNK         0.0800 
    133 H133       -3.8650  -11.1141  -49.2109 H         1 UNK         0.0800 
    134 H134       -5.8137  -13.5529  -49.9378 H         1 UNK         0.0800 
    135 H135       -6.6079  -14.3355  -48.5957 H         1 UNK         0.0800 
    136 H136       -4.0225  -14.7063  -51.0162 H         1 UNK         0.1150 
    137 H137       -2.2168  -18.1242  -49.1831 H         1 UNK         0.1150 
    138 H138       -5.0873  -15.8047  -47.0132 H         1 UNK         0.1150 
    139 H139       -2.7594  -17.5045  -46.0755 H         1 UNK         0.0800 
    140 H140       -2.9202  -18.9189  -47.0701 H         1 UNK         0.0800 
    141 H141       -5.4270  -20.0001  -47.6312 H         1 UNK         0.0800 
    142 H142       -6.4349  -20.2576  -46.2345 H         1 UNK         0.0800 
    143 H143       -3.5602  -21.1582  -46.6794 H         1 UNK         0.0600 
    144 H144       -4.3369  -20.2340  -44.2366 H         1 UNK         0.3000 
    145 H145       -3.4027  -20.7405  -42.2398 H         1 UNK         0.0600 
    146 H146       -1.9835  -22.1619  -40.7833 H         1 UNK         0.0600 
    147 H147       -3.1949  -23.1501  -41.5858 H         1 UNK         0.0600 
    148 H148       -1.5294  -23.1758  -42.1516 H         1 UNK         0.0600 
    149 H149       -0.5593  -21.0957  -42.9309 H         1 UNK         0.3000 
    150 H150       -0.2847  -18.2184  -44.8592 H         1 UNK         0.0600 
    151 H151        0.9106  -18.4251  -42.0436 H         1 UNK         0.0600 
    152 H152       -0.0963  -17.0969  -42.6103 H         1 UNK         0.0600 
    153 H153        1.4634  -17.3803  -43.3536 H         1 UNK         0.0600 
    154 H154        1.7456  -19.8965  -43.8236 H         1 UNK         0.3000 
    155 H155        1.6605  -22.5126  -44.6257 H         1 UNK         0.0600 
    156 H156        1.6241  -22.1051  -47.6585 H         1 UNK         0.0600 
    157 H157        0.6598  -23.2450  -46.7294 H         1 UNK         0.0600 
    158 H158        2.3992  -23.4525  -46.8284 H         1 UNK         0.0600 
    159 H159        3.6597  -21.5796  -44.5712 H         1 UNK         0.3000 
    160 H160        5.3720  -20.2875  -44.8521 H         1 UNK         0.0600 
    161 H161        5.8704  -19.7086  -47.8248 H         1 UNK         0.0600 
    162 H162        6.2113  -21.2316  -47.0109 H         1 UNK         0.0600 
    163 H163        7.1002  -19.7822  -46.5638 H         1 UNK         0.0600 
    164 H164        5.1669  -17.8216  -46.4444 H         1 UNK         0.3000 
    165 H165        3.6018  -15.9495  -43.8315 H         1 UNK         0.0600 
    166 H166        5.3926  -14.4369  -44.6254 H         1 UNK         0.0600 
    167 H167        6.1886  -15.7650  -45.4633 H         1 UNK         0.0600 
    168 H168        6.0675  -15.7760  -43.7108 H         1 UNK         0.0600 
    169 H169        2.4848  -15.4435  -45.6236 H         1 UNK         0.3000 
    170 H170        3.1283  -15.2401  -49.1298 H         1 UNK         0.0600 
    171 H171        1.6794  -17.1604  -48.6509 H         1 UNK         0.0600 
    172 H172        0.9274  -16.3350  -47.2934 H         1 UNK         0.0600 
    173 H173        0.6823  -15.7430  -48.9322 H         1 UNK         0.0600 
    174 H174        1.3328  -13.8160  -47.4141 H         1 UNK         0.3000 
    175 H175        3.4434  -10.9739  -46.8540 H         1 UNK         0.0600 
    176 H176        0.8855  -11.3299  -48.5049 H         1 UNK         0.0600 
    177 H177        1.4228   -9.8307  -47.7507 H         1 UNK         0.0600 
    178 H178        2.3626  -10.5483  -49.0514 H         1 UNK         0.0600 
    179 H179        0.7873  -11.5740  -46.0076 H         1 UNK         0.3000 
    180 H180        1.6358  -13.3825  -43.0517 H         1 UNK         0.0600 
    181 H181        0.4779  -10.5666  -43.4186 H         1 UNK         0.0600 
    182 H182        1.8231  -10.9982  -42.3726 H         1 UNK         0.0600 
    183 H183        0.2162  -11.6183  -42.0276 H         1 UNK         0.0600 
    184 H184       -0.8279  -12.5007  -44.2739 H         1 UNK         0.3000 
    185 H185       -1.4132  -15.4790  -46.1444 H         1 UNK         0.0600 
    186 H186       -2.7230  -14.3899  -43.5897 H         1 UNK         0.0600 
    187 H187       -3.4583  -15.5000  -44.7459 H         1 UNK         0.0600 
    188 H188       -2.0828  -16.0146  -43.7830 H         1 UNK         0.0600 
    189 H189       -2.9734  -13.1229  -45.6745 H         1 UNK         0.3000 
    190 H190       -5.6387  -22.8774  -44.5143 H         1 UNK         0.3000 
    191 H191       -6.8297  -24.7111  -46.3842 H         1 UNK         0.0600 
    192 H192       -7.3504  -26.0100  -44.3182 H         1 UNK         0.0600 
    193 H193       -7.7757  -24.3166  -44.1270 H         1 UNK         0.0600 
    194 H194       -6.3117  -24.9497  -43.3729 H         1 UNK         0.0600 
    195 H195       -3.6544  -24.5499  -44.7880 H         1 UNK         0.3000 
    196 H196       -2.9537  -27.3371  -45.3765 H         1 UNK         0.0600 
    197 H197       -1.2135  -25.0326  -44.3475 H         1 UNK         0.0600 
    198 H198       -2.1063  -26.1550  -43.3204 H         1 UNK         0.0600 
    199 H199       -0.8081  -26.7411  -44.3493 H         1 UNK         0.0600 
    200 H200       -2.8166  -24.2444  -46.9558 H         1 UNK         0.3000 
    201 H201       -0.7385  -24.8764  -48.8987 H         1 UNK         0.0600 
    202 H202       -2.7877  -22.6052  -48.8084 H         1 UNK         0.0600 
    203 H203       -1.3606  -22.6776  -49.8274 H         1 UNK         0.0600 
    204 H204       -1.1928  -22.5528  -48.0813 H         1 UNK         0.0600 
    205 H205       -2.0215  -27.0023  -49.1422 H         1 UNK         0.3000 
    206 H206       -3.0659  -28.4948  -50.4032 H         1 UNK         0.0600 
    207 H207       -1.6812  -27.4367  -52.2164 H         1 UNK         0.0600 
    208 H208       -3.1718  -28.1188  -52.8423 H         1 UNK         0.0600 
    209 H209       -3.0311  -26.3801  -52.6251 H         1 UNK         0.0600 
    210 H210       -4.7227  -26.4038  -48.9374 H         1 UNK         0.3000 
    211 H211       -6.7524  -25.6589  -48.5588 H         1 UNK         0.0600 
    212 H212       -8.7185  -27.0547  -49.0448 H         1 UNK         0.0600 
    213 H213       -7.3924  -28.0815  -48.5278 H         1 UNK         0.0600 
    214 H214       -7.8235  -27.9875  -50.2357 H         1 UNK         0.0600 
    215 H215       -5.2446  -24.8141  -51.0235 H         1 UNK         0.3000 
    216 H216       -7.4515  -23.7350  -52.7337 H         1 UNK         0.0600 
    217 H217       -4.4995  -24.3056  -53.3485 H         1 UNK         0.0600 
    218 H218       -5.6942  -23.7005  -54.4911 H         1 UNK         0.0600 
    219 H219       -5.8547  -25.3219  -53.8328 H         1 UNK         0.0600 
    220 H220       -5.0334  -22.8698  -50.4627 H         1 UNK         0.3000 
    221 H221       -4.2420  -21.0153  -49.5922 H         1 UNK         0.0600 
    222 H222       -6.5374  -20.0148  -49.7949 H         1 UNK         0.0600 
    223 H223       -6.0978  -19.3408  -51.3606 H         1 UNK         0.0600 
    224 H224       -5.2559  -18.8185  -49.9150 H         1 UNK         0.0600 
    225 H225       -4.6669  -20.5255  -53.0813 H         1 UNK         0.3000 
    226 H226       -2.6692  -18.7184  -53.6538 H         1 UNK         0.0600 
    227 H227       -3.7672  -20.9725  -55.4109 H         1 UNK         0.0600 
    228 H228       -4.4686  -19.3668  -55.2153 H         1 UNK         0.0600 
    229 H229       -2.9099  -19.5531  -56.0031 H         1 UNK         0.0600 
    230 H230       -2.1805  -22.1396  -53.0552 H         1 UNK         0.3000 
    231 H231        0.3788  -22.4802  -54.2546 H         1 UNK         0.0600 
    232 H232       -0.9098  -23.9161  -51.8747 H         1 UNK         0.0600 
    233 H233        0.4833  -24.4918  -52.7786 H         1 UNK         0.0600 
    234 H234       -1.0821  -24.3731  -53.5671 H         1 UNK         0.0600 
    235 H235       -0.5720  -20.8583  -51.2758 H         1 UNK         0.3000 
    236 H236        2.0770  -20.8569  -50.0506 H         1 UNK         0.0600 
    237 H237       -0.1036  -20.6663  -48.7627 H         1 UNK         0.0600 
    238 H238        1.0005  -19.3488  -48.4352 H         1 UNK         0.0600 
    239 H239       -0.3592  -19.0935  -49.5058 H         1 UNK         0.0600 
    240 H240        0.0948  -18.6693  -52.0592 H         1 UNK         0.3000 
    241 H241        2.0135  -16.4811  -51.9787 H         1 UNK         0.0600 
    242 H242        2.5465  -18.6415  -55.4487 H         1 UNK         0.3800 
    243 H243        1.1925  -19.0491  -54.4172 H         1 UNK         0.3800 
    244 H244       -0.5460  -16.7945  -53.6225 H         1 UNK         0.0800 
    245 H245        0.4417  -15.3587  -53.5794 H         1 UNK         0.0800 
    246 H246       -1.8803  -17.7041  -51.5433 H         1 UNK         0.0800 
    247 H247       -2.8051  -16.4730  -52.3734 H         1 UNK         0.0800 
@<TRIPOS>BOND
     1    1    2 1    
     2    1  127 1    
     3    1  128 1    
     4    1  129 1    
     5    2    3 2    
     6    2    4 am   BACKBONE|DICT|INTERRES
     7    4    5 1    
     8    4  130 1    
     9    5    6 1    
    10    5   65 1    
    11    5  131 1    
    12    6    7 1    
    13    6  132 1    
    14    6  133 1    
    15    7    8 1    
    16    8    9 1    
    17    8  134 1    
    18    8  135 1    
    19    9   10 ar   
    20    9   14 ar   
    21   10   11 ar   
    22   10  136 1    
    23   11   12 ar   
    24   11  126 1    
    25   12   13 ar   
    26   12  137 1    
    27   13   14 ar   
    28   13   15 1    
    29   14  138 1    
    30   15   16 1    
    31   15  139 1    
    32   15  140 1    
    33   16   17 1    
    34   17   18 1    
    35   17  141 1    
    36   17  142 1    
    37   18   19 1    
    38   18   67 1    
    39   18  143 1    
    40   19   20 am   BACKBONE|DICT|INTERRES
    41   19  144 1    
    42   20   21 2    
    43   20   22 1    
    44   22   23 1    
    45   22   24 1    
    46   22  145 1    
    47   23  146 1    
    48   23  147 1    
    49   23  148 1    
    50   24   25 am   BACKBONE|DICT|INTERRES
    51   24  149 1    
    52   25   26 2    
    53   25   27 1    
    54   27   28 1    
    55   27   29 1    
    56   27  150 1    
    57   28  151 1    
    58   28  152 1    
    59   28  153 1    
    60   29   30 am   BACKBONE|DICT|INTERRES
    61   29  154 1    
    62   30   31 2    
    63   30   32 1    
    64   32   33 1    
    65   32   34 1    
    66   32  155 1    
    67   33  156 1    
    68   33  157 1    
    69   33  158 1    
    70   34   35 am   BACKBONE|DICT|INTERRES
    71   34  159 1    
    72   35   36 2    
    73   35   37 1    
    74   37   38 1    
    75   37   39 1    
    76   37  160 1    
    77   38  161 1    
    78   38  162 1    
    79   38  163 1    
    80   39   40 am   BACKBONE|DICT|INTERRES
    81   39  164 1    
    82   40   41 2    
    83   40   42 1    
    84   42   43 1    
    85   42   44 1    
    86   42  165 1    
    87   43  166 1    
    88   43  167 1    
    89   43  168 1    
    90   44   45 am   BACKBONE|DICT|INTERRES
    91   44  169 1    
    92   45   46 2    
    93   45   47 1    
    94   47   48 1    
    95   47   49 1    
    96   47  170 1    
    97   48  171 1    
    98   48  172 1    
    99   48  173 1    
   100   49   50 am   BACKBONE|DICT|INTERRES
   101   49  174 1    
   102   50   51 2    
   103   50   52 1    
   104   52   53 1    
   105   52   54 1    
   106   52  175 1    
   107   53  176 1    
   108   53  177 1    
   109   53  178 1    
   110   54   55 am   BACKBONE|DICT|INTERRES
   111   54  179 1    
   112   55   56 2    
   113   55   57 1    
   114   57   58 1    
   115   57   59 1    
   116   57  180 1    
   117   58  181 1    
   118   58  182 1    
   119   58  183 1    
   120   59   60 am   BACKBONE|DICT|INTERRES
   121   59  184 1    
   122   60   61 2    
   123   60   62 1    
   124   62   63 1    
   125   62   64 1    
   126   62  185 1    
   127   63  186 1    
   128   63  187 1    
   129   63  188 1    
   130   64   65 am   BACKBONE|DICT|INTERRES
   131   64  189 1    
   132   65   66 2    
   133   67   68 2    
   134   67   69 am   BACKBONE|DICT|INTERRES
   135   69   70 1    
   136   69  190 1    
   137   70   71 1    
   138   70   72 1    
   139   70  191 1    
   140   71  192 1    
   141   71  193 1    
   142   71  194 1    
   143   72   73 2    
   144   72   74 am   BACKBONE|DICT|INTERRES
   145   74   75 1    
   146   74  195 1    
   147   75   76 1    
   148   75   77 1    
   149   75  196 1    
   150   76  197 1    
   151   76  198 1    
   152   76  199 1    
   153   77   78 2    
   154   77   79 am   BACKBONE|DICT|INTERRES
   155   79   80 1    
   156   79  200 1    
   157   80   81 1    
   158   80   82 1    
   159   80  201 1    
   160   81  202 1    
   161   81  203 1    
   162   81  204 1    
   163   82   83 2    
   164   82   84 am   BACKBONE|DICT|INTERRES
   165   84   85 1    
   166   84  205 1    
   167   85   86 1    
   168   85   87 1    
   169   85  206 1    
   170   86  207 1    
   171   86  208 1    
   172   86  209 1    
   173   87   88 2    
   174   87   89 am   BACKBONE|DICT|INTERRES
   175   89   90 1    
   176   89  210 1    
   177   90   91 1    
   178   90   92 1    
   179   90  211 1    
   180   91  212 1    
   181   91  213 1    
   182   91  214 1    
   183   92   93 2    
   184   92   94 am   BACKBONE|DICT|INTERRES
   185   94   95 1    
   186   94  215 1    
   187   95   96 1    
   188   95   97 1    
   189   95  216 1    
   190   96  217 1    
   191   96  218 1    
   192   96  219 1    
   193   97   98 2    
   194   97   99 am   BACKBONE|DICT|INTERRES
   195   99  100 1    
   196   99  220 1    
   197  100  101 1    
   198  100  102 1    
   199  100  221 1    
   200  101  222 1    
   201  101  223 1    
   202  101  224 1    
   203  102  103 2    
   204  102  104 am   BACKBONE|DICT|INTERRES
   205  104  105 1    
   206  104  225 1    
   207  105  106 1    
   208  105  107 1    
   209  105  226 1    
   210  106  227 1    
   211  106  228 1    
   212  106  229 1    
   213  107  108 2    
   214  107  109 am   BACKBONE|DICT|INTERRES
   215  109  110 1    
   216  109  230 1    
   217  110  111 1    
   218  110  112 1    
   219  110  231 1    
   220  111  232 1    
   221  111  233 1    
   222  111  234 1    
   223  112  113 2    
   224  112  114 am   BACKBONE|DICT|INTERRES
   225  114  115 1    
   226  114  235 1    
   227  115  116 1    
   228  115  117 1    
   229  115  236 1    
   230  116  237 1    
   231  116  238 1    
   232  116  239 1    
   233  117  118 2    
   234  117  119 am   BACKBONE|DICT|INTERRES
   235  119  120 1    
   236  119  240 1    
   237  120  121 1    
   238  120  124 1    
   239  120  241 1    
   240  121  122 am   BACKBONE|DICT|INTERRES
   241  121  123 2    
   242  122  242 1    
   243  122  243 1    
   244  124  125 1    
   245  124  244 1    
   246  124  245 1    
   247  125  126 1    
   248  126  246 1    
   249  126  247 1    
@<TRIPOS>SUBSTRUCTURE
     1 UNK         1 GROUP             0       ****    0 ROOT    
