@<TRIPOS>MOLECULE
3R540
247   249    1
SMALL
USER_CHARGES


@<TRIPOS>ATOM
      1 CA         -7.6008  -16.1016  -46.3243 C.3       0 UNK        -0.1800 
      2 C          -6.2864  -15.4642  -46.7542 C.2       0 UNK         0.5000 
      3 O          -6.2820  -14.3286  -47.2299 O.2       0 UNK        -0.5000 
      4 N          -5.1789  -16.1937  -46.5788 N.am      1 UNK        -0.5000 
      5 CA         -3.8174  -15.7878  -46.9494 C.3       1 UNK         0.1400 
      6 C6         -3.2628  -16.6793  -48.0935 C.3       23 UNK        -0.0398 
      7 S7         -3.6777  -16.0506  -49.7543 S.3       23 UNK        -0.2404 
      8 C8         -2.0794  -15.3727  -50.3201 C.3       23 UNK        -0.0205 
      9 C9         -1.0338  -16.4571  -50.5510 C.ar      23 UNK        -0.0193 
     10 C10        -1.0283  -17.1893  -51.7422 C.ar      23 UNK        -0.1150 
     11 C11        -0.0924  -18.2092  -51.9451 C.ar      23 UNK        -0.0193 
     12 C12         0.8430  -18.4931  -50.9454 C.ar      23 UNK        -0.1150 
     13 C13         0.8453  -17.7710  -49.7497 C.ar      23 UNK        -0.0193 
     14 C14        -0.0798  -16.7411  -49.5688 C.ar      23 UNK        -0.1150 
     15 C15         1.8321  -18.1152  -48.6441 C.3       23 UNK        -0.0205 
     16 S16         1.3694  -19.6403  -47.7575 S.3       23 UNK        -0.2404 
     17 C17        -0.2046  -19.1613  -46.9657 C.3       23 UNK        -0.0398 
     18 CA         -0.8614  -20.3226  -46.1736 C.3       11 UNK         0.1400 
     19 N           0.0412  -20.9288  -45.1883 N.am      11 UNK        -0.5000 
     20 C           0.0314  -22.2274  -44.8595 C.2       10 UNK         0.5000 
     21 O          -0.7720  -23.0421  -45.3142 O.2       10 UNK        -0.5000 
     22 CA          1.0840  -22.6912  -43.8346 C.3       10 UNK         0.1400 
     23 CB          2.3923  -23.0726  -44.5440 C.3       10 UNK        -0.1800 
     24 N           1.3817  -21.7146  -42.7828 N.am      10 UNK        -0.5000 
     25 C           0.4946  -21.2252  -41.9044 C.2       9 UNK         0.5000 
     26 O          -0.7141  -21.4457  -41.9738 O.2       9 UNK        -0.5000 
     27 CA          1.0560  -20.3348  -40.7750 C.3       9 UNK         0.1400 
     28 CB          0.1458  -20.2962  -39.5301 C.3       9 UNK        -0.1800 
     29 N           2.4407  -20.6629  -40.4120 N.am      9 UNK        -0.5000 
     30 C           2.9036  -21.8046  -39.8747 C.2       8 UNK         0.5000 
     31 O           2.1858  -22.7608  -39.5802 O.2       8 UNK        -0.5000 
     32 CA          4.4285  -21.9245  -39.6525 C.3       8 UNK         0.1400 
     33 CB          5.0342  -22.9199  -40.6557 C.3       8 UNK        -0.1800 
     34 N           5.1463  -20.6539  -39.7736 N.am      8 UNK        -0.5000 
     35 C           5.1262  -19.6623  -38.8722 C.2       7 UNK         0.5000 
     36 O           4.5735  -19.7501  -37.7754 O.2       7 UNK        -0.5000 
     37 CA          5.8114  -18.3368  -39.2750 C.3       7 UNK         0.1400 
     38 CB          7.2064  -18.2413  -38.6381 C.3       7 UNK        -0.1800 
     39 N           5.9344  -18.1154  -40.7241 N.am      7 UNK        -0.5000 
     40 C           4.9153  -18.0773  -41.5937 C.2       6 UNK         0.5000 
     41 O           3.7429  -18.2791  -41.2677 O.2       6 UNK        -0.5000 
     42 CA          5.2765  -17.8389  -43.0751 C.3       6 UNK         0.1400 
     43 CB          6.0783  -19.0265  -43.6351 C.3       6 UNK        -0.1800 
     44 N           4.0781  -17.6698  -43.8977 N.am      6 UNK        -0.5000 
     45 C           3.2754  -16.5994  -43.8716 C.2       5 UNK         0.5000 
     46 O           3.5396  -15.5525  -43.2740 O.2       5 UNK        -0.5000 
     47 CA          1.9257  -16.7715  -44.5920 C.3       5 UNK         0.1400 
     48 CB          0.9318  -17.5165  -43.6837 C.3       5 UNK        -0.1800 
     49 N           1.3348  -15.4966  -44.9877 N.am      5 UNK        -0.5000 
     50 C           1.7916  -14.7093  -45.9706 C.2       4 UNK         0.5000 
     51 O           2.7660  -14.9950  -46.6680 O.2       4 UNK        -0.5000 
     52 CA          1.0349  -13.3931  -46.2396 C.3       4 UNK         0.1400 
     53 CB          0.4648  -13.3673  -47.6668 C.3       4 UNK        -0.1800 
     54 N          -0.0753  -13.1887  -45.3086 N.am      4 UNK        -0.5000 
     55 C          -0.0966  -12.2979  -44.3089 C.2       3 UNK         0.5000 
     56 O           0.8351  -11.5350  -44.0516 O.2       3 UNK        -0.5000 
     57 CA         -1.3781  -12.2370  -43.4513 C.3       3 UNK         0.1400 
     58 CB         -2.2519  -11.0479  -43.8796 C.3       3 UNK        -0.1800 
     59 N          -2.1846  -13.4586  -43.5120 N.am      3 UNK        -0.5000 
     60 C          -1.8351  -14.6302  -42.9646 C.2       2 UNK         0.5000 
     61 O          -0.7978  -14.8022  -42.3265 O.2       2 UNK        -0.5000 
     62 CA         -2.7823  -15.8205  -43.2073 C.3       2 UNK         0.1400 
     63 CB         -3.8166  -15.9174  -42.0752 C.3       2 UNK        -0.1800 
     64 N          -3.4837  -15.7816  -44.4968 N.am      2 UNK        -0.5000 
     65 C          -2.8977  -15.7783  -45.7056 C.2       1 UNK         0.5000 
     66 O          -1.6756  -15.7407  -45.8519 O.2       1 UNK        -0.5000 
     67 C          -2.2033  -19.8730  -45.5538 C.2       11 UNK         0.5000 
     68 O          -3.0613  -19.3936  -46.2951 O.2       11 UNK        -0.5000 
     69 N          -2.3908  -20.0206  -44.2310 N.am      12 UNK        -0.5000 
     70 CA         -3.5803  -19.5480  -43.5115 C.3       12 UNK         0.1400 
     71 CB         -3.3764  -19.6970  -41.9980 C.3       12 UNK        -0.1800 
     72 C          -4.9006  -20.2034  -43.9549 C.2       12 UNK         0.5000 
     73 O          -5.9436  -19.5518  -43.8976 O.2       12 UNK        -0.5000 
     74 N          -4.8318  -21.4408  -44.4630 N.am      13 UNK        -0.5000 
     75 CA         -5.9435  -22.1876  -45.0608 C.3       13 UNK         0.1400 
     76 CB         -5.6024  -23.6883  -45.0126 C.3       13 UNK        -0.1800 
     77 C          -6.2825  -21.7065  -46.4926 C.2       13 UNK         0.5000 
     78 O          -6.4622  -22.5287  -47.3926 O.2       13 UNK        -0.5000 
     79 N          -6.3240  -20.3791  -46.6872 N.am      14 UNK        -0.5000 
     80 CA         -6.5589  -19.6579  -47.9458 C.3       14 UNK         0.1400 
     81 CB         -8.0453  -19.7565  -48.3431 C.3       14 UNK        -0.1800 
     82 C          -5.6010  -20.0872  -49.0790 C.2       14 UNK         0.5000 
     83 O          -6.0245  -20.2248  -50.2256 O.2       14 UNK        -0.5000 
     84 N          -4.3356  -20.3363  -48.7087 N.am      15 UNK        -0.5000 
     85 CA         -3.2332  -20.8632  -49.5222 C.3       15 UNK         0.1400 
     86 CB         -2.8943  -19.9139  -50.6836 C.3       15 UNK        -0.1800 
     87 C          -3.3995  -22.3224  -49.9986 C.2       15 UNK         0.5000 
     88 O          -2.5184  -22.8192  -50.7010 O.2       15 UNK        -0.5000 
     89 N          -4.4834  -23.0020  -49.5942 N.am      16 UNK        -0.5000 
     90 CA         -4.8311  -24.3864  -49.9233 C.3       16 UNK         0.1400 
     91 CB         -3.9537  -25.3544  -49.0985 C.3       16 UNK        -0.1800 
     92 C          -4.8112  -24.6475  -51.4476 C.2       16 UNK         0.5000 
     93 O          -5.4633  -23.9162  -52.1946 O.2       16 UNK        -0.5000 
     94 N          -4.0573  -25.6623  -51.8904 N.am      17 UNK        -0.5000 
     95 CA         -3.8889  -26.0254  -53.2985 C.3       17 UNK         0.1400 
     96 CB         -3.2679  -27.4283  -53.3784 C.3       17 UNK        -0.1800 
     97 C          -3.0434  -25.0183  -54.1041 C.2       17 UNK         0.5000 
     98 O          -3.1913  -24.9543  -55.3252 O.2       17 UNK        -0.5000 
     99 N          -2.1837  -24.2415  -53.4264 N.am      18 UNK        -0.5000 
    100 CA        -1.3026  -23.2506  -54.0521 C.3       18 UNK         0.1400 
    101 CB        -0.1572  -22.8916  -53.0941 C.3       18 UNK        -0.1800 
    102 C         -2.0468  -21.9864  -54.5198 C.2       18 UNK         0.5000 
    103 O         -1.4977  -21.2269  -55.3187 O.2       18 UNK        -0.5000 
    104 N         -3.2939  -21.7941  -54.0640 N.am      19 UNK        -0.5000 
    105 CA        -4.1941  -20.7165  -54.4839 C.3       19 UNK         0.1400 
    106 CB        -5.5313  -20.8673  -53.7466 C.3       19 UNK        -0.1800 
    107 C         -4.4368  -20.6801  -56.0056 C.2       19 UNK         0.5000 
    108 O         -4.5821  -19.5976  -56.5724 O.2       19 UNK        -0.5000 
    109 N         -4.4249  -21.8590  -56.6441 N.am      20 UNK        -0.5000 
    110 CA        -4.5324  -22.0274  -58.0929 C.3       20 UNK         0.1400 
    111 CB        -4.7494  -23.5161  -58.4034 C.3       20 UNK        -0.1800 
    112 C         -3.3135  -21.4869  -58.8682 C.2       20 UNK         0.5000 
    113 O         -3.4614  -21.1246  -60.0361 O.2       20 UNK        -0.5000 
    114 N         -2.1417  -21.4393  -58.2186 N.am      21 UNK        -0.5000 
    115 CA        -0.9146  -20.8773  -58.7775 C.3       21 UNK         0.1400 
    116 CB         0.3054  -21.6103  -58.1958 C.3       21 UNK        -0.1800 
    117 C         -0.8285  -19.3656  -58.5125 C.2       21 UNK         0.5000 
    118 O         -0.4908  -18.6136  -59.4280 O.2       21 UNK        -0.5000 
    119 N         -1.1316  -18.9469  -57.2754 N.am      22 UNK        -0.5000 
    120 CA        -1.0878  -17.5337  -56.8585 C.3       22 UNK         0.1400 
    121 C         -2.2517  -16.6639  -57.4125 C.2       22 UNK         0.5000 
    122 N         -3.4293  -17.2148  -57.6780 N.am      22 UNK        -0.7600 
    123 O         -2.0791  -15.4647  -57.6128 O.2       22 UNK        -0.5000 
    124 C124       -0.9710  -17.3679  -55.3233 C.3       23 UNK        -0.0398 
    125 S125        0.5343  -18.1562  -54.6532 S.3       23 UNK        -0.2404 
    126 C126       -0.1245  -19.0489  -53.2126 C.3       23 UNK        -0.0205 
    127 H127       -7.4471  -17.0694  -45.8436 H         1 UNK         0.0600 
    128 H128       -8.2454  -16.2511  -47.1916 H         1 UNK         0.0600 
    129 H129       -8.1205  -15.4519  -45.6188 H         1 UNK         0.0600 
    130 H130       -5.2513  -17.1122  -46.1640 H         1 UNK         0.3000 
    131 H131       -3.8113  -14.7506  -47.2904 H         1 UNK         0.0600 
    132 H132       -3.6675  -17.6866  -48.0244 H         1 UNK         0.0800 
    133 H133       -2.1874  -16.8083  -48.0264 H         1 UNK         0.0800 
    134 H134       -1.7222  -14.6386  -49.5979 H         1 UNK         0.0800 
    135 H135       -2.2417  -14.8254  -51.2497 H         1 UNK         0.0800 
    136 H136       -1.7702  -16.9808  -52.4993 H         1 UNK         0.1150 
    137 H137        1.5560  -19.2937  -51.0840 H         1 UNK         0.1150 
    138 H138       -0.0744  -16.1843  -48.6437 H         1 UNK         0.1150 
    139 H139        2.8251  -18.2455  -49.0763 H         1 UNK         0.0800 
    140 H140        1.9162  -17.2926  -47.9334 H         1 UNK         0.0800 
    141 H141       -0.8811  -18.8313  -47.7553 H         1 UNK         0.0800 
    142 H142       -0.0333  -18.2920  -46.3322 H         1 UNK         0.0800 
    143 H143       -1.1183  -21.0887  -46.9072 H         1 UNK         0.0600 
    144 H144        0.7416  -20.3310  -44.7785 H         1 UNK         0.3000 
    145 H145        0.6892  -23.5845  -43.3461 H         1 UNK         0.0600 
    146 H146        3.1120  -23.4980  -43.8441 H         1 UNK         0.0600 
    147 H147        2.2136  -23.8203  -45.3181 H         1 UNK         0.0600 
    148 H148        2.8575  -22.2099  -45.0228 H         1 UNK         0.0600 
    149 H149        2.3537  -21.4806  -42.6484 H         1 UNK         0.3000 
    150 H150        1.0869  -19.3227  -41.1792 H         1 UNK         0.0600 
    151 H151       -0.8378  -19.8949  -39.7768 H         1 UNK         0.0600 
    152 H152        0.5687  -19.6594  -38.7531 H         1 UNK         0.0600 
    153 H153       -0.0057  -21.2890  -39.1060 H         1 UNK         0.0600 
    154 H154        3.1069  -19.9212  -40.6135 H         1 UNK         0.3000 
    155 H155        4.5824  -22.3155  -38.6446 H         1 UNK         0.0600 
    156 H156        4.9151  -22.5782  -41.6847 H         1 UNK         0.0600 
    157 H157        4.5552  -23.8968  -40.5774 H         1 UNK         0.0600 
    158 H158        6.0985  -23.0675  -40.4714 H         1 UNK         0.0600 
    159 H159        5.6392  -20.4948  -40.6395 H         1 UNK         0.3000 
    160 H160        5.1979  -17.5274  -38.8743 H         1 UNK         0.0600 
    161 H161        7.8788  -19.0068  -39.0274 H         1 UNK         0.0600 
    162 H162        7.1531  -18.3706  -37.5562 H         1 UNK         0.0600 
    163 H163        7.6604  -17.2677  -38.8242 H         1 UNK         0.0600 
    164 H164        6.8708  -17.9585  -41.0683 H         1 UNK         0.3000 
    165 H165        5.8830  -16.9333  -43.1417 H         1 UNK         0.0600 
    166 H166        6.3269  -18.8725  -44.6855 H         1 UNK         0.0600 
    167 H167        7.0202  -19.1590  -43.1016 H         1 UNK         0.0600 
    168 H168        5.5223  -19.9620  -43.5573 H         1 UNK         0.0600 
    169 H169        3.7749  -18.4895  -44.4011 H         1 UNK         0.3000 
    170 H170        2.0880  -17.3637  -45.4941 H         1 UNK         0.0600 
    171 H171        0.8176  -17.0153  -42.7216 H         1 UNK         0.0600 
    172 H172       -0.0561  -17.5888  -44.1369 H         1 UNK         0.0600 
    173 H173        1.2762  -18.5305  -43.4828 H         1 UNK         0.0600 
    174 H174        0.5541  -15.1717  -44.4364 H         1 UNK         0.3000 
    175 H175        1.7653  -12.5865  -46.1523 H         1 UNK         0.0600 
    176 H176       -0.3339  -14.0981  -47.7835 H         1 UNK         0.0600 
    177 H177        0.0533  -12.3866  -47.9054 H         1 UNK         0.0600 
    178 H178        1.2314  -13.5874  -48.4110 H         1 UNK         0.0600 
    179 H179       -0.8653  -13.8115  -45.4278 H         1 UNK         0.3000 
    180 H180       -1.0715  -12.0804  -42.4148 H         1 UNK         0.0600 
    181 H181       -3.1258  -10.9475  -43.2356 H         1 UNK         0.0600 
    182 H182       -2.6011  -11.1547  -44.9074 H         1 UNK         0.0600 
    183 H183       -1.6958  -10.1114  -43.8177 H         1 UNK         0.0600 
    184 H184       -3.0547  -13.4050  -44.0208 H         1 UNK         0.3000 
    185 H185       -2.1710  -16.7245  -43.1912 H         1 UNK         0.0600 
    186 H186       -4.4664  -16.7835  -42.1973 H         1 UNK         0.0600 
    187 H187       -3.3255  -16.0160  -41.1061 H         1 UNK         0.0600 
    188 H188       -4.4499  -15.0303  -42.0332 H         1 UNK         0.0600 
    189 H189       -4.4924  -15.7620  -44.4596 H         1 UNK         0.3000 
    190 H190       -1.6755  -20.4719  -43.6728 H         1 UNK         0.3000 
    191 H191       -3.6810  -18.4866  -43.7333 H         1 UNK         0.0600 
    192 H192       -4.2227  -19.2852  -41.4466 H         1 UNK         0.0600 
    193 H193       -2.4842  -19.1663  -41.6653 H         1 UNK         0.0600 
    194 H194       -3.2766  -20.7433  -41.7078 H         1 UNK         0.0600 
    195 H195       -3.9245  -21.8822  -44.5030 H         1 UNK         0.3000 
    196 H196       -6.8368  -22.0293  -44.4532 H         1 UNK         0.0600 
    197 H197       -4.7268  -23.9208  -45.6203 H         1 UNK         0.0600 
    198 H198       -5.3991  -24.0142  -43.9923 H         1 UNK         0.0600 
    199 H199       -6.4310  -24.2928  -45.3837 H         1 UNK         0.0600 
    200 H200       -6.1748  -19.8058  -45.8639 H         1 UNK         0.3000 
    201 H201       -6.3389  -18.6084  -47.7506 H         1 UNK         0.0600 
    202 H202       -8.2610  -19.1365  -49.2140 H         1 UNK         0.0600 
    203 H203       -8.6920  -19.4142  -47.5352 H         1 UNK         0.0600 
    204 H204       -8.3290  -20.7802  -48.5897 H         1 UNK         0.0600 
    205 H205       -4.0926  -20.1552  -47.7388 H         1 UNK         0.3000 
    206 H206       -2.3656  -20.8750  -48.8639 H         1 UNK         0.0600 
    207 H207       -2.6977  -18.9099  -50.3121 H         1 UNK         0.0600 
    208 H208       -2.0004  -20.2484  -51.2096 H         1 UNK         0.0600 
    209 H209       -3.6972  -19.8495  -51.4159 H         1 UNK         0.0600 
    210 H210       -5.1624  -22.5204  -49.0155 H         1 UNK         0.3000 
    211 H211       -5.8655  -24.5247  -49.6058 H         1 UNK         0.0600 
    212 H212       -4.2588  -26.3912  -49.2448 H         1 UNK         0.0600 
    213 H213       -4.0470  -25.1454  -48.0325 H         1 UNK         0.0600 
    214 H214       -2.8970  -25.2723  -49.3564 H         1 UNK         0.0600 
    215 H215       -3.5395  -26.2081  -51.2170 H         1 UNK         0.3000 
    216 H216       -4.8774  -26.0646  -53.7613 H         1 UNK         0.0600 
    217 H217       -2.2805  -27.4585  -52.9159 H         1 UNK         0.0600 
    218 H218       -3.1543  -27.7472  -54.4155 H         1 UNK         0.0600 
    219 H219       -3.8959  -28.1673  -52.8803 H         1 UNK         0.0600 
    220 H220       -2.1675  -24.2839  -52.4148 H         1 UNK         0.3000 
    221 H221       -0.8589  -23.7075  -54.9393 H         1 UNK         0.0600 
    222 H222        0.3391  -23.7849  -52.7149 H         1 UNK         0.0600 
    223 H223       -0.5049  -22.3102  -52.2404 H         1 UNK         0.0600 
    224 H224        0.5990  -22.2965  -53.6071 H         1 UNK         0.0600 
    225 H225       -3.6689  -22.4655  -53.4075 H         1 UNK         0.3000 
    226 H226       -3.7365  -19.7695  -54.1912 H         1 UNK         0.0600 
    227 H227       -6.0562  -21.7752  -54.0468 H         1 UNK         0.0600 
    228 H228       -5.3871  -20.9154  -52.6687 H         1 UNK         0.0600 
    229 H229       -6.1894  -20.0220  -53.9514 H         1 UNK         0.0600 
    230 H230       -4.2773  -22.6993  -56.1019 H         1 UNK         0.3000 
    231 H231       -5.4103  -21.4743  -58.4332 H         1 UNK         0.0600 
    232 H232       -3.9093  -24.1236  -58.0637 H         1 UNK         0.0600 
    233 H233       -4.8618  -23.6803  -59.4759 H         1 UNK         0.0600 
    234 H234       -5.6518  -23.8927  -57.9214 H         1 UNK         0.0600 
    235 H235       -2.1107  -21.6954  -57.2395 H         1 UNK         0.3000 
    236 H236       -0.9045  -21.0314  -59.8587 H         1 UNK         0.0600 
    237 H237        0.3935  -21.4713  -57.1182 H         1 UNK         0.0600 
    238 H238        0.2519  -22.6812  -58.3920 H         1 UNK         0.0600 
    239 H239        1.2280  -21.2428  -58.6465 H         1 UNK         0.0600 
    240 H240       -1.3556  -19.6319  -56.5617 H         1 UNK         0.3000 
    241 H241       -0.1769  -17.1075  -57.2844 H         1 UNK         0.0600 
    242 H242       -4.1682  -16.6364  -58.0441 H         1 UNK         0.3800 
    243 H243       -3.6340  -18.1787  -57.4310 H         1 UNK         0.3800 
    244 H244       -1.8605  -17.7743  -54.8402 H         1 UNK         0.0800 
    245 H245       -0.9323  -16.3113  -55.0520 H         1 UNK         0.0800 
    246 H246       -1.1430  -19.3862  -53.4010 H         1 UNK         0.0800 
    247 H247        0.4692  -19.9527  -53.0762 H         1 UNK         0.0800 
@<TRIPOS>BOND
     1    1    2 1    
     2    1  127 1    
     3    1  128 1    
     4    1  129 1    
     5    2    3 2    
     6    2    4 am   BACKBONE|DICT|INTERRES
     7    4    5 1    
     8    4  130 1    
     9    5    6 1    
    10    5   65 1    
    11    5  131 1    
    12    6    7 1    
    13    6  132 1    
    14    6  133 1    
    15    7    8 1    
    16    8    9 1    
    17    8  134 1    
    18    8  135 1    
    19    9   10 ar   
    20    9   14 ar   
    21   10   11 ar   
    22   10  136 1    
    23   11   12 ar   
    24   11  126 1    
    25   12   13 ar   
    26   12  137 1    
    27   13   14 ar   
    28   13   15 1    
    29   14  138 1    
    30   15   16 1    
    31   15  139 1    
    32   15  140 1    
    33   16   17 1    
    34   17   18 1    
    35   17  141 1    
    36   17  142 1    
    37   18   19 1    
    38   18   67 1    
    39   18  143 1    
    40   19   20 am   BACKBONE|DICT|INTERRES
    41   19  144 1    
    42   20   21 2    
    43   20   22 1    
    44   22   23 1    
    45   22   24 1    
    46   22  145 1    
    47   23  146 1    
    48   23  147 1    
    49   23  148 1    
    50   24   25 am   BACKBONE|DICT|INTERRES
    51   24  149 1    
    52   25   26 2    
    53   25   27 1    
    54   27   28 1    
    55   27   29 1    
    56   27  150 1    
    57   28  151 1    
    58   28  152 1    
    59   28  153 1    
    60   29   30 am   BACKBONE|DICT|INTERRES
    61   29  154 1    
    62   30   31 2    
    63   30   32 1    
    64   32   33 1    
    65   32   34 1    
    66   32  155 1    
    67   33  156 1    
    68   33  157 1    
    69   33  158 1    
    70   34   35 am   BACKBONE|DICT|INTERRES
    71   34  159 1    
    72   35   36 2    
    73   35   37 1    
    74   37   38 1    
    75   37   39 1    
    76   37  160 1    
    77   38  161 1    
    78   38  162 1    
    79   38  163 1    
    80   39   40 am   BACKBONE|DICT|INTERRES
    81   39  164 1    
    82   40   41 2    
    83   40   42 1    
    84   42   43 1    
    85   42   44 1    
    86   42  165 1    
    87   43  166 1    
    88   43  167 1    
    89   43  168 1    
    90   44   45 am   BACKBONE|DICT|INTERRES
    91   44  169 1    
    92   45   46 2    
    93   45   47 1    
    94   47   48 1    
    95   47   49 1    
    96   47  170 1    
    97   48  171 1    
    98   48  172 1    
    99   48  173 1    
   100   49   50 am   BACKBONE|DICT|INTERRES
   101   49  174 1    
   102   50   51 2    
   103   50   52 1    
   104   52   53 1    
   105   52   54 1    
   106   52  175 1    
   107   53  176 1    
   108   53  177 1    
   109   53  178 1    
   110   54   55 am   BACKBONE|DICT|INTERRES
   111   54  179 1    
   112   55   56 2    
   113   55   57 1    
   114   57   58 1    
   115   57   59 1    
   116   57  180 1    
   117   58  181 1    
   118   58  182 1    
   119   58  183 1    
   120   59   60 am   BACKBONE|DICT|INTERRES
   121   59  184 1    
   122   60   61 2    
   123   60   62 1    
   124   62   63 1    
   125   62   64 1    
   126   62  185 1    
   127   63  186 1    
   128   63  187 1    
   129   63  188 1    
   130   64   65 am   BACKBONE|DICT|INTERRES
   131   64  189 1    
   132   65   66 2    
   133   67   68 2    
   134   67   69 am   BACKBONE|DICT|INTERRES
   135   69   70 1    
   136   69  190 1    
   137   70   71 1    
   138   70   72 1    
   139   70  191 1    
   140   71  192 1    
   141   71  193 1    
   142   71  194 1    
   143   72   73 2    
   144   72   74 am   BACKBONE|DICT|INTERRES
   145   74   75 1    
   146   74  195 1    
   147   75   76 1    
   148   75   77 1    
   149   75  196 1    
   150   76  197 1    
   151   76  198 1    
   152   76  199 1    
   153   77   78 2    
   154   77   79 am   BACKBONE|DICT|INTERRES
   155   79   80 1    
   156   79  200 1    
   157   80   81 1    
   158   80   82 1    
   159   80  201 1    
   160   81  202 1    
   161   81  203 1    
   162   81  204 1    
   163   82   83 2    
   164   82   84 am   BACKBONE|DICT|INTERRES
   165   84   85 1    
   166   84  205 1    
   167   85   86 1    
   168   85   87 1    
   169   85  206 1    
   170   86  207 1    
   171   86  208 1    
   172   86  209 1    
   173   87   88 2    
   174   87   89 am   BACKBONE|DICT|INTERRES
   175   89   90 1    
   176   89  210 1    
   177   90   91 1    
   178   90   92 1    
   179   90  211 1    
   180   91  212 1    
   181   91  213 1    
   182   91  214 1    
   183   92   93 2    
   184   92   94 am   BACKBONE|DICT|INTERRES
   185   94   95 1    
   186   94  215 1    
   187   95   96 1    
   188   95   97 1    
   189   95  216 1    
   190   96  217 1    
   191   96  218 1    
   192   96  219 1    
   193   97   98 2    
   194   97   99 am   BACKBONE|DICT|INTERRES
   195   99  100 1    
   196   99  220 1    
   197  100  101 1    
   198  100  102 1    
   199  100  221 1    
   200  101  222 1    
   201  101  223 1    
   202  101  224 1    
   203  102  103 2    
   204  102  104 am   BACKBONE|DICT|INTERRES
   205  104  105 1    
   206  104  225 1    
   207  105  106 1    
   208  105  107 1    
   209  105  226 1    
   210  106  227 1    
   211  106  228 1    
   212  106  229 1    
   213  107  108 2    
   214  107  109 am   BACKBONE|DICT|INTERRES
   215  109  110 1    
   216  109  230 1    
   217  110  111 1    
   218  110  112 1    
   219  110  231 1    
   220  111  232 1    
   221  111  233 1    
   222  111  234 1    
   223  112  113 2    
   224  112  114 am   BACKBONE|DICT|INTERRES
   225  114  115 1    
   226  114  235 1    
   227  115  116 1    
   228  115  117 1    
   229  115  236 1    
   230  116  237 1    
   231  116  238 1    
   232  116  239 1    
   233  117  118 2    
   234  117  119 am   BACKBONE|DICT|INTERRES
   235  119  120 1    
   236  119  240 1    
   237  120  121 1    
   238  120  124 1    
   239  120  241 1    
   240  121  122 am   BACKBONE|DICT|INTERRES
   241  121  123 2    
   242  122  242 1    
   243  122  243 1    
   244  124  125 1    
   245  124  244 1    
   246  124  245 1    
   247  125  126 1    
   248  126  246 1    
   249  126  247 1    
@<TRIPOS>SUBSTRUCTURE
     1 UNK         1 GROUP             0       ****    0 ROOT    
