@<TRIPOS>MOLECULE
3R540
247   249    1
SMALL
USER_CHARGES


@<TRIPOS>ATOM
      1 CA         -1.4258  -10.1668  -47.4348 C.3       0 UNK        -0.1800 
      2 C           0.0912  -10.2799  -47.4910 C.2       0 UNK         0.5000 
      3 O           0.7912   -9.4194  -46.9557 O.2       0 UNK        -0.5000 
      4 N           0.5980  -11.3335  -48.1417 N.am      1 UNK        -0.5000 
      5 CA          2.0203  -11.6835  -48.2037 C.3       1 UNK         0.1400 
      6 C6          2.3197  -12.6192  -49.4019 C.3       23 UNK        -0.0398 
      7 S7          1.4086  -14.2029  -49.3860 S.3       23 UNK        -0.2404 
      8 C8          2.1193  -14.9560  -50.8802 C.3       23 UNK        -0.0205 
      9 C9          1.3113  -16.1560  -51.3415 C.ar      23 UNK        -0.0193 
     10 C10         0.1987  -15.9710  -52.1675 C.ar      23 UNK        -0.1150 
     11 C11        -0.5330  -17.0681  -52.6277 C.ar      23 UNK        -0.0193 
     12 C12        -0.1481  -18.3563  -52.2459 C.ar      23 UNK        -0.1150 
     13 C13         0.9473  -18.5561  -51.4020 C.ar      23 UNK        -0.0193 
     14 C14         1.6822  -17.4494  -50.9628 C.ar      23 UNK        -0.1150 
     15 C15         1.3346  -19.9737  -50.9945 C.3       23 UNK        -0.0205 
     16 S16         1.6233  -20.1716  -49.2046 S.3       23 UNK        -0.2404 
     17 C17        -0.0096  -19.7745  -48.4861 C.3       23 UNK        -0.0398 
     18 CA         -0.8997  -21.0216  -48.2530 C.3       11 UNK         0.1400 
     19 N          -0.1787  -22.0841  -47.5464 N.am      11 UNK        -0.5000 
     20 C          -0.6783  -23.2339  -47.0737 C.2       10 UNK         0.5000 
     21 O          -1.8389  -23.6085  -47.2483 O.2       10 UNK        -0.5000 
     22 CA          0.2644  -24.0740  -46.1919 C.3       10 UNK         0.1400 
     23 CB          0.9398  -25.1658  -47.0333 C.3       10 UNK        -0.1800 
     24 N           1.2949  -23.3006  -45.4815 N.am      10 UNK        -0.5000 
     25 C           1.0791  -22.2535  -44.6706 C.2       9 UNK         0.5000 
     26 O          -0.0289  -21.7428  -44.4842 O.2       9 UNK        -0.5000 
     27 CA          2.3166  -21.6309  -44.0034 C.3       9 UNK         0.1400 
     28 CB          2.8242  -20.4473  -44.8402 C.3       9 UNK        -0.1800 
     29 N           2.0017  -21.1562  -42.6579 N.am      9 UNK        -0.5000 
     30 C           1.7203  -21.9470  -41.6129 C.2       8 UNK         0.5000 
     31 O           1.8071  -23.1753  -41.6461 O.2       8 UNK        -0.5000 
     32 CA          1.2771  -21.2581  -40.3068 C.3       8 UNK         0.1400 
     33 CB          2.4231  -21.2591  -39.2832 C.3       8 UNK        -0.1800 
     34 N           0.8287  -19.8789  -40.5025 N.am      8 UNK        -0.5000 
     35 C          -0.3383  -19.5055  -41.0403 C.2       7 UNK         0.5000 
     36 O          -1.2018  -20.3050  -41.3982 O.2       7 UNK        -0.5000 
     37 CA         -0.5896  -17.9954  -41.2354 C.3       7 UNK         0.1400 
     38 CB         -1.5799  -17.4562  -40.1864 C.3       7 UNK        -0.1800 
     39 N           0.6140  -17.1555  -41.3066 N.am      7 UNK        -0.5000 
     40 C           1.5031  -16.8601  -40.3470 C.2       6 UNK         0.5000 
     41 O           1.4948  -17.3572  -39.2212 O.2       6 UNK        -0.5000 
     42 CA          2.6009  -15.8482  -40.7182 C.3       6 UNK         0.1400 
     43 CB          3.7949  -16.5730  -41.3583 C.3       6 UNK        -0.1800 
     44 N           2.1169  -14.8009  -41.6204 N.am      6 UNK        -0.5000 
     45 C           1.2310  -13.8533  -41.2771 C.2       5 UNK         0.5000 
     46 O           0.7902  -13.7105  -40.1359 O.2       5 UNK        -0.5000 
     47 CA          0.7347  -12.9220  -42.3986 C.3       5 UNK         0.1400 
     48 CB          1.7399  -11.7893  -42.6544 C.3       5 UNK        -0.1800 
     49 N           0.4742  -13.6335  -43.6493 N.am      5 UNK        -0.5000 
     50 C          -0.4972  -14.5386  -43.8330 C.2       4 UNK         0.5000 
     51 O          -1.3209  -14.8483  -42.9727 O.2       4 UNK        -0.5000 
     52 CA         -0.5344  -15.2397  -45.2027 C.3       4 UNK         0.1400 
     53 CB         -1.2974  -14.3956  -46.2353 C.3       4 UNK        -0.1800 
     54 N           0.8054  -15.5337  -45.7091 N.am      4 UNK        -0.5000 
     55 C           1.6283  -16.4510  -45.1835 C.2       3 UNK         0.5000 
     56 O           1.3344  -17.1653  -44.2240 O.2       3 UNK        -0.5000 
     57 CA          3.0279  -16.5558  -45.8170 C.3       3 UNK         0.1400 
     58 CB          2.9700  -17.3489  -47.1309 C.3       3 UNK        -0.1800 
     59 N           3.6291  -15.2450  -46.0703 N.am      3 UNK        -0.5000 
     60 C           3.9919  -14.3810  -45.1114 C.2       2 UNK         0.5000 
     61 O           3.8847  -14.6130  -43.9088 O.2       2 UNK        -0.5000 
     62 CA          4.5177  -13.0058  -45.5678 C.3       2 UNK         0.1400 
     63 CB          6.0297  -13.0696  -45.8300 C.3       2 UNK        -0.1800 
     64 N           3.8429  -12.4645  -46.7522 N.am      2 UNK        -0.5000 
     65 C           2.5208  -12.2719  -46.8655 C.2       1 UNK         0.5000 
     66 O           1.7171  -12.5708  -45.9791 O.2       1 UNK        -0.5000 
     67 C          -2.2029  -20.6196  -47.5305 C.2       11 UNK         0.5000 
     68 O          -3.2392  -20.4867  -48.1813 O.2       11 UNK        -0.5000 
     69 N          -2.1266  -20.4968  -46.1992 N.am      12 UNK        -0.5000 
     70 CA         -3.2531  -20.1942  -45.3244 C.3       12 UNK         0.1400 
     71 CB         -2.8415  -19.0710  -44.3623 C.3       12 UNK        -0.1800 
     72 C          -3.7065  -21.4400  -44.5456 C.2       12 UNK         0.5000 
     73 O          -4.9085  -21.6932  -44.4722 O.2       12 UNK        -0.5000 
     74 N          -2.7539  -22.2051  -43.9915 N.am      13 UNK        -0.5000 
     75 CA         -3.0073  -23.3257  -43.0795 C.3       13 UNK         0.1400 
     76 CB         -1.6867  -23.7761  -42.4373 C.3       13 UNK        -0.1800 
     77 C          -3.7225  -24.5241  -43.7283 C.2       13 UNK         0.5000 
     78 O          -4.5261  -25.1770  -43.0615 O.2       13 UNK        -0.5000 
     79 N          -3.4342  -24.7800  -45.0101 N.am      14 UNK        -0.5000 
     80 CA         -4.0926  -25.8011  -45.8293 C.3       14 UNK         0.1400 
     81 CB         -3.0158  -26.7038  -46.4574 C.3       14 UNK        -0.1800 
     82 C          -4.9839  -25.1593  -46.9113 C.2       14 UNK         0.5000 
     83 O          -5.5223  -25.8789  -47.7531 O.2       14 UNK        -0.5000 
     84 N          -5.1073  -23.8220  -46.8802 N.am      15 UNK        -0.5000 
     85 CA         -5.8098  -22.9577  -47.8326 C.3       15 UNK         0.1400 
     86 CB         -7.3339  -23.1778  -47.7485 C.3       15 UNK        -0.1800 
     87 C          -5.2735  -23.0695  -49.2750 C.2       15 UNK         0.5000 
     88 O          -6.0266  -22.8509  -50.2273 O.2       15 UNK        -0.5000 
     89 N          -3.9777  -23.3876  -49.4279 N.am      16 UNK        -0.5000 
     90 CA         -3.3309  -23.6083  -50.7237 C.3       16 UNK         0.1400 
     91 CB         -1.9243  -24.1912  -50.5219 C.3       16 UNK        -0.1800 
     92 C          -3.3019  -22.3657  -51.6339 C.2       16 UNK         0.5000 
     93 O          -3.1911  -22.5271  -52.8461 O.2       16 UNK        -0.5000 
     94 N          -3.4537  -21.1629  -51.0583 N.am      17 UNK        -0.5000 
     95 CA         -3.6195  -19.9089  -51.7945 C.3       17 UNK         0.1400 
     96 CB         -3.4519  -18.7255  -50.8292 C.3       17 UNK        -0.1800 
     97 C          -4.9630  -19.7945  -52.5384 C.2       17 UNK         0.5000 
     98 O          -5.0415  -19.0425  -53.5102 O.2       17 UNK        -0.5000 
     99 N          -5.9866  -20.5150  -52.0618 N.am      18 UNK        -0.5000 
    100 CA        -7.3215  -20.5570  -52.6538 C.3       18 UNK         0.1400 
    101 CB        -8.3697  -20.4391  -51.5356 C.3       18 UNK        -0.1800 
    102 C         -7.5307  -21.8527  -53.4523 C.2       18 UNK         0.5000 
    103 O         -8.1346  -21.8118  -54.5248 O.2       18 UNK        -0.5000 
    104 N         -7.0385  -22.9796  -52.9179 N.am      19 UNK        -0.5000 
    105 CA        -7.1785  -24.3090  -53.5151 C.3       19 UNK         0.1400 
    106 CB        -6.8822  -25.3702  -52.4443 C.3       19 UNK        -0.1800 
    107 C         -6.2912  -24.5289  -54.7561 C.2       19 UNK         0.5000 
    108 O         -6.6258  -25.3695  -55.5923 O.2       19 UNK        -0.5000 
    109 N         -5.1849  -23.7852  -54.8568 N.am      20 UNK        -0.5000 
    110 CA        -4.2222  -23.8294  -55.9517 C.3       20 UNK         0.1400 
    111 CB        -3.2585  -25.0203  -55.7512 C.3       20 UNK        -0.1800 
    112 C         -3.5197  -22.4615  -56.0369 C.2       20 UNK         0.5000 
    113 O         -4.1574  -21.4412  -55.7625 O.2       20 UNK        -0.5000 
    114 N         -2.2282  -22.4655  -56.4024 N.am      21 UNK        -0.5000 
    115 CA        -1.2961  -21.3337  -56.4273 C.3       21 UNK         0.1400 
    116 CB        -0.8663  -20.9770  -54.9872 C.3       21 UNK        -0.1800 
    117 C         -1.8349  -20.1298  -57.2269 C.2       21 UNK         0.5000 
    118 O         -1.8073  -20.1631  -58.4583 O.2       21 UNK        -0.5000 
    119 N         -2.3120  -19.1020  -56.5162 N.am      22 UNK        -0.5000 
    120 CA        -2.9040  -17.8796  -57.0781 C.3       22 UNK         0.1400 
    121 C         -4.3252  -18.0774  -57.6841 C.2       22 UNK         0.5000 
    122 N         -5.0187  -19.1788  -57.4187 N.am      22 UNK        -0.7600 
    123 O         -4.8047  -17.2145  -58.4147 O.2       22 UNK        -0.5000 
    124 C124       -2.9095  -16.7106  -56.0568 C.3       23 UNK        -0.0398 
    125 S125       -1.2984  -16.4549  -55.2274 S.3       23 UNK        -0.2404 
    126 C126       -1.7519  -16.8613  -53.5136 C.3       23 UNK        -0.0205 
    127 H127       -1.7629  -10.1739  -46.3983 H         1 UNK         0.0600 
    128 H128       -1.9132  -10.9916  -47.9554 H         1 UNK         0.0600 
    129 H129       -1.7510   -9.2337  -47.8950 H         1 UNK         0.0600 
    130 H130       -0.0270  -12.0194  -48.5399 H         1 UNK         0.3000 
    131 H131        2.5807  -10.7602  -48.3654 H         1 UNK         0.0600 
    132 H132        2.0669  -12.0980  -50.3264 H         1 UNK         0.0800 
    133 H133        3.3883  -12.8287  -49.4727 H         1 UNK         0.0800 
    134 H134        3.1524  -15.2461  -50.6822 H         1 UNK         0.0800 
    135 H135        2.1559  -14.2173  -51.6825 H         1 UNK         0.0800 
    136 H136       -0.0943  -14.9720  -52.4590 H         1 UNK         0.1150 
    137 H137       -0.7030  -19.2097  -52.6027 H         1 UNK         0.1150 
    138 H138        2.5416  -17.5958  -50.3237 H         1 UNK         0.1150 
    139 H139        0.5700  -20.6891  -51.3018 H         1 UNK         0.0800 
    140 H140        2.2453  -20.2497  -51.5271 H         1 UNK         0.0800 
    141 H141       -0.5191  -19.0486  -49.1200 H         1 UNK         0.0800 
    142 H142        0.1783  -19.2605  -47.5415 H         1 UNK         0.0800 
    143 H143       -1.1789  -21.4129  -49.2304 H         1 UNK         0.0600 
    144 H144        0.7936  -21.8889  -47.3590 H         1 UNK         0.3000 
    145 H145       -0.3545  -24.5631  -45.4383 H         1 UNK         0.0600 
    146 H146        0.1989  -25.7704  -47.5586 H         1 UNK         0.0600 
    147 H147        1.5231  -25.8423  -46.4084 H         1 UNK         0.0600 
    148 H148        1.6073  -24.7401  -47.7837 H         1 UNK         0.0600 
    149 H149        2.2421  -23.6341  -45.5898 H         1 UNK         0.3000 
    150 H150        3.1060  -22.3819  -43.9318 H         1 UNK         0.0600 
    151 H151        2.0561  -19.6814  -44.9501 H         1 UNK         0.0600 
    152 H152        3.1126  -20.7683  -45.8420 H         1 UNK         0.0600 
    153 H153        3.6980  -19.9826  -44.3831 H         1 UNK         0.0600 
    154 H154        1.8626  -20.1629  -42.5503 H         1 UNK         0.3000 
    155 H155        0.4473  -21.8368  -39.8956 H         1 UNK         0.0600 
    156 H156        3.2797  -20.6848  -39.6385 H         1 UNK         0.0600 
    157 H157        2.7679  -22.2742  -39.0818 H         1 UNK         0.0600 
    158 H158        2.1031  -20.8312  -38.3329 H         1 UNK         0.0600 
    159 H159        1.4327  -19.1444  -40.1531 H         1 UNK         0.3000 
    160 H160       -1.0629  -17.8869  -42.2113 H         1 UNK         0.0600 
    161 H161       -1.1917  -17.5510  -39.1720 H         1 UNK         0.0600 
    162 H162       -2.5233  -18.0020  -40.2263 H         1 UNK         0.0600 
    163 H163       -1.8052  -16.4044  -40.3643 H         1 UNK         0.0600 
    164 H164        0.7871  -16.7606  -42.2246 H         1 UNK         0.3000 
    165 H165        2.9430  -15.3734  -39.7963 H         1 UNK         0.0600 
    166 H166        4.6191  -15.8842  -41.5436 H         1 UNK         0.0600 
    167 H167        4.1719  -17.3612  -40.7054 H         1 UNK         0.0600 
    168 H168        3.5240  -17.0339  -42.3092 H         1 UNK         0.0600 
    169 H169        2.4968  -14.8046  -42.5627 H         1 UNK         0.3000 
    170 H170       -0.2046  -12.4733  -42.0688 H         1 UNK         0.0600 
    171 H171        1.3770  -11.1046  -43.4214 H         1 UNK         0.0600 
    172 H172        2.7052  -12.1758  -42.9808 H         1 UNK         0.0600 
    173 H173        1.9090  -11.2058  -41.7486 H         1 UNK         0.0600 
    174 H174        1.0624  -13.3909  -44.4435 H         1 UNK         0.3000 
    175 H175       -1.0650  -16.1860  -45.0788 H         1 UNK         0.0600 
    176 H176       -2.3175  -14.2016  -45.9018 H         1 UNK         0.0600 
    177 H177       -0.8188  -13.4304  -46.4023 H         1 UNK         0.0600 
    178 H178       -1.3601  -14.9085  -47.1952 H         1 UNK         0.0600 
    179 H179        1.1457  -14.9446  -46.4556 H         1 UNK         0.3000 
    180 H180        3.6706  -17.0963  -45.1187 H         1 UNK         0.0600 
    181 H181        2.3461  -16.8549  -47.8768 H         1 UNK         0.0600 
    182 H182        2.5555  -18.3429  -46.9662 H         1 UNK         0.0600 
    183 H183        3.9637  -17.4809  -47.5588 H         1 UNK         0.0600 
    184 H184        3.7386  -14.9692  -47.0347 H         1 UNK         0.3000 
    185 H185        4.3470  -12.3041  -44.7494 H         1 UNK         0.0600 
    186 H186        6.5617  -13.4506  -44.9570 H         1 UNK         0.0600 
    187 H187        6.2659  -13.7242  -46.6699 H         1 UNK         0.0600 
    188 H188        6.4350  -12.0816  -46.0488 H         1 UNK         0.0600 
    189 H189        4.4445  -12.1938  -47.5165 H         1 UNK         0.3000 
    190 H190       -1.2507  -20.7201  -45.7383 H         1 UNK         0.3000 
    191 H191       -4.1065  -19.8396  -45.9065 H         1 UNK         0.0600 
    192 H192       -2.6444  -18.1450  -44.9021 H         1 UNK         0.0600 
    193 H193       -3.6256  -18.8648  -43.6326 H         1 UNK         0.0600 
    194 H194       -1.9380  -19.3358  -43.8144 H         1 UNK         0.0600 
    195 H195       -1.7777  -21.9375  -44.1020 H         1 UNK         0.3000 
    196 H196       -3.6548  -22.9546  -42.2824 H         1 UNK         0.0600 
    197 H197       -1.8538  -24.5801  -41.7196 H         1 UNK         0.0600 
    198 H198       -1.2119  -22.9569  -41.8987 H         1 UNK         0.0600 
    199 H199       -0.9775  -24.1418  -43.1791 H         1 UNK         0.0600 
    200 H200       -2.7758  -24.1861  -45.5010 H         1 UNK         0.3000 
    201 H201       -4.7419  -26.4289  -45.2162 H         1 UNK         0.0600 
    202 H202       -3.4702  -27.5377  -46.9936 H         1 UNK         0.0600 
    203 H203       -2.3622  -27.1278  -45.6950 H         1 UNK         0.0600 
    204 H204       -2.3934  -26.1618  -47.1691 H         1 UNK         0.0600 
    205 H205       -4.6602  -23.3381  -46.1140 H         1 UNK         0.3000 
    206 H206       -5.6072  -21.9334  -47.5168 H         1 UNK         0.0600 
    207 H207       -7.6890  -23.0845  -46.7222 H         1 UNK         0.0600 
    208 H208       -7.8703  -22.4384  -48.3442 H         1 UNK         0.0600 
    209 H209       -7.6211  -24.1634  -48.1160 H         1 UNK         0.0600 
    210 H210       -3.4041  -23.5255  -48.6023 H         1 UNK         0.3000 
    211 H211       -3.9184  -24.3635  -51.2470 H         1 UNK         0.0600 
    212 H212       -1.2487  -23.4837  -50.0468 H         1 UNK         0.0600 
    213 H213       -1.4802  -24.4684  -51.4787 H         1 UNK         0.0600 
    214 H214       -1.9542  -25.0901  -49.9056 H         1 UNK         0.0600 
    215 H215       -3.5401  -21.1062  -50.0483 H         1 UNK         0.3000 
    216 H216       -2.8354  -19.8578  -52.5470 H         1 UNK         0.0600 
    217 H217       -3.5684  -17.7725  -51.3457 H         1 UNK         0.0600 
    218 H218       -2.4645  -18.7254  -50.3711 H         1 UNK         0.0600 
    219 H219       -4.1940  -18.7520  -50.0306 H         1 UNK         0.0600 
    220 H220       -5.8259  -21.1334  -51.2749 H         1 UNK         0.3000 
    221 H221       -7.4630  -19.7167  -53.3367 H         1 UNK         0.0600 
    222 H222       -8.2878  -21.2537  -50.8147 H         1 UNK         0.0600 
    223 H223       -8.2600  -19.5004  -50.9924 H         1 UNK         0.0600 
    224 H224       -9.3806  -20.4623  -51.9444 H         1 UNK         0.0600 
    225 H225       -6.6024  -22.9390  -52.0005 H         1 UNK         0.3000 
    226 H226       -8.2169  -24.4311  -53.8303 H         1 UNK         0.0600 
    227 H227       -7.0420  -26.3755  -52.8361 H         1 UNK         0.0600 
    228 H228       -5.8512  -25.3146  -52.0971 H         1 UNK         0.0600 
    229 H229       -7.5333  -25.2510  -51.5780 H         1 UNK         0.0600 
    230 H230       -4.9859  -23.0845  -54.1521 H         1 UNK         0.3000 
    231 H231       -4.7601  -23.9637  -56.8922 H         1 UNK         0.0600 
    232 H232       -2.6482  -24.8928  -54.8558 H         1 UNK         0.0600 
    233 H233       -2.5886  -25.1425  -56.6027 H         1 UNK         0.0600 
    234 H234       -3.8045  -25.9579  -55.6467 H         1 UNK         0.0600 
    235 H235       -1.8188  -23.3576  -56.6393 H         1 UNK         0.3000 
    236 H236       -0.4056  -21.6756  -56.9570 H         1 UNK         0.0600 
    237 H237       -1.7190  -20.7142  -54.3632 H         1 UNK         0.0600 
    238 H238       -0.3639  -21.8190  -54.5110 H         1 UNK         0.0600 
    239 H239       -0.1693  -20.1376  -54.9773 H         1 UNK         0.0600 
    240 H240       -2.3356  -19.1829  -55.5118 H         1 UNK         0.3000 
    241 H241       -2.2653  -17.5738  -57.9090 H         1 UNK         0.0600 
    242 H242       -5.9363  -19.2954  -57.8166 H         1 UNK         0.3800 
    243 H243       -4.6458  -19.8930  -56.7974 H         1 UNK         0.3800 
    244 H244       -3.6850  -16.8714  -55.3052 H         1 UNK         0.0800 
    245 H245       -3.1735  -15.7786  -56.5594 H         1 UNK         0.0800 
    246 H246       -2.3688  -17.7592  -53.5155 H         1 UNK         0.0800 
    247 H247       -2.3722  -16.0625  -53.1045 H         1 UNK         0.0800 
@<TRIPOS>BOND
     1    1    2 1    
     2    1  127 1    
     3    1  128 1    
     4    1  129 1    
     5    2    3 2    
     6    2    4 am   BACKBONE|DICT|INTERRES
     7    4    5 1    
     8    4  130 1    
     9    5    6 1    
    10    5   65 1    
    11    5  131 1    
    12    6    7 1    
    13    6  132 1    
    14    6  133 1    
    15    7    8 1    
    16    8    9 1    
    17    8  134 1    
    18    8  135 1    
    19    9   10 ar   
    20    9   14 ar   
    21   10   11 ar   
    22   10  136 1    
    23   11   12 ar   
    24   11  126 1    
    25   12   13 ar   
    26   12  137 1    
    27   13   14 ar   
    28   13   15 1    
    29   14  138 1    
    30   15   16 1    
    31   15  139 1    
    32   15  140 1    
    33   16   17 1    
    34   17   18 1    
    35   17  141 1    
    36   17  142 1    
    37   18   19 1    
    38   18   67 1    
    39   18  143 1    
    40   19   20 am   BACKBONE|DICT|INTERRES
    41   19  144 1    
    42   20   21 2    
    43   20   22 1    
    44   22   23 1    
    45   22   24 1    
    46   22  145 1    
    47   23  146 1    
    48   23  147 1    
    49   23  148 1    
    50   24   25 am   BACKBONE|DICT|INTERRES
    51   24  149 1    
    52   25   26 2    
    53   25   27 1    
    54   27   28 1    
    55   27   29 1    
    56   27  150 1    
    57   28  151 1    
    58   28  152 1    
    59   28  153 1    
    60   29   30 am   BACKBONE|DICT|INTERRES
    61   29  154 1    
    62   30   31 2    
    63   30   32 1    
    64   32   33 1    
    65   32   34 1    
    66   32  155 1    
    67   33  156 1    
    68   33  157 1    
    69   33  158 1    
    70   34   35 am   BACKBONE|DICT|INTERRES
    71   34  159 1    
    72   35   36 2    
    73   35   37 1    
    74   37   38 1    
    75   37   39 1    
    76   37  160 1    
    77   38  161 1    
    78   38  162 1    
    79   38  163 1    
    80   39   40 am   BACKBONE|DICT|INTERRES
    81   39  164 1    
    82   40   41 2    
    83   40   42 1    
    84   42   43 1    
    85   42   44 1    
    86   42  165 1    
    87   43  166 1    
    88   43  167 1    
    89   43  168 1    
    90   44   45 am   BACKBONE|DICT|INTERRES
    91   44  169 1    
    92   45   46 2    
    93   45   47 1    
    94   47   48 1    
    95   47   49 1    
    96   47  170 1    
    97   48  171 1    
    98   48  172 1    
    99   48  173 1    
   100   49   50 am   BACKBONE|DICT|INTERRES
   101   49  174 1    
   102   50   51 2    
   103   50   52 1    
   104   52   53 1    
   105   52   54 1    
   106   52  175 1    
   107   53  176 1    
   108   53  177 1    
   109   53  178 1    
   110   54   55 am   BACKBONE|DICT|INTERRES
   111   54  179 1    
   112   55   56 2    
   113   55   57 1    
   114   57   58 1    
   115   57   59 1    
   116   57  180 1    
   117   58  181 1    
   118   58  182 1    
   119   58  183 1    
   120   59   60 am   BACKBONE|DICT|INTERRES
   121   59  184 1    
   122   60   61 2    
   123   60   62 1    
   124   62   63 1    
   125   62   64 1    
   126   62  185 1    
   127   63  186 1    
   128   63  187 1    
   129   63  188 1    
   130   64   65 am   BACKBONE|DICT|INTERRES
   131   64  189 1    
   132   65   66 2    
   133   67   68 2    
   134   67   69 am   BACKBONE|DICT|INTERRES
   135   69   70 1    
   136   69  190 1    
   137   70   71 1    
   138   70   72 1    
   139   70  191 1    
   140   71  192 1    
   141   71  193 1    
   142   71  194 1    
   143   72   73 2    
   144   72   74 am   BACKBONE|DICT|INTERRES
   145   74   75 1    
   146   74  195 1    
   147   75   76 1    
   148   75   77 1    
   149   75  196 1    
   150   76  197 1    
   151   76  198 1    
   152   76  199 1    
   153   77   78 2    
   154   77   79 am   BACKBONE|DICT|INTERRES
   155   79   80 1    
   156   79  200 1    
   157   80   81 1    
   158   80   82 1    
   159   80  201 1    
   160   81  202 1    
   161   81  203 1    
   162   81  204 1    
   163   82   83 2    
   164   82   84 am   BACKBONE|DICT|INTERRES
   165   84   85 1    
   166   84  205 1    
   167   85   86 1    
   168   85   87 1    
   169   85  206 1    
   170   86  207 1    
   171   86  208 1    
   172   86  209 1    
   173   87   88 2    
   174   87   89 am   BACKBONE|DICT|INTERRES
   175   89   90 1    
   176   89  210 1    
   177   90   91 1    
   178   90   92 1    
   179   90  211 1    
   180   91  212 1    
   181   91  213 1    
   182   91  214 1    
   183   92   93 2    
   184   92   94 am   BACKBONE|DICT|INTERRES
   185   94   95 1    
   186   94  215 1    
   187   95   96 1    
   188   95   97 1    
   189   95  216 1    
   190   96  217 1    
   191   96  218 1    
   192   96  219 1    
   193   97   98 2    
   194   97   99 am   BACKBONE|DICT|INTERRES
   195   99  100 1    
   196   99  220 1    
   197  100  101 1    
   198  100  102 1    
   199  100  221 1    
   200  101  222 1    
   201  101  223 1    
   202  101  224 1    
   203  102  103 2    
   204  102  104 am   BACKBONE|DICT|INTERRES
   205  104  105 1    
   206  104  225 1    
   207  105  106 1    
   208  105  107 1    
   209  105  226 1    
   210  106  227 1    
   211  106  228 1    
   212  106  229 1    
   213  107  108 2    
   214  107  109 am   BACKBONE|DICT|INTERRES
   215  109  110 1    
   216  109  230 1    
   217  110  111 1    
   218  110  112 1    
   219  110  231 1    
   220  111  232 1    
   221  111  233 1    
   222  111  234 1    
   223  112  113 2    
   224  112  114 am   BACKBONE|DICT|INTERRES
   225  114  115 1    
   226  114  235 1    
   227  115  116 1    
   228  115  117 1    
   229  115  236 1    
   230  116  237 1    
   231  116  238 1    
   232  116  239 1    
   233  117  118 2    
   234  117  119 am   BACKBONE|DICT|INTERRES
   235  119  120 1    
   236  119  240 1    
   237  120  121 1    
   238  120  124 1    
   239  120  241 1    
   240  121  122 am   BACKBONE|DICT|INTERRES
   241  121  123 2    
   242  122  242 1    
   243  122  243 1    
   244  124  125 1    
   245  124  244 1    
   246  124  245 1    
   247  125  126 1    
   248  126  246 1    
   249  126  247 1    
@<TRIPOS>SUBSTRUCTURE
     1 UNK         1 GROUP             0       ****    0 ROOT    
