@<TRIPOS>MOLECULE
3R540
247   249    1
SMALL
USER_CHARGES


@<TRIPOS>ATOM
      1 CA         -5.1851  -17.3742  -45.0202 C.3       0 UNK        -0.1800 
      2 C          -4.0660  -16.3447  -45.0696 C.2       0 UNK         0.5000 
      3 O          -3.7741  -15.6988  -44.0625 O.2       0 UNK        -0.5000 
      4 N          -3.4181  -16.1925  -46.2317 N.am      1 UNK        -0.5000 
      5 CA         -2.3630  -15.1991  -46.4701 C.3       1 UNK         0.1400 
      6 C6         -1.9998  -15.0721  -47.9683 C.3       23 UNK        -0.0398 
      7 S7         -1.3697  -16.6114  -48.7231 S.3       23 UNK        -0.2404 
      8 C8          0.3700  -16.1526  -48.9898 C.3       23 UNK        -0.0205 
      9 C9          1.1180  -17.2692  -49.6936 C.ar      23 UNK        -0.0193 
     10 C10         1.1229  -17.3419  -51.0884 C.ar      23 UNK        -0.1150 
     11 C11         1.7756  -18.3911  -51.7410 C.ar      23 UNK        -0.0193 
     12 C12         2.4320  -19.3697  -50.9883 C.ar      23 UNK        -0.1150 
     13 C13         2.4363  -19.3029  -49.5920 C.ar      23 UNK        -0.0193 
     14 C14         1.7871  -18.2437  -48.9513 C.ar      23 UNK        -0.1150 
     15 C15         3.1045  -20.3958  -48.7712 C.3       23 UNK        -0.0205 
     16 S16         2.0372  -21.8630  -48.6222 S.3       23 UNK        -0.2404 
     17 C17         0.5645  -21.1204  -47.8456 C.3       23 UNK        -0.0398 
     18 CA         -0.3812  -22.1661  -47.2251 C.3       11 UNK         0.1400 
     19 N           0.2573  -22.9304  -46.1544 N.am      11 UNK        -0.5000 
     20 C          -0.2231  -24.0765  -45.6536 C.2       10 UNK         0.5000 
     21 O          -1.2559  -24.6106  -46.0558 O.2       10 UNK        -0.5000 
     22 CA          0.5412  -24.7030  -44.4699 C.3       10 UNK         0.1400 
     23 CB          1.5816  -25.7110  -44.9788 C.3       10 UNK        -0.1800 
     24 N           1.2075  -23.7134  -43.6210 N.am      10 UNK        -0.5000 
     25 C           0.5916  -22.7074  -42.9850 C.2       9 UNK         0.5000 
     26 O          -0.6309  -22.5550  -42.9823 O.2       9 UNK        -0.5000 
     27 CA          1.4883  -21.6624  -42.2926 C.3       9 UNK         0.1400 
     28 CB          1.5903  -21.9594  -40.7897 C.3       9 UNK        -0.1800 
     29 N           2.8424  -21.5309  -42.8494 N.am      9 UNK        -0.5000 
     30 C           3.1420  -21.2201  -44.1189 C.2       8 UNK         0.5000 
     31 O           2.3069  -21.1366  -45.0204 O.2       8 UNK        -0.5000 
     32 CA          4.6251  -20.9613  -44.4416 C.3       8 UNK         0.1400 
     33 CB          5.1334  -21.9632  -45.4906 C.3       8 UNK        -0.1800 
     34 N           4.8373  -19.5974  -44.9338 N.am      8 UNK        -0.5000 
     35 C           4.6426  -18.4870  -44.2095 C.2       7 UNK         0.5000 
     36 O           4.3175  -18.5011  -43.0181 O.2       7 UNK        -0.5000 
     37 CA          4.8592  -17.1386  -44.9222 C.3       7 UNK         0.1400 
     38 CB          3.9178  -16.9661  -46.1328 C.3       7 UNK        -0.1800 
     39 N           4.6551  -16.0754  -43.9408 N.am      7 UNK        -0.5000 
     40 C           4.9498  -14.7791  -44.0721 C.2       6 UNK         0.5000 
     41 O           5.3942  -14.2710  -45.1037 O.2       6 UNK        -0.5000 
     42 CA          4.7306  -13.9003  -42.8248 C.3       6 UNK         0.1400 
     43 CB          6.0305  -13.1920  -42.4090 C.3       6 UNK        -0.1800 
     44 N           3.6885  -12.8983  -43.0473 N.am      6 UNK        -0.5000 
     45 C           2.3827  -13.1792  -43.1277 C.2       5 UNK         0.5000 
     46 O           1.9284  -14.3158  -42.9968 O.2       5 UNK        -0.5000 
     47 CA          1.4361  -11.9957  -43.3859 C.3       5 UNK         0.1400 
     48 CB          1.5798  -11.4784  -44.8275 C.3       5 UNK        -0.1800 
     49 N           0.0541  -12.4203  -43.1773 N.am      5 UNK        -0.5000 
     50 C          -0.8760  -11.7656  -42.4750 C.2       4 UNK         0.5000 
     51 O          -0.6804  -10.6829  -41.9208 O.2       4 UNK        -0.5000 
     52 CA         -2.2656  -12.4265  -42.3742 C.3       4 UNK         0.1400 
     53 CB         -3.1136  -12.0847  -43.6089 C.3       4 UNK        -0.1800 
     54 N          -2.2118  -13.8815  -42.2214 N.am      4 UNK        -0.5000 
     55 C          -1.7820  -14.5229  -41.1238 C.2       3 UNK         0.5000 
     56 O          -1.3975  -13.9504  -40.1036 O.2       3 UNK        -0.5000 
     57 CA         -1.7670  -16.0609  -41.1796 C.3       3 UNK         0.1400 
     58 CB         -3.1506  -16.6432  -40.8491 C.3       3 UNK        -0.1800 
     59 N          -1.3462  -16.5086  -42.5060 N.am      3 UNK        -0.5000 
     60 C          -0.0899  -16.8601  -42.8126 C.2       2 UNK         0.5000 
     61 O           0.7798  -17.0639  -41.9650 O.2       2 UNK        -0.5000 
     62 CA          0.2683  -17.0186  -44.3055 C.3       2 UNK         0.1400 
     63 CB          0.7291  -18.4477  -44.6153 C.3       2 UNK        -0.1800 
     64 N          -0.8155  -16.6533  -45.2206 N.am      2 UNK        -0.5000 
     65 C          -1.1179  -15.3969  -45.5774 C.2       1 UNK         0.5000 
     66 O          -0.4971  -14.4103  -45.1887 O.2       1 UNK        -0.5000 
     67 C          -1.6830  -21.4851  -46.7606 C.2       11 UNK         0.5000 
     68 O          -2.5843  -21.3199  -47.5809 O.2       11 UNK        -0.5000 
     69 N          -1.7839  -21.1237  -45.4715 N.am      12 UNK        -0.5000 
     70 CA         -3.0138  -20.5956  -44.8747 C.3       12 UNK         0.1400 
     71 CB         -2.7079  -19.8257  -43.5798 C.3       12 UNK        -0.1800 
     72 C          -4.0417  -21.7081  -44.6206 C.2       12 UNK         0.5000 
     73 O          -5.2331  -21.4845  -44.8308 O.2       12 UNK        -0.5000 
     74 N          -3.5607  -22.8925  -44.2152 N.am      13 UNK        -0.5000 
     75 CA         -4.3741  -24.0965  -44.0340 C.3       13 UNK         0.1400 
     76 CB         -3.5404  -25.1804  -43.3336 C.3       13 UNK        -0.1800 
     77 C          -4.9560  -24.6151  -45.3635 C.2       13 UNK         0.5000 
     78 O          -6.1339  -24.9703  -45.4158 O.2       13 UNK        -0.5000 
     79 N          -4.1292  -24.6163  -46.4185 N.am      14 UNK        -0.5000 
     80 CA         -4.5229  -24.9677  -47.7845 C.3       14 UNK         0.1400 
     81 CB         -3.2566  -25.2730  -48.6004 C.3       14 UNK        -0.1800 
     82 C          -5.3438  -23.8685  -48.4879 C.2       14 UNK         0.5000 
     83 O          -6.0599  -24.1769  -49.4408 O.2       14 UNK        -0.5000 
     84 N          -5.1962  -22.6162  -48.0275 N.am      15 UNK        -0.5000 
     85 CA         -5.6980  -21.3734  -48.6248 C.3       15 UNK         0.1400 
     86 CB         -7.2377  -21.3114  -48.5665 C.3       15 UNK        -0.1800 
     87 C          -5.1288  -21.1692  -50.0441 C.2       15 UNK         0.5000 
     88 O          -5.8799  -20.9223  -50.9877 O.2       15 UNK        -0.5000 
     89 N          -3.8016  -21.3188  -50.1634 N.am      16 UNK        -0.5000 
     90 CA         -3.0454  -21.4521  -51.4126 C.3       16 UNK         0.1400 
     91 CB         -1.5462  -21.5471  -51.0902 C.3       16 UNK        -0.1800 
     92 C          -3.2950  -20.3435  -52.4485 C.2       16 UNK         0.5000 
     93 O          -3.4489  -20.6451  -53.6329 O.2       16 UNK        -0.5000 
     94 N          -3.3582  -19.0907  -51.9809 N.am      17 UNK        -0.5000 
     95 CA         -3.5978  -17.9156  -52.8178 C.3       17 UNK         0.1400 
     96 CB         -3.2294  -16.6513  -52.0277 C.3       17 UNK        -0.1800 
     97 C          -5.0431  -17.8318  -53.3464 C.2       17 UNK         0.5000 
     98 O          -5.2510  -17.3346  -54.4532 O.2       17 UNK        -0.5000 
     99 N          -6.0105  -18.3302  -52.5635 N.am      18 UNK        -0.5000 
    100 CA        -7.4265  -18.3886  -52.9338 C.3       18 UNK         0.1400 
    101 CB        -8.2874  -18.4311  -51.6620 C.3       18 UNK        -0.1800 
    102 C         -7.7245  -19.5990  -53.8352 C.2       18 UNK         0.5000 
    103 O         -8.5112  -19.4834  -54.7753 O.2       18 UNK        -0.5000 
    104 N         -7.0649  -20.7289  -53.5473 N.am      19 UNK        -0.5000 
    105 CA        -7.1231  -21.9723  -54.3173 C.3       19 UNK         0.1400 
    106 CB        -6.5158  -23.0990  -53.4654 C.3       19 UNK        -0.1800 
    107 C         -6.4015  -21.8888  -55.6778 C.2       19 UNK         0.5000 
    108 O         -6.6180  -22.7557  -56.5252 O.2       19 UNK        -0.5000 
    109 N         -5.5469  -20.8682  -55.8467 N.am      20 UNK        -0.5000 
    110 CA        -4.6581  -20.6172  -56.9855 C.3       20 UNK         0.1400 
    111 CB        -5.4550  -20.3875  -58.2864 C.3       20 UNK        -0.1800 
    112 C         -3.5556  -21.6879  -57.1268 C.2       20 UNK         0.5000 
    113 O         -3.0680  -21.9388  -58.2307 O.2       20 UNK        -0.5000 
    114 N         -3.1457  -22.2703  -55.9908 N.am      21 UNK        -0.5000 
    115 CA        -2.0567  -23.2443  -55.8821 C.3       21 UNK         0.1400 
    116 CB        -2.1143  -23.9032  -54.4959 C.3       21 UNK        -0.1800 
    117 C         -0.6729  -22.6115  -56.1285 C.2       21 UNK         0.5000 
    118 O          0.2704  -23.3213  -56.4786 O.2       21 UNK        -0.5000 
    119 N         -0.5923  -21.2855  -55.9654 N.am      22 UNK        -0.5000 
    120 CA         0.5667  -20.4410  -56.2860 C.3       22 UNK         0.1400 
    121 C          0.8826  -20.3239  -57.8084 C.2       22 UNK         0.5000 
    122 N          0.0023  -20.7385  -58.7136 N.am      22 UNK        -0.7600 
    123 O          1.9529  -19.8471  -58.1754 O.2       22 UNK        -0.5000 
    124 C124        0.4196  -19.0301  -55.6608 C.3       23 UNK        -0.0398 
    125 S125        0.1501  -19.0741  -53.8561 S.3       23 UNK        -0.2404 
    126 C126        1.7554  -18.4679  -53.2575 C.3       23 UNK        -0.0205 
    127 H127       -5.1890  -18.0122  -45.9042 H         1 UNK         0.0600 
    128 H128       -6.1497  -16.8711  -44.9571 H         1 UNK         0.0600 
    129 H129       -5.0770  -18.0091  -44.1418 H         1 UNK         0.0600 
    130 H130       -3.6780  -16.7531  -47.0308 H         1 UNK         0.3000 
    131 H131       -2.7868  -14.2366  -46.1763 H         1 UNK         0.0600 
    132 H132       -1.2836  -14.2617  -48.1150 H         1 UNK         0.0800 
    133 H133       -2.8867  -14.7731  -48.5286 H         1 UNK         0.0800 
    134 H134        0.8415  -15.9272  -48.0316 H         1 UNK         0.0800 
    135 H135        0.4224  -15.2406  -49.5865 H         1 UNK         0.0800 
    136 H136        0.5993  -16.5940  -51.6674 H         1 UNK         0.1150 
    137 H137        2.9230  -20.1942  -51.4859 H         1 UNK         0.1150 
    138 H138        1.7748  -18.1932  -47.8728 H         1 UNK         0.1150 
    139 H139        3.3504  -20.0317  -47.7727 H         1 UNK         0.0800 
    140 H140        4.0481  -20.6842  -49.2363 H         1 UNK         0.0800 
    141 H141        0.0442  -20.5416  -48.6101 H         1 UNK         0.0800 
    142 H142        0.8862  -20.4064  -47.0880 H         1 UNK         0.0800 
    143 H143       -0.6582  -22.8700  -48.0127 H         1 UNK         0.0600 
    144 H144        1.0969  -22.5189  -45.7568 H         1 UNK         0.3000 
    145 H145       -0.1843  -25.2365  -43.8528 H         1 UNK         0.0600 
    146 H146        1.1125  -26.4765  -45.5986 H         1 UNK         0.0600 
    147 H147        2.0748  -26.2216  -44.1516 H         1 UNK         0.0600 
    148 H148        2.3501  -25.2255  -45.5818 H         1 UNK         0.0600 
    149 H149        2.2149  -23.7541  -43.5798 H         1 UNK         0.3000 
    150 H150        0.9963  -20.6951  -42.4126 H         1 UNK         0.0600 
    151 H151        2.1133  -22.8976  -40.6000 H         1 UNK         0.0600 
    152 H152        0.6004  -22.0376  -40.3378 H         1 UNK         0.0600 
    153 H153        2.1218  -21.1649  -40.2655 H         1 UNK         0.0600 
    154 H154        3.5962  -21.5755  -42.1791 H         1 UNK         0.3000 
    155 H155        5.2167  -21.0903  -43.5329 H         1 UNK         0.0600 
    156 H156        4.5946  -21.8699  -46.4345 H         1 UNK         0.0600 
    157 H157        5.0067  -22.9893  -45.1432 H         1 UNK         0.0600 
    158 H158        6.1944  -21.8184  -45.6941 H         1 UNK         0.0600 
    159 H159        5.0969  -19.5101  -45.9046 H         1 UNK         0.3000 
    160 H160        5.8962  -17.1028  -45.2612 H         1 UNK         0.0600 
    161 H161        2.8722  -16.9785  -45.8343 H         1 UNK         0.0600 
    162 H162        4.0619  -17.7606  -46.8647 H         1 UNK         0.0600 
    163 H163        4.0997  -16.0263  -46.6533 H         1 UNK         0.0600 
    164 H164        4.2978  -16.4234  -43.0578 H         1 UNK         0.3000 
    165 H165        4.4217  -14.5377  -41.9931 H         1 UNK         0.0600 
    166 H166        6.8274  -13.9149  -42.2298 H         1 UNK         0.0600 
    167 H167        6.3800  -12.5024  -43.1784 H         1 UNK         0.0600 
    168 H168        5.8936  -12.6253  -41.4878 H         1 UNK         0.0600 
    169 H169        4.0011  -11.9502  -43.1973 H         1 UNK         0.3000 
    170 H170        1.7001  -11.1996  -42.6870 H         1 UNK         0.0600 
    171 H171        1.3566  -12.2590  -45.5563 H         1 UNK         0.0600 
    172 H172        2.5926  -11.1248  -45.0235 H         1 UNK         0.0600 
    173 H173        0.9037  -10.6442  -45.0148 H         1 UNK         0.0600 
    174 H174       -0.1780  -13.3126  -43.6061 H         1 UNK         0.3000 
    175 H175       -2.7665  -12.0150  -41.4955 H         1 UNK         0.0600 
    176 H176       -3.2270  -11.0053  -43.7171 H         1 UNK         0.0600 
    177 H177       -2.6567  -12.4593  -44.5251 H         1 UNK         0.0600 
    178 H178       -4.1138  -12.5119  -43.5333 H         1 UNK         0.0600 
    179 H179       -2.5768  -14.4299  -42.9912 H         1 UNK         0.3000 
    180 H180       -1.0699  -16.4165  -40.4180 H         1 UNK         0.0600 
    181 H181       -3.9226  -16.2814  -41.5277 H         1 UNK         0.0600 
    182 H182       -3.4531  -16.3695  -39.8377 H         1 UNK         0.0600 
    183 H183       -3.1416  -17.7320  -40.9028 H         1 UNK         0.0600 
    184 H184       -2.0148  -16.3701  -43.2538 H         1 UNK         0.3000 
    185 H185        1.1121  -16.3530  -44.4924 H         1 UNK         0.0600 
    186 H186        1.5936  -18.7053  -44.0045 H         1 UNK         0.0600 
    187 H187       -0.0406  -19.1882  -44.4117 H         1 UNK         0.0600 
    188 H188        1.0283  -18.5507  -45.6564 H         1 UNK         0.0600 
    189 H189       -1.3795  -17.4043  -45.5895 H         1 UNK         0.3000 
    190 H190       -1.0293  -21.3513  -44.8376 H         1 UNK         0.3000 
    191 H191       -3.4677  -19.8919  -45.5757 H         1 UNK         0.0600 
    192 H192       -2.2191  -18.8791  -43.7965 H         1 UNK         0.0600 
    193 H193       -3.6226  -19.5876  -43.0357 H         1 UNK         0.0600 
    194 H194       -2.0699  -20.3913  -42.9020 H         1 UNK         0.0600 
    195 H195       -2.5693  -22.9743  -44.0267 H         1 UNK         0.3000 
    196 H196       -5.2110  -23.8395  -43.3812 H         1 UNK         0.0600 
    197 H197       -4.1458  -26.0646  -43.1304 H         1 UNK         0.0600 
    198 H198       -3.1522  -24.8248  -42.3790 H         1 UNK         0.0600 
    199 H199       -2.6938  -25.4978  -43.9419 H         1 UNK         0.0600 
    200 H200       -3.1475  -24.3968  -46.2719 H         1 UNK         0.3000 
    201 H201       -5.1352  -25.8711  -47.7496 H         1 UNK         0.0600 
    202 H202       -3.5085  -25.5768  -49.6173 H         1 UNK         0.0600 
    203 H203       -2.6833  -26.0841  -48.1511 H         1 UNK         0.0600 
    204 H204       -2.6048  -24.4012  -48.6703 H         1 UNK         0.0600 
    205 H205       -4.5524  -22.4847  -47.2600 H         1 UNK         0.3000 
    206 H206       -5.3109  -20.5576  -48.0126 H         1 UNK         0.0600 
    207 H207       -7.5989  -21.4788  -47.5518 H         1 UNK         0.0600 
    208 H208       -7.5983  -20.3322  -48.8818 H         1 UNK         0.0600 
    209 H209       -7.7014  -22.0549  -49.2154 H         1 UNK         0.0600 
    210 H210       -3.2774  -21.4533  -49.3022 H         1 UNK         0.3000 
    211 H211       -3.3565  -22.3945  -51.8663 H         1 UNK         0.0600 
    212 H212       -0.9556  -21.6840  -51.9971 H         1 UNK         0.0600 
    213 H213       -1.3329  -22.3901  -50.4332 H         1 UNK         0.0600 
    214 H214       -1.1848  -20.6395  -50.6058 H         1 UNK         0.0600 
    215 H215       -3.2195  -18.9340  -50.9935 H         1 UNK         0.3000 
    216 H216       -2.9351  -17.9756  -53.6841 H         1 UNK         0.0600 
    217 H217       -2.1769  -16.6612  -51.7433 H         1 UNK         0.0600 
    218 H218       -3.8231  -16.5554  -51.1178 H         1 UNK         0.0600 
    219 H219       -3.3941  -15.7539  -52.6253 H         1 UNK         0.0600 
    220 H220       -5.7492  -18.7957  -51.7048 H         1 UNK         0.3000 
    221 H221       -7.6876  -17.4834  -53.4865 H         1 UNK         0.0600 
    222 H222       -8.0945  -19.3274  -51.0724 H         1 UNK         0.0600 
    223 H223       -8.0985  -17.5646  -51.0281 H         1 UNK         0.0600 
    224 H224       -9.3491  -18.4267  -51.9114 H         1 UNK         0.0600 
    225 H225       -6.4950  -20.7508  -52.7038 H         1 UNK         0.3000 
    226 H226       -8.1712  -22.2089  -54.5110 H         1 UNK         0.0600 
    227 H227       -7.0410  -23.2045  -52.5156 H         1 UNK         0.0600 
    228 H228       -6.5777  -24.0586  -53.9799 H         1 UNK         0.0600 
    229 H229       -5.4643  -22.9113  -53.2445 H         1 UNK         0.0600 
    230 H230       -5.4199  -20.2495  -55.0574 H         1 UNK         0.3000 
    231 H231       -4.1390  -19.6860  -56.7542 H         1 UNK         0.0600 
    232 H232       -5.9333  -21.3016  -58.6387 H         1 UNK         0.0600 
    233 H233       -4.8023  -20.0344  -59.0856 H         1 UNK         0.0600 
    234 H234       -6.2304  -19.6345  -58.1455 H         1 UNK         0.0600 
    235 H235       -3.5313  -21.9237  -55.1177 H         1 UNK         0.3000 
    236 H236       -2.2109  -24.0159  -56.6392 H         1 UNK         0.0600 
    237 H237       -1.9287  -23.1799  -53.7027 H         1 UNK         0.0600 
    238 H238       -3.0869  -24.3611  -54.3142 H         1 UNK         0.0600 
    239 H239       -1.3621  -24.6878  -54.4058 H         1 UNK         0.0600 
    240 H240       -1.4126  -20.8011  -55.6321 H         1 UNK         0.3000 
    241 H241        1.4405  -20.9137  -55.8338 H         1 UNK         0.0600 
    242 H242        0.2271  -20.6569  -59.6928 H         1 UNK         0.3800 
    243 H243       -0.8818  -21.1425  -58.4376 H         1 UNK         0.3800 
    244 H244        1.2995  -18.4214  -55.8769 H         1 UNK         0.0800 
    245 H245       -0.4246  -18.5050  -56.1108 H         1 UNK         0.0800 
    246 H246        2.5488  -19.1237  -53.6194 H         1 UNK         0.0800 
    247 H247        1.9521  -17.4787  -53.6737 H         1 UNK         0.0800 
@<TRIPOS>BOND
     1    1    2 1    
     2    1  127 1    
     3    1  128 1    
     4    1  129 1    
     5    2    3 2    
     6    2    4 am   BACKBONE|DICT|INTERRES
     7    4    5 1    
     8    4  130 1    
     9    5    6 1    
    10    5   65 1    
    11    5  131 1    
    12    6    7 1    
    13    6  132 1    
    14    6  133 1    
    15    7    8 1    
    16    8    9 1    
    17    8  134 1    
    18    8  135 1    
    19    9   10 ar   
    20    9   14 ar   
    21   10   11 ar   
    22   10  136 1    
    23   11   12 ar   
    24   11  126 1    
    25   12   13 ar   
    26   12  137 1    
    27   13   14 ar   
    28   13   15 1    
    29   14  138 1    
    30   15   16 1    
    31   15  139 1    
    32   15  140 1    
    33   16   17 1    
    34   17   18 1    
    35   17  141 1    
    36   17  142 1    
    37   18   19 1    
    38   18   67 1    
    39   18  143 1    
    40   19   20 am   BACKBONE|DICT|INTERRES
    41   19  144 1    
    42   20   21 2    
    43   20   22 1    
    44   22   23 1    
    45   22   24 1    
    46   22  145 1    
    47   23  146 1    
    48   23  147 1    
    49   23  148 1    
    50   24   25 am   BACKBONE|DICT|INTERRES
    51   24  149 1    
    52   25   26 2    
    53   25   27 1    
    54   27   28 1    
    55   27   29 1    
    56   27  150 1    
    57   28  151 1    
    58   28  152 1    
    59   28  153 1    
    60   29   30 am   BACKBONE|DICT|INTERRES
    61   29  154 1    
    62   30   31 2    
    63   30   32 1    
    64   32   33 1    
    65   32   34 1    
    66   32  155 1    
    67   33  156 1    
    68   33  157 1    
    69   33  158 1    
    70   34   35 am   BACKBONE|DICT|INTERRES
    71   34  159 1    
    72   35   36 2    
    73   35   37 1    
    74   37   38 1    
    75   37   39 1    
    76   37  160 1    
    77   38  161 1    
    78   38  162 1    
    79   38  163 1    
    80   39   40 am   BACKBONE|DICT|INTERRES
    81   39  164 1    
    82   40   41 2    
    83   40   42 1    
    84   42   43 1    
    85   42   44 1    
    86   42  165 1    
    87   43  166 1    
    88   43  167 1    
    89   43  168 1    
    90   44   45 am   BACKBONE|DICT|INTERRES
    91   44  169 1    
    92   45   46 2    
    93   45   47 1    
    94   47   48 1    
    95   47   49 1    
    96   47  170 1    
    97   48  171 1    
    98   48  172 1    
    99   48  173 1    
   100   49   50 am   BACKBONE|DICT|INTERRES
   101   49  174 1    
   102   50   51 2    
   103   50   52 1    
   104   52   53 1    
   105   52   54 1    
   106   52  175 1    
   107   53  176 1    
   108   53  177 1    
   109   53  178 1    
   110   54   55 am   BACKBONE|DICT|INTERRES
   111   54  179 1    
   112   55   56 2    
   113   55   57 1    
   114   57   58 1    
   115   57   59 1    
   116   57  180 1    
   117   58  181 1    
   118   58  182 1    
   119   58  183 1    
   120   59   60 am   BACKBONE|DICT|INTERRES
   121   59  184 1    
   122   60   61 2    
   123   60   62 1    
   124   62   63 1    
   125   62   64 1    
   126   62  185 1    
   127   63  186 1    
   128   63  187 1    
   129   63  188 1    
   130   64   65 am   BACKBONE|DICT|INTERRES
   131   64  189 1    
   132   65   66 2    
   133   67   68 2    
   134   67   69 am   BACKBONE|DICT|INTERRES
   135   69   70 1    
   136   69  190 1    
   137   70   71 1    
   138   70   72 1    
   139   70  191 1    
   140   71  192 1    
   141   71  193 1    
   142   71  194 1    
   143   72   73 2    
   144   72   74 am   BACKBONE|DICT|INTERRES
   145   74   75 1    
   146   74  195 1    
   147   75   76 1    
   148   75   77 1    
   149   75  196 1    
   150   76  197 1    
   151   76  198 1    
   152   76  199 1    
   153   77   78 2    
   154   77   79 am   BACKBONE|DICT|INTERRES
   155   79   80 1    
   156   79  200 1    
   157   80   81 1    
   158   80   82 1    
   159   80  201 1    
   160   81  202 1    
   161   81  203 1    
   162   81  204 1    
   163   82   83 2    
   164   82   84 am   BACKBONE|DICT|INTERRES
   165   84   85 1    
   166   84  205 1    
   167   85   86 1    
   168   85   87 1    
   169   85  206 1    
   170   86  207 1    
   171   86  208 1    
   172   86  209 1    
   173   87   88 2    
   174   87   89 am   BACKBONE|DICT|INTERRES
   175   89   90 1    
   176   89  210 1    
   177   90   91 1    
   178   90   92 1    
   179   90  211 1    
   180   91  212 1    
   181   91  213 1    
   182   91  214 1    
   183   92   93 2    
   184   92   94 am   BACKBONE|DICT|INTERRES
   185   94   95 1    
   186   94  215 1    
   187   95   96 1    
   188   95   97 1    
   189   95  216 1    
   190   96  217 1    
   191   96  218 1    
   192   96  219 1    
   193   97   98 2    
   194   97   99 am   BACKBONE|DICT|INTERRES
   195   99  100 1    
   196   99  220 1    
   197  100  101 1    
   198  100  102 1    
   199  100  221 1    
   200  101  222 1    
   201  101  223 1    
   202  101  224 1    
   203  102  103 2    
   204  102  104 am   BACKBONE|DICT|INTERRES
   205  104  105 1    
   206  104  225 1    
   207  105  106 1    
   208  105  107 1    
   209  105  226 1    
   210  106  227 1    
   211  106  228 1    
   212  106  229 1    
   213  107  108 2    
   214  107  109 am   BACKBONE|DICT|INTERRES
   215  109  110 1    
   216  109  230 1    
   217  110  111 1    
   218  110  112 1    
   219  110  231 1    
   220  111  232 1    
   221  111  233 1    
   222  111  234 1    
   223  112  113 2    
   224  112  114 am   BACKBONE|DICT|INTERRES
   225  114  115 1    
   226  114  235 1    
   227  115  116 1    
   228  115  117 1    
   229  115  236 1    
   230  116  237 1    
   231  116  238 1    
   232  116  239 1    
   233  117  118 2    
   234  117  119 am   BACKBONE|DICT|INTERRES
   235  119  120 1    
   236  119  240 1    
   237  120  121 1    
   238  120  124 1    
   239  120  241 1    
   240  121  122 am   BACKBONE|DICT|INTERRES
   241  121  123 2    
   242  122  242 1    
   243  122  243 1    
   244  124  125 1    
   245  124  244 1    
   246  124  245 1    
   247  125  126 1    
   248  126  246 1    
   249  126  247 1    
@<TRIPOS>SUBSTRUCTURE
     1 UNK         1 GROUP             0       ****    0 ROOT    
