@<TRIPOS>MOLECULE
3R540
247   249    1
SMALL
USER_CHARGES


@<TRIPOS>ATOM
      1 CA          3.3994  -14.9275  -46.6452 C.3       0 UNK        -0.1800 
      2 C           2.2648  -13.9522  -46.3717 C.2       0 UNK         0.5000 
      3 O           2.3633  -13.1296  -45.4586 O.2       0 UNK        -0.5000 
      4 N           1.1922  -14.0340  -47.1716 N.am      1 UNK        -0.5000 
      5 CA         -0.0101  -13.1999  -47.0444 C.3       1 UNK         0.1400 
      6 C6         -1.2393  -13.8402  -47.7367 C.3       23 UNK        -0.0398 
      7 S7         -1.1711  -13.8738  -49.5660 S.3       23 UNK        -0.2404 
      8 C8         -1.2764  -15.6488  -49.9414 C.3       23 UNK        -0.0205 
      9 C9          0.0985  -16.2677  -50.1300 C.ar      23 UNK        -0.0193 
     10 C10         0.6916  -16.2680  -51.3958 C.ar      23 UNK        -0.1150 
     11 C11         1.9143  -16.9110  -51.6075 C.ar      23 UNK        -0.0193 
     12 C12         2.5701  -17.5056  -50.5261 C.ar      23 UNK        -0.1150 
     13 C13         1.9904  -17.5096  -49.2556 C.ar      23 UNK        -0.0193 
     14 C14         0.7542  -16.8844  -49.0613 C.ar      23 UNK        -0.1150 
     15 C15         2.6817  -18.2381  -48.1126 C.3       23 UNK        -0.0205 
     16 S16         2.5585  -20.0481  -48.2917 S.3       23 UNK        -0.2404 
     17 C17         0.7526  -20.2741  -48.4101 C.3       23 UNK        -0.0398 
     18 CA          0.2968  -21.6977  -48.0187 C.3       11 UNK         0.1400 
     19 N           0.5171  -21.9882  -46.5993 N.am      11 UNK        -0.5000 
     20 C           0.3194  -23.1780  -46.0152 C.2       10 UNK         0.5000 
     21 O          -0.0281  -24.1914  -46.6208 O.2       10 UNK        -0.5000 
     22 CA          0.4782  -23.2294  -44.4861 C.3       10 UNK         0.1400 
     23 CB          1.9579  -23.3195  -44.0827 C.3       10 UNK        -0.1800 
     24 N          -0.1482  -22.0794  -43.8328 N.am      10 UNK        -0.5000 
     25 C          -1.4706  -21.8637  -43.7880 C.2       9 UNK         0.5000 
     26 O          -2.3044  -22.6314  -44.2675 O.2       9 UNK        -0.5000 
     27 CA         -1.9372  -20.5508  -43.1341 C.3       9 UNK         0.1400 
     28 CB         -1.9993  -20.6948  -41.6065 C.3       9 UNK        -0.1800 
     29 N          -1.0778  -19.4201  -43.4852 N.am      9 UNK        -0.5000 
     30 C          -1.0110  -18.8831  -44.7125 C.2       8 UNK         0.5000 
     31 O          -1.6914  -19.2655  -45.6639 O.2       8 UNK        -0.5000 
     32 CA          0.0339  -17.7735  -44.9358 C.3       8 UNK         0.1400 
     33 CB         -0.5534  -16.3961  -44.5985 C.3       8 UNK        -0.1800 
     34 N           1.2757  -17.9779  -44.1858 N.am      8 UNK        -0.5000 
     35 C           2.0542  -19.0678  -44.2885 C.2       7 UNK         0.5000 
     36 O           1.8201  -19.9900  -45.0654 O.2       7 UNK        -0.5000 
     37 CA          3.2689  -19.1880  -43.3496 C.3       7 UNK         0.1400 
     38 CB          4.5465  -18.7624  -44.0884 C.3       7 UNK        -0.1800 
     39 N           3.1506  -18.4088  -42.1185 N.am      7 UNK        -0.5000 
     40 C           2.1713  -18.5031  -41.2065 C.2       6 UNK         0.5000 
     41 O           1.2698  -19.3411  -41.2519 O.2       6 UNK        -0.5000 
     42 CA          2.1683  -17.4321  -40.0960 C.3       6 UNK         0.1400 
     43 CB          2.7793  -17.9947  -38.8042 C.3       6 UNK        -0.1800 
     44 N           2.8811  -16.2032  -40.4715 N.am      6 UNK        -0.5000 
     45 C           2.5313  -15.3915  -41.4794 C.2       5 UNK         0.5000 
     46 O           1.5468  -15.5773  -42.1984 O.2       5 UNK        -0.5000 
     47 CA          3.4973  -14.2380  -41.7907 C.3       5 UNK         0.1400 
     48 CB          4.4978  -14.6628  -42.8765 C.3       5 UNK        -0.1800 
     49 N           2.7821  -13.0493  -42.2462 N.am      5 UNK        -0.5000 
     50 C           2.1137  -12.2196  -41.4329 C.2       4 UNK         0.5000 
     51 O           2.0323  -12.3840  -40.2140 O.2       4 UNK        -0.5000 
     52 CA          1.4909  -10.9753  -42.0890 C.3       4 UNK         0.1400 
     53 CB          1.1284   -9.8694  -41.0768 C.3       4 UNK        -0.1800 
     54 N           2.4136  -10.4580  -43.0966 N.am      4 UNK        -0.5000 
     55 C           2.0708   -9.7492  -44.1747 C.2       3 UNK         0.5000 
     56 O           0.9222   -9.3596  -44.3927 O.2       3 UNK        -0.5000 
     57 CA          3.1818   -9.4395  -45.1964 C.3       3 UNK         0.1400 
     58 CB          4.5659  -10.0125  -44.8252 C.3       3 UNK        -0.1800 
     59 N           2.7701  -10.0131  -46.4703 N.am      3 UNK        -0.5000 
     60 C           2.3125   -9.3279  -47.5254 C.2       2 UNK         0.5000 
     61 O           2.3270   -8.0990  -47.6094 O.2       2 UNK        -0.5000 
     62 CA          1.7276  -10.1601  -48.6849 C.3       2 UNK         0.1400 
     63 CB          2.7607  -10.3193  -49.8108 C.3       2 UNK        -0.1800 
     64 N           1.2814  -11.4892  -48.2617 N.am      2 UNK        -0.5000 
     65 C           0.2129  -11.7355  -47.4881 C.2       1 UNK         0.5000 
     66 O          -0.5744  -10.8647  -47.1169 O.2       1 UNK        -0.5000 
     67 C          -1.1732  -21.9170  -48.4272 C.2       11 UNK         0.5000 
     68 O          -1.4218  -22.4882  -49.4895 O.2       11 UNK        -0.5000 
     69 N          -2.1192  -21.4873  -47.5780 N.am      12 UNK        -0.5000 
     70 CA         -3.5506  -21.7180  -47.7656 C.3       12 UNK         0.1400 
     71 CB         -4.3598  -20.8966  -46.7522 C.3       12 UNK        -0.1800 
     72 C          -3.9160  -23.2083  -47.6794 C.2       12 UNK         0.5000 
     73 O          -4.6402  -23.6963  -48.5463 O.2       12 UNK        -0.5000 
     74 N          -3.3900  -23.9128  -46.6672 N.am      13 UNK        -0.5000 
     75 CA         -3.5885  -25.3498  -46.4624 C.3       13 UNK         0.1400 
     76 CB         -2.9519  -25.7804  -45.1329 C.3       13 UNK        -0.1800 
     77 C          -3.0544  -26.2002  -47.6291 C.2       13 UNK         0.5000 
     78 O          -3.7639  -27.0867  -48.1066 O.2       13 UNK        -0.5000 
     79 N          -1.8456  -25.8731  -48.1087 N.am      14 UNK        -0.5000 
     80 CA         -1.2113  -26.4860  -49.2802 C.3       14 UNK         0.1400 
     81 CB          0.2227  -25.9520  -49.4131 C.3       14 UNK        -0.1800 
     82 C          -1.9931  -26.2556  -50.5892 C.2       14 UNK         0.5000 
     83 O          -1.9580  -27.1054  -51.4791 O.2       14 UNK        -0.5000 
     84 N          -2.7104  -25.1290  -50.6622 N.am      15 UNK        -0.5000 
     85 CA         -3.5893  -24.7375  -51.7609 C.3       15 UNK         0.1400 
     86 CB         -3.5144  -23.2127  -51.9117 C.3       15 UNK        -0.1800 
     87 C          -5.0433  -25.2225  -51.5847 C.2       15 UNK         0.5000 
     88 O          -5.9277  -24.7121  -52.2749 O.2       15 UNK        -0.5000 
     89 N          -5.2711  -26.1837  -50.6758 N.am      16 UNK        -0.5000 
     90 CA         -6.5506  -26.8286  -50.3631 C.3       16 UNK         0.1400 
     91 CB         -7.0654  -27.6413  -51.5699 C.3       16 UNK        -0.1800 
     92 C          -7.5883  -25.8323  -49.8102 C.2       16 UNK         0.5000 
     93 O          -8.6962  -25.7263  -50.3377 O.2       16 UNK        -0.5000 
     94 N          -7.1795  -25.1070  -48.7600 N.am      17 UNK        -0.5000 
     95 CA         -7.9004  -24.0176  -48.0919 C.3       17 UNK         0.1400 
     96 CB         -9.2277  -24.5053  -47.4734 C.3       17 UNK        -0.1800 
     97 C          -8.0574  -22.7909  -49.0125 C.2       17 UNK         0.5000 
     98 O          -9.1328  -22.1933  -49.0810 O.2       17 UNK        -0.5000 
     99 N          -6.9573  -22.4522  -49.7013 N.am      18 UNK        -0.5000 
    100 CA        -6.8009  -21.3488  -50.6535 C.3       18 UNK         0.1400 
    101 CB        -6.8602  -19.9908  -49.9242 C.3       18 UNK        -0.1800 
    102 C         -7.7619  -21.4368  -51.8585 C.2       18 UNK         0.5000 
    103 O         -8.2671  -20.4134  -52.3248 O.2       18 UNK        -0.5000 
    104 N         -7.9918  -22.6624  -52.3495 N.am      19 UNK        -0.5000 
    105 CA        -8.7109  -22.9260  -53.5948 C.3       19 UNK         0.1400 
    106 CB        -9.1803  -24.3884  -53.6186 C.3       19 UNK        -0.1800 
    107 C         -7.8230  -22.6098  -54.8113 C.2       19 UNK         0.5000 
    108 O         -8.2995  -22.0150  -55.7792 O.2       19 UNK        -0.5000 
    109 N         -6.5403  -22.9822  -54.7163 N.am      20 UNK        -0.5000 
    110 CA        -5.4824  -22.5715  -55.6362 C.3       20 UNK         0.1400 
    111 CB        -4.4390  -23.6982  -55.7188 C.3       20 UNK        -0.1800 
    112 C         -4.8363  -21.2537  -55.1640 C.2       20 UNK         0.5000 
    113 O         -5.0242  -20.8407  -54.0164 O.2       20 UNK        -0.5000 
    114 N         -4.0644  -20.6216  -56.0543 N.am      21 UNK        -0.5000 
    115 CA        -3.2403  -19.4555  -55.7369 C.3       21 UNK         0.1400 
    116 CB        -2.9330  -18.6949  -57.0364 C.3       21 UNK        -0.1800 
    117 C         -1.9333  -19.8812  -55.0414 C.2       21 UNK         0.5000 
    118 O         -1.3990  -20.9490  -55.3515 O.2       21 UNK        -0.5000 
    119 N         -1.4235  -19.0156  -54.1552 N.am      22 UNK        -0.5000 
    120 CA        -0.1598  -19.1927  -53.4163 C.3       22 UNK         0.1400 
    121 C         -0.1698  -20.3994  -52.4270 C.2       22 UNK         0.5000 
    122 N         -1.2718  -20.6170  -51.7195 N.am      22 UNK        -0.7600 
    123 O          0.8023  -21.1355  -52.2872 O.2       22 UNK        -0.5000 
    124 C124        1.0761  -19.1027  -54.3593 C.3       23 UNK        -0.0398 
    125 S125        2.6803  -18.7335  -53.5593 S.3       23 UNK        -0.2404 
    126 C126        2.5132  -17.0012  -53.0050 C.3       23 UNK        -0.0205 
    127 H127        4.3614  -14.4566  -46.4432 H         1 UNK         0.0600 
    128 H128        3.3980  -15.2587  -47.6837 H         1 UNK         0.0600 
    129 H129        3.3033  -15.8031  -46.0033 H         1 UNK         0.0600 
    130 H130        1.1805  -14.7023  -47.9296 H         1 UNK         0.3000 
    131 H131       -0.2459  -13.1521  -45.9787 H         1 UNK         0.0600 
    132 H132       -2.1417  -13.2955  -47.4539 H         1 UNK         0.0800 
    133 H133       -1.3843  -14.8495  -47.3514 H         1 UNK         0.0800 
    134 H134       -1.8370  -16.1778  -49.1694 H         1 UNK         0.0800 
    135 H135       -1.8555  -15.7705  -50.8581 H         1 UNK         0.0800 
    136 H136        0.1781  -15.8031  -52.2258 H         1 UNK         0.1150 
    137 H137        3.5129  -18.0106  -50.6840 H         1 UNK         0.1150 
    138 H138        0.2851  -16.9011  -48.0892 H         1 UNK         0.1150 
    139 H139        3.7354  -17.9572  -48.0872 H         1 UNK         0.0800 
    140 H140        2.2665  -17.9393  -47.1513 H         1 UNK         0.0800 
    141 H141        0.4707  -20.0463  -49.4396 H         1 UNK         0.0800 
    142 H142        0.2533  -19.5347  -47.7827 H         1 UNK         0.0800 
    143 H143        0.8921  -22.4123  -48.5912 H         1 UNK         0.0600 
    144 H144        0.8699  -21.2201  -46.0314 H         1 UNK         0.3000 
    145 H145       -0.0221  -24.1322  -44.1295 H         1 UNK         0.0600 
    146 H146        2.0682  -23.3917  -43.0007 H         1 UNK         0.0600 
    147 H147        2.4235  -24.2052  -44.5167 H         1 UNK         0.0600 
    148 H148        2.5276  -22.4542  -44.4212 H         1 UNK         0.0600 
    149 H149        0.4701  -21.3728  -43.4619 H         1 UNK         0.3000 
    150 H150       -2.9455  -20.3379  -43.4958 H         1 UNK         0.0600 
    151 H151       -2.6642  -21.5103  -41.3191 H         1 UNK         0.0600 
    152 H152       -2.3789  -19.7858  -41.1398 H         1 UNK         0.0600 
    153 H153       -1.0180  -20.9059  -41.1800 H         1 UNK         0.0600 
    154 H154       -0.4461  -19.0867  -42.7680 H         1 UNK         0.3000 
    155 H155        0.2859  -17.7817  -45.9948 H         1 UNK         0.0600 
    156 H156       -1.4555  -16.2017  -45.1796 H         1 UNK         0.0600 
    157 H157       -0.8195  -16.3216  -43.5434 H         1 UNK         0.0600 
    158 H158        0.1560  -15.5988  -44.8188 H         1 UNK         0.0600 
    159 H159        1.5125  -17.2629  -43.5070 H         1 UNK         0.3000 
    160 H160        3.3626  -20.2389  -43.0690 H         1 UNK         0.0600 
    161 H161        4.5182  -17.7080  -44.3670 H         1 UNK         0.0600 
    162 H162        4.6784  -19.3396  -45.0049 H         1 UNK         0.0600 
    163 H163        5.4321  -18.9250  -43.4738 H         1 UNK         0.0600 
    164 H164        3.8445  -17.6902  -41.9800 H         1 UNK         0.3000 
    165 H165        1.1268  -17.1694  -39.8994 H         1 UNK         0.0600 
    166 H166        2.7112  -17.2744  -37.9888 H         1 UNK         0.0600 
    167 H167        2.2542  -18.8958  -38.4841 H         1 UNK         0.0600 
    168 H168        3.8300  -18.2564  -38.9361 H         1 UNK         0.0600 
    169 H169        3.7083  -15.9863  -39.9337 H         1 UNK         0.3000 
    170 H170        4.0559  -13.9855  -40.8866 H         1 UNK         0.0600 
    171 H171        3.9899  -14.9579  -43.7942 H         1 UNK         0.0600 
    172 H172        5.1852  -13.8525  -43.1205 H         1 UNK         0.0600 
    173 H173        5.0995  -15.5106  -42.5472 H         1 UNK         0.0600 
    174 H174        2.7253  -12.9118  -43.2489 H         1 UNK         0.3000 
    175 H175        0.5760  -11.3110  -42.5818 H         1 UNK         0.0600 
    176 H176        0.6611   -9.0169  -41.5694 H         1 UNK         0.0600 
    177 H177        2.0106   -9.5079  -40.5475 H         1 UNK         0.0600 
    178 H178        0.4216  -10.2355  -40.3312 H         1 UNK         0.0600 
    179 H179        3.3773  -10.7438  -42.9896 H         1 UNK         0.3000 
    180 H180        3.2671   -8.3533  -45.2645 H         1 UNK         0.0600 
    181 H181        5.3047   -9.7567  -45.5849 H         1 UNK         0.0600 
    182 H182        4.5503  -11.1002  -44.7392 H         1 UNK         0.0600 
    183 H183        4.9266   -9.6009  -43.8817 H         1 UNK         0.0600 
    184 H184        2.6576  -11.0184  -46.4747 H         1 UNK         0.3000 
    185 H185        0.8664   -9.6180  -49.0811 H         1 UNK         0.0600 
    186 H186        3.0957   -9.3466  -50.1735 H         1 UNK         0.0600 
    187 H187        3.6427  -10.8655  -49.4738 H         1 UNK         0.0600 
    188 H188        2.3380  -10.8541  -50.6616 H         1 UNK         0.0600 
    189 H189        1.8569  -12.2709  -48.5381 H         1 UNK         0.3000 
    190 H190       -1.8476  -20.9663  -46.7507 H         1 UNK         0.3000 
    191 H191       -3.8174  -21.3703  -48.7659 H         1 UNK         0.0600 
    192 H192       -4.1808  -19.8290  -46.8808 H         1 UNK         0.0600 
    193 H193       -5.4303  -21.0642  -46.8785 H         1 UNK         0.0600 
    194 H194       -4.1053  -21.1561  -45.7246 H         1 UNK         0.0600 
    195 H195       -2.8345  -23.4290  -45.9673 H         1 UNK         0.3000 
    196 H196       -4.6639  -25.5255  -46.3924 H         1 UNK         0.0600 
    197 H197       -3.1023  -26.8457  -44.9540 H         1 UNK         0.0600 
    198 H198       -3.3945  -25.2443  -44.2932 H         1 UNK         0.0600 
    199 H199       -1.8782  -25.5929  -45.1199 H         1 UNK         0.0600 
    200 H200       -1.3104  -25.1503  -47.6324 H         1 UNK         0.3000 
    201 H201       -1.1634  -27.5632  -49.1090 H         1 UNK         0.0600 
    202 H202        0.8121  -26.1796  -48.5248 H         1 UNK         0.0600 
    203 H203        0.2353  -24.8704  -49.5546 H         1 UNK         0.0600 
    204 H204        0.7319  -26.4022  -50.2661 H         1 UNK         0.0600 
    205 H205       -2.6662  -24.4838  -49.8835 H         1 UNK         0.3000 
    206 H206       -3.2279  -25.1814  -52.6903 H         1 UNK         0.0600 
    207 H207       -2.5208  -22.9154  -52.2425 H         1 UNK         0.0600 
    208 H208       -4.2193  -22.8450  -52.6527 H         1 UNK         0.0600 
    209 H209       -3.7296  -22.7009  -50.9746 H         1 UNK         0.0600 
    210 H210       -4.4867  -26.4945  -50.1158 H         1 UNK         0.3000 
    211 H211       -6.3473  -27.5362  -49.5580 H         1 UNK         0.0600 
    212 H212       -7.3190  -27.0023  -52.4157 H         1 UNK         0.0600 
    213 H213       -7.9621  -28.2031  -51.3064 H         1 UNK         0.0600 
    214 H214       -6.3190  -28.3607  -51.9064 H         1 UNK         0.0600 
    215 H215       -6.2116  -25.2063  -48.4798 H         1 UNK         0.3000 
    216 H216       -7.2613  -23.6949  -47.2686 H         1 UNK         0.0600 
    217 H217       -9.6755  -23.7268  -46.8547 H         1 UNK         0.0600 
    218 H218       -9.0697  -25.3751  -46.8359 H         1 UNK         0.0600 
    219 H219       -9.9604  -24.7745  -48.2344 H         1 UNK         0.0600 
    220 H220       -6.1263  -23.0137  -49.5376 H         1 UNK         0.3000 
    221 H221       -5.7987  -21.4468  -51.0710 H         1 UNK         0.0600 
    222 H222       -7.8508  -19.7950  -49.5130 H         1 UNK         0.0600 
    223 H223       -6.1423  -19.9508  -49.1054 H         1 UNK         0.0600 
    224 H224       -6.6195  -19.1720  -50.6031 H         1 UNK         0.0600 
    225 H225       -7.5036  -23.4515  -51.9399 H         1 UNK         0.3000 
    226 H226       -9.5935  -22.2844  -53.6379 H         1 UNK         0.0600 
    227 H227       -9.8290  -24.6071  -52.7701 H         1 UNK         0.0600 
    228 H228       -9.7458  -24.6016  -54.5263 H         1 UNK         0.0600 
    229 H229       -8.3407  -25.0831  -53.5834 H         1 UNK         0.0600 
    230 H230       -6.2441  -23.4517  -53.8673 H         1 UNK         0.3000 
    231 H231       -5.9000  -22.4132  -56.6327 H         1 UNK         0.0600 
    232 H232       -3.9621  -23.8834  -54.7572 H         1 UNK         0.0600 
    233 H233       -3.6501  -23.4536  -56.4310 H         1 UNK         0.0600 
    234 H234       -4.8946  -24.6318  -56.0495 H         1 UNK         0.0600 
    235 H235       -3.9157  -21.0392  -56.9613 H         1 UNK         0.3000 
    236 H236       -3.7980  -18.7917  -55.0723 H         1 UNK         0.0600 
    237 H237       -3.8494  -18.3692  -57.5289 H         1 UNK         0.0600 
    238 H238       -2.3380  -17.8029  -56.8361 H         1 UNK         0.0600 
    239 H239       -2.3731  -19.3107  -57.7415 H         1 UNK         0.0600 
    240 H240       -1.9292  -18.1634  -53.9604 H         1 UNK         0.3000 
    241 H241       -0.1218  -18.3266  -52.7650 H         1 UNK         0.0600 
    242 H242       -2.0878  -20.0416  -51.8460 H         1 UNK         0.3800 
    243 H243       -1.2984  -21.3963  -51.0697 H         1 UNK         0.3800 
    244 H244        0.9098  -18.3299  -55.1110 H         1 UNK         0.0800 
    245 H245        1.1847  -20.0342  -54.9166 H         1 UNK         0.0800 
    246 H246        1.9242  -16.4357  -53.7286 H         1 UNK         0.0800 
    247 H247        3.5026  -16.5424  -52.9882 H         1 UNK         0.0800 
@<TRIPOS>BOND
     1    1    2 1    
     2    1  127 1    
     3    1  128 1    
     4    1  129 1    
     5    2    3 2    
     6    2    4 am   BACKBONE|DICT|INTERRES
     7    4    5 1    
     8    4  130 1    
     9    5    6 1    
    10    5   65 1    
    11    5  131 1    
    12    6    7 1    
    13    6  132 1    
    14    6  133 1    
    15    7    8 1    
    16    8    9 1    
    17    8  134 1    
    18    8  135 1    
    19    9   10 ar   
    20    9   14 ar   
    21   10   11 ar   
    22   10  136 1    
    23   11   12 ar   
    24   11  126 1    
    25   12   13 ar   
    26   12  137 1    
    27   13   14 ar   
    28   13   15 1    
    29   14  138 1    
    30   15   16 1    
    31   15  139 1    
    32   15  140 1    
    33   16   17 1    
    34   17   18 1    
    35   17  141 1    
    36   17  142 1    
    37   18   19 1    
    38   18   67 1    
    39   18  143 1    
    40   19   20 am   BACKBONE|DICT|INTERRES
    41   19  144 1    
    42   20   21 2    
    43   20   22 1    
    44   22   23 1    
    45   22   24 1    
    46   22  145 1    
    47   23  146 1    
    48   23  147 1    
    49   23  148 1    
    50   24   25 am   BACKBONE|DICT|INTERRES
    51   24  149 1    
    52   25   26 2    
    53   25   27 1    
    54   27   28 1    
    55   27   29 1    
    56   27  150 1    
    57   28  151 1    
    58   28  152 1    
    59   28  153 1    
    60   29   30 am   BACKBONE|DICT|INTERRES
    61   29  154 1    
    62   30   31 2    
    63   30   32 1    
    64   32   33 1    
    65   32   34 1    
    66   32  155 1    
    67   33  156 1    
    68   33  157 1    
    69   33  158 1    
    70   34   35 am   BACKBONE|DICT|INTERRES
    71   34  159 1    
    72   35   36 2    
    73   35   37 1    
    74   37   38 1    
    75   37   39 1    
    76   37  160 1    
    77   38  161 1    
    78   38  162 1    
    79   38  163 1    
    80   39   40 am   BACKBONE|DICT|INTERRES
    81   39  164 1    
    82   40   41 2    
    83   40   42 1    
    84   42   43 1    
    85   42   44 1    
    86   42  165 1    
    87   43  166 1    
    88   43  167 1    
    89   43  168 1    
    90   44   45 am   BACKBONE|DICT|INTERRES
    91   44  169 1    
    92   45   46 2    
    93   45   47 1    
    94   47   48 1    
    95   47   49 1    
    96   47  170 1    
    97   48  171 1    
    98   48  172 1    
    99   48  173 1    
   100   49   50 am   BACKBONE|DICT|INTERRES
   101   49  174 1    
   102   50   51 2    
   103   50   52 1    
   104   52   53 1    
   105   52   54 1    
   106   52  175 1    
   107   53  176 1    
   108   53  177 1    
   109   53  178 1    
   110   54   55 am   BACKBONE|DICT|INTERRES
   111   54  179 1    
   112   55   56 2    
   113   55   57 1    
   114   57   58 1    
   115   57   59 1    
   116   57  180 1    
   117   58  181 1    
   118   58  182 1    
   119   58  183 1    
   120   59   60 am   BACKBONE|DICT|INTERRES
   121   59  184 1    
   122   60   61 2    
   123   60   62 1    
   124   62   63 1    
   125   62   64 1    
   126   62  185 1    
   127   63  186 1    
   128   63  187 1    
   129   63  188 1    
   130   64   65 am   BACKBONE|DICT|INTERRES
   131   64  189 1    
   132   65   66 2    
   133   67   68 2    
   134   67   69 am   BACKBONE|DICT|INTERRES
   135   69   70 1    
   136   69  190 1    
   137   70   71 1    
   138   70   72 1    
   139   70  191 1    
   140   71  192 1    
   141   71  193 1    
   142   71  194 1    
   143   72   73 2    
   144   72   74 am   BACKBONE|DICT|INTERRES
   145   74   75 1    
   146   74  195 1    
   147   75   76 1    
   148   75   77 1    
   149   75  196 1    
   150   76  197 1    
   151   76  198 1    
   152   76  199 1    
   153   77   78 2    
   154   77   79 am   BACKBONE|DICT|INTERRES
   155   79   80 1    
   156   79  200 1    
   157   80   81 1    
   158   80   82 1    
   159   80  201 1    
   160   81  202 1    
   161   81  203 1    
   162   81  204 1    
   163   82   83 2    
   164   82   84 am   BACKBONE|DICT|INTERRES
   165   84   85 1    
   166   84  205 1    
   167   85   86 1    
   168   85   87 1    
   169   85  206 1    
   170   86  207 1    
   171   86  208 1    
   172   86  209 1    
   173   87   88 2    
   174   87   89 am   BACKBONE|DICT|INTERRES
   175   89   90 1    
   176   89  210 1    
   177   90   91 1    
   178   90   92 1    
   179   90  211 1    
   180   91  212 1    
   181   91  213 1    
   182   91  214 1    
   183   92   93 2    
   184   92   94 am   BACKBONE|DICT|INTERRES
   185   94   95 1    
   186   94  215 1    
   187   95   96 1    
   188   95   97 1    
   189   95  216 1    
   190   96  217 1    
   191   96  218 1    
   192   96  219 1    
   193   97   98 2    
   194   97   99 am   BACKBONE|DICT|INTERRES
   195   99  100 1    
   196   99  220 1    
   197  100  101 1    
   198  100  102 1    
   199  100  221 1    
   200  101  222 1    
   201  101  223 1    
   202  101  224 1    
   203  102  103 2    
   204  102  104 am   BACKBONE|DICT|INTERRES
   205  104  105 1    
   206  104  225 1    
   207  105  106 1    
   208  105  107 1    
   209  105  226 1    
   210  106  227 1    
   211  106  228 1    
   212  106  229 1    
   213  107  108 2    
   214  107  109 am   BACKBONE|DICT|INTERRES
   215  109  110 1    
   216  109  230 1    
   217  110  111 1    
   218  110  112 1    
   219  110  231 1    
   220  111  232 1    
   221  111  233 1    
   222  111  234 1    
   223  112  113 2    
   224  112  114 am   BACKBONE|DICT|INTERRES
   225  114  115 1    
   226  114  235 1    
   227  115  116 1    
   228  115  117 1    
   229  115  236 1    
   230  116  237 1    
   231  116  238 1    
   232  116  239 1    
   233  117  118 2    
   234  117  119 am   BACKBONE|DICT|INTERRES
   235  119  120 1    
   236  119  240 1    
   237  120  121 1    
   238  120  124 1    
   239  120  241 1    
   240  121  122 am   BACKBONE|DICT|INTERRES
   241  121  123 2    
   242  122  242 1    
   243  122  243 1    
   244  124  125 1    
   245  124  244 1    
   246  124  245 1    
   247  125  126 1    
   248  126  246 1    
   249  126  247 1    
@<TRIPOS>SUBSTRUCTURE
     1 UNK         1 GROUP             0       ****    0 ROOT    
