@<TRIPOS>MOLECULE
3R540
247   249    1
SMALL
USER_CHARGES


@<TRIPOS>ATOM
      1 CA          4.9760  -12.3972  -46.0874 C.3       0 UNK        -0.1800 
      2 C           4.2280  -13.6242  -46.5905 C.2       0 UNK         0.5000 
      3 O           3.0872  -13.8530  -46.1877 O.2       0 UNK        -0.5000 
      4 N           4.8706  -14.4175  -47.4596 N.am      1 UNK        -0.5000 
      5 CA          4.2825  -15.6031  -48.0943 C.3       1 UNK         0.1400 
      6 C6          5.3724  -16.5095  -48.7199 C.3       23 UNK        -0.0398 
      7 S7          4.7827  -18.2106  -49.0023 S.3       23 UNK        -0.2404 
      8 C8          4.5033  -18.1977  -50.8021 C.3       23 UNK        -0.0205 
      9 C9          3.5072  -19.2740  -51.1997 C.ar      23 UNK        -0.0193 
     10 C10         2.2385  -18.9273  -51.6740 C.ar      23 UNK        -0.1150 
     11 C11         1.3180  -19.9206  -52.0189 C.ar      23 UNK        -0.0193 
     12 C12         1.6585  -21.2651  -51.8404 C.ar      23 UNK        -0.1150 
     13 C13         2.9202  -21.6272  -51.3572 C.ar      23 UNK        -0.0193 
     14 C14         3.8529  -20.6220  -51.0787 C.ar      23 UNK        -0.1150 
     15 C15         3.2456  -23.1078  -51.1622 C.3       23 UNK        -0.0205 
     16 S16         4.3941  -23.5039  -49.7894 S.3       23 UNK        -0.2404 
     17 C17         3.7345  -22.5709  -48.3619 C.3       23 UNK        -0.0398 
     18 CA          2.6870  -23.3403  -47.5249 C.3       11 UNK         0.1400 
     19 N           2.6229  -22.8094  -46.1603 N.am      11 UNK        -0.5000 
     20 C           1.8467  -23.2620  -45.1692 C.2       10 UNK         0.5000 
     21 O           1.1466  -24.2695  -45.2607 O.2       10 UNK        -0.5000 
     22 CA          1.7709  -22.4033  -43.8950 C.3       10 UNK         0.1400 
     23 CB          2.9338  -22.7139  -42.9348 C.3       10 UNK        -0.1800 
     24 N           1.6429  -20.9611  -44.1553 N.am      10 UNK        -0.5000 
     25 C           2.5486  -20.1000  -44.6518 C.2       9 UNK         0.5000 
     26 O           3.6671  -20.4380  -45.0400 O.2       9 UNK        -0.5000 
     27 CA          2.1349  -18.6162  -44.7711 C.3       9 UNK         0.1400 
     28 CB          1.8572  -18.2570  -46.2394 C.3       9 UNK        -0.1800 
     29 N           0.9550  -18.2687  -43.9789 N.am      9 UNK        -0.5000 
     30 C           0.8763  -18.2950  -42.6415 C.2       8 UNK         0.5000 
     31 O           1.8473  -18.4740  -41.9058 O.2       8 UNK        -0.5000 
     32 CA         -0.5265  -18.1365  -42.0199 C.3       8 UNK         0.1400 
     33 CB         -0.6406  -16.7904  -41.2884 C.3       8 UNK        -0.1800 
     34 N          -1.6443  -18.2644  -42.9656 N.am      8 UNK        -0.5000 
     35 C          -1.9720  -19.3671  -43.6621 C.2       7 UNK         0.5000 
     36 O          -1.2842  -20.3904  -43.6684 O.2       7 UNK        -0.5000 
     37 CA         -3.2528  -19.2969  -44.5279 C.3       7 UNK         0.1400 
     38 CB         -3.9043  -20.6761  -44.7507 C.3       7 UNK        -0.1800 
     39 N          -4.2348  -18.3234  -44.0363 N.am      7 UNK        -0.5000 
     40 C          -4.8663  -18.3165  -42.8514 C.2       6 UNK         0.5000 
     41 O          -4.8064  -19.2417  -42.0408 O.2       6 UNK        -0.5000 
     42 CA         -5.6820  -17.0453  -42.5054 C.3       6 UNK         0.1400 
     43 CB         -5.5807  -16.6931  -41.0067 C.3       6 UNK        -0.1800 
     44 N          -5.3664  -15.8572  -43.3204 N.am      6 UNK        -0.5000 
     45 C          -4.1707  -15.2652  -43.4571 C.2       5 UNK         0.5000 
     46 O          -3.1318  -15.6894  -42.9456 O.2       5 UNK        -0.5000 
     47 CA         -4.1094  -14.0200  -44.3501 C.3       5 UNK         0.1400 
     48 CB         -4.1929  -12.7390  -43.5067 C.3       5 UNK        -0.1800 
     49 N          -2.8333  -14.0539  -45.0563 N.am      5 UNK        -0.5000 
     50 C          -2.6671  -13.9296  -46.3754 C.2       4 UNK         0.5000 
     51 O          -3.5786  -13.6763  -47.1665 O.2       4 UNK        -0.5000 
     52 CA         -1.2412  -14.1928  -46.8956 C.3       4 UNK         0.1400 
     53 CB         -1.0388  -15.6994  -47.1319 C.3       4 UNK        -0.1800 
     54 N          -0.9618  -13.4799  -48.1403 N.am      4 UNK        -0.5000 
     55 C          -0.8958  -12.1481  -48.2756 C.2       3 UNK         0.5000 
     56 O          -1.0092  -11.3548  -47.3386 O.2       3 UNK        -0.5000 
     57 CA         -0.6450  -11.6380  -49.7105 C.3       3 UNK         0.1400 
     58 CB         -0.3644  -10.1221  -49.7917 C.3       3 UNK        -0.1800 
     59 N           0.3965  -12.4194  -50.3856 N.am      3 UNK        -0.5000 
     60 C           1.6872  -12.5066  -50.0410 C.2       2 UNK         0.5000 
     61 O           2.2269  -11.8160  -49.1727 O.2       2 UNK        -0.5000 
     62 CA          2.5237  -13.5375  -50.8156 C.3       2 UNK         0.1400 
     63 CB          3.2874  -12.8647  -51.9663 C.3       2 UNK        -0.1800 
     64 N           3.4811  -14.1665  -49.9116 N.am      2 UNK        -0.5000 
     65 C           3.1985  -15.2119  -49.1230 C.2       1 UNK         0.5000 
     66 O           2.1411  -15.8404  -49.1713 O.2       1 UNK        -0.5000 
     67 C           1.3003  -23.3003  -48.2003 C.2       11 UNK         0.5000 
     68 O           0.9008  -24.2708  -48.8410 O.2       11 UNK        -0.5000 
     69 N           0.5706  -22.1968  -47.9777 N.am      12 UNK        -0.5000 
     70 CA         -0.7981  -21.9746  -48.4384 C.3       12 UNK         0.1400 
     71 CB         -1.2353  -20.5646  -48.0120 C.3       12 UNK        -0.1800 
     72 C          -1.7891  -23.0227  -47.9026 C.2       12 UNK         0.5000 
     73 O          -2.6540  -23.4796  -48.6513 O.2       12 UNK        -0.5000 
     74 N          -1.6338  -23.3891  -46.6229 N.am      13 UNK        -0.5000 
     75 CA         -2.4268  -24.4183  -45.9549 C.3       13 UNK         0.1400 
     76 CB         -2.2787  -24.2806  -44.4310 C.3       13 UNK        -0.1800 
     77 C          -2.0313  -25.8298  -46.4190 C.2       13 UNK         0.5000 
     78 O          -2.9132  -26.6396  -46.7021 O.2       13 UNK        -0.5000 
     79 N          -0.7191  -26.0870  -46.5232 N.am      14 UNK        -0.5000 
     80 CA         -0.1414  -27.3576  -46.9707 C.3       14 UNK         0.1400 
     81 CB          1.3837  -27.3149  -46.7927 C.3       14 UNK        -0.1800 
     82 C          -0.5096  -27.7146  -48.4231 C.2       14 UNK         0.5000 
     83 O          -0.7981  -28.8766  -48.7110 O.2       14 UNK        -0.5000 
     84 N          -0.5302  -26.7030  -49.3007 N.am      15 UNK        -0.5000 
     85 CA         -0.9711  -26.8078  -50.6925 C.3       15 UNK         0.1400 
     86 CB         -0.4386  -25.5909  -51.4679 C.3       15 UNK        -0.1800 
     87 C          -2.5032  -26.9016  -50.8455 C.2       15 UNK         0.5000 
     88 O          -2.9738  -27.2149  -51.9395 O.2       15 UNK        -0.5000 
     89 N          -3.2476  -26.5944  -49.7704 N.am      16 UNK        -0.5000 
     90 CA         -4.7083  -26.4588  -49.6986 C.3       16 UNK         0.1400 
     91 CB         -5.4037  -27.8143  -49.9401 C.3       16 UNK        -0.1800 
     92 C          -5.2501  -25.3289  -50.6026 C.2       16 UNK         0.5000 
     93 O          -6.3905  -25.3927  -51.0650 O.2       16 UNK        -0.5000 
     94 N          -4.4096  -24.3151  -50.8371 N.am      17 UNK        -0.5000 
     95 CA         -4.6975  -23.1412  -51.6537 C.3       17 UNK         0.1400 
     96 CB         -3.3801  -22.6697  -52.2891 C.3       17 UNK        -0.1800 
     97 C          -5.3421  -22.0286  -50.8093 C.2       17 UNK         0.5000 
     98 O          -6.2633  -21.3622  -51.2832 O.2       17 UNK        -0.5000 
     99 N          -4.8624  -21.8882  -49.5632 N.am      18 UNK        -0.5000 
    100 CA        -5.2777  -20.9369  -48.5296 C.3       18 UNK         0.1400 
    101 CB        -6.7330  -21.2194  -48.1006 C.3       18 UNK        -0.1800 
    102 C         -5.0636  -19.4559  -48.9118 C.2       18 UNK         0.5000 
    103 O         -4.5701  -19.1396  -49.9967 O.2       18 UNK        -0.5000 
    104 N         -5.4500  -18.5526  -47.9998 N.am      19 UNK        -0.5000 
    105 CA        -5.3866  -17.0977  -48.1829 C.3       19 UNK         0.1400 
    106 CB        -5.7551  -16.4093  -46.8629 C.3       19 UNK        -0.1800 
    107 C         -6.2708  -16.5717  -49.3312 C.2       19 UNK         0.5000 
    108 O         -5.9847  -15.5049  -49.8730 O.2       19 UNK        -0.5000 
    109 N         -7.2951  -17.3467  -49.7152 N.am      20 UNK        -0.5000 
    110 CA        -8.1501  -17.0997  -50.8772 C.3       20 UNK         0.1400 
    111 CB        -9.2583  -18.1631  -50.9131 C.3       20 UNK        -0.1800 
    112 C         -7.3794  -17.0789  -52.2138 C.2       20 UNK         0.5000 
    113 O         -7.7909  -16.3676  -53.1314 O.2       20 UNK        -0.5000 
    114 N         -6.2777  -17.8375  -52.2910 N.am      21 UNK        -0.5000 
    115 CA        -5.3633  -17.8580  -53.4281 C.3       21 UNK         0.1400 
    116 CB        -5.0413  -19.3157  -53.7844 C.3       21 UNK        -0.1800 
    117 C         -4.0708  -17.0911  -53.1088 C.2       21 UNK         0.5000 
    118 O         -3.6331  -16.2806  -53.9265 O.2       21 UNK        -0.5000 
    119 N         -3.4705  -17.3760  -51.9460 N.am      22 UNK        -0.5000 
    120 CA        -2.1295  -16.8991  -51.5691 C.3       22 UNK         0.1400 
    121 C         -2.1011  -15.4971  -50.8994 C.2       22 UNK         0.5000 
    122 N         -3.2261  -14.8966  -50.5350 N.am      22 UNK        -0.7600 
    123 O         -1.0285  -14.9333  -50.7067 O.2       22 UNK        -0.5000 
    124 C124       -1.3615  -17.9390  -50.7084 C.3       23 UNK        -0.0398 
    125 S125       -1.3822  -19.6226  -51.4202 S.3       23 UNK        -0.2404 
    126 C126       -0.0265  -19.5518  -52.6275 C.3       23 UNK        -0.0205 
    127 H127        5.9878  -12.3431  -46.4919 H         1 UNK         0.0600 
    128 H128        5.0452  -12.4187  -44.9992 H         1 UNK         0.0600 
    129 H129        4.4436  -11.4914  -46.3790 H         1 UNK         0.0600 
    130 H130        5.8144  -14.1846  -47.7358 H         1 UNK         0.3000 
    131 H131        3.7888  -16.1715  -47.3030 H         1 UNK         0.0600 
    132 H132        6.2193  -16.5879  -48.0365 H         1 UNK         0.0800 
    133 H133        5.7743  -16.0832  -49.6409 H         1 UNK         0.0800 
    134 H134        5.4502  -18.3609  -51.3186 H         1 UNK         0.0800 
    135 H135        4.1416  -17.2179  -51.1169 H         1 UNK         0.0800 
    136 H136        1.9715  -17.8856  -51.7855 H         1 UNK         0.1150 
    137 H137        0.9376  -22.0320  -52.0881 H         1 UNK         0.1150 
    138 H138        4.8391  -20.8815  -50.7208 H         1 UNK         0.1150 
    139 H139        2.3255  -23.6723  -51.0096 H         1 UNK         0.0800 
    140 H140        3.6783  -23.4860  -52.0890 H         1 UNK         0.0800 
    141 H141        3.3596  -21.5919  -48.6598 H         1 UNK         0.0800 
    142 H142        4.6022  -22.3554  -47.7365 H         1 UNK         0.0800 
    143 H143        2.9953  -24.3844  -47.4456 H         1 UNK         0.0600 
    144 H144        3.1668  -21.9725  -45.9641 H         1 UNK         0.3000 
    145 H145        0.8475  -22.6860  -43.3866 H         1 UNK         0.0600 
    146 H146        2.8485  -22.1358  -42.0146 H         1 UNK         0.0600 
    147 H147        2.9349  -23.7688  -42.6577 H         1 UNK         0.0600 
    148 H148        3.9047  -22.4954  -43.3797 H         1 UNK         0.0600 
    149 H149        0.7292  -20.5844  -43.9216 H         1 UNK         0.3000 
    150 H150        2.9745  -18.0136  -44.4187 H         1 UNK         0.0600 
    151 H151        2.7025  -18.5196  -46.8756 H         1 UNK         0.0600 
    152 H152        1.6880  -17.1866  -46.3563 H         1 UNK         0.0600 
    153 H153        0.9825  -18.7799  -46.6268 H         1 UNK         0.0600 
    154 H154        0.1021  -18.1014  -44.4897 H         1 UNK         0.3000 
    155 H155       -0.6355  -18.9329  -41.2812 H         1 UNK         0.0600 
    156 H156       -0.5462  -15.9508  -41.9779 H         1 UNK         0.0600 
    157 H157       -1.5994  -16.6989  -40.7775 H         1 UNK         0.0600 
    158 H158        0.1394  -16.6848  -40.5333 H         1 UNK         0.0600 
    159 H159       -2.2553  -17.4545  -43.0223 H         1 UNK         0.3000 
    160 H160       -2.9328  -18.9283  -45.5036 H         1 UNK         0.0600 
    161 H161       -4.1118  -21.1819  -43.8072 H         1 UNK         0.0600 
    162 H162       -3.2503  -21.3242  -45.3336 H         1 UNK         0.0600 
    163 H163       -4.8443  -20.5886  -45.2942 H         1 UNK         0.0600 
    164 H164       -4.3484  -17.4982  -44.6044 H         1 UNK         0.3000 
    165 H165       -6.7231  -17.2927  -42.7176 H         1 UNK         0.0600 
    166 H166       -6.1734  -15.8101  -40.7681 H         1 UNK         0.0600 
    167 H167       -5.9521  -17.5072  -40.3832 H         1 UNK         0.0600 
    168 H168       -4.5505  -16.4960  -40.7076 H         1 UNK         0.0600 
    169 H169       -6.1595  -15.4424  -43.7904 H         1 UNK         0.3000 
    170 H170       -4.9449  -14.0423  -45.0520 H         1 UNK         0.0600 
    171 H171       -3.3880  -12.6862  -42.7722 H         1 UNK         0.0600 
    172 H172       -4.1300  -11.8509  -44.1358 H         1 UNK         0.0600 
    173 H173       -5.1379  -12.6886  -42.9645 H         1 UNK         0.0600 
    174 H174       -2.0506  -14.3331  -44.4794 H         1 UNK         0.3000 
    175 H175       -0.5217  -13.8528  -46.1476 H         1 UNK         0.0600 
    176 H176       -0.0414  -15.9068  -47.5189 H         1 UNK         0.0600 
    177 H177       -1.7615  -16.0943  -47.8471 H         1 UNK         0.0600 
    178 H178       -1.1519  -16.2627  -46.2049 H         1 UNK         0.0600 
    179 H179       -0.8660  -14.0511  -48.9750 H         1 UNK         0.3000 
    180 H180       -1.5673  -11.8260  -50.2621 H         1 UNK         0.0600 
    181 H181        0.5026   -9.8324  -49.1978 H         1 UNK         0.0600 
    182 H182       -1.2159   -9.5508  -49.4204 H         1 UNK         0.0600 
    183 H183       -0.1873   -9.8085  -50.8205 H         1 UNK         0.0600 
    184 H184        0.0439  -13.0981  -51.0509 H         1 UNK         0.3000 
    185 H185        1.8627  -14.2991  -51.2363 H         1 UNK         0.0600 
    186 H186        2.5976  -12.4006  -52.6723 H         1 UNK         0.0600 
    187 H187        3.9596  -12.0858  -51.6041 H         1 UNK         0.0600 
    188 H188        3.8821  -13.5902  -52.5218 H         1 UNK         0.0600 
    189 H189        4.3400  -13.6608  -49.7523 H         1 UNK         0.3000 
    190 H190        0.9849  -21.4572  -47.4322 H         1 UNK         0.3000 
    191 H191       -0.7998  -22.0320  -49.5288 H         1 UNK         0.0600 
    192 H192       -0.5570  -19.8083  -48.4071 H         1 UNK         0.0600 
    193 H193       -2.2300  -20.3340  -48.3926 H         1 UNK         0.0600 
    194 H194       -1.2607  -20.4561  -46.9271 H         1 UNK         0.0600 
    195 H195       -0.8704  -22.9949  -46.0943 H         1 UNK         0.3000 
    196 H196       -3.4777  -24.2612  -46.2079 H         1 UNK         0.0600 
    197 H197       -2.9086  -25.0053  -43.9139 H         1 UNK         0.0600 
    198 H198       -2.5768  -23.2903  -44.0884 H         1 UNK         0.0600 
    199 H199       -1.2529  -24.4492  -44.1034 H         1 UNK         0.0600 
    200 H200       -0.0596  -25.3711  -46.2298 H         1 UNK         0.3000 
    201 H201       -0.5373  -28.1447  -46.3259 H         1 UNK         0.0600 
    202 H202        1.6550  -27.1186  -45.7552 H         1 UNK         0.0600 
    203 H203        1.8381  -26.5397  -47.4098 H         1 UNK         0.0600 
    204 H204        1.8366  -28.2663  -47.0741 H         1 UNK         0.0600 
    205 H205       -0.1997  -25.7884  -49.0005 H         1 UNK         0.3000 
    206 H206       -0.5394  -27.7104  -51.1295 H         1 UNK         0.0600 
    207 H207        0.6495  -25.5439  -51.4261 H         1 UNK         0.0600 
    208 H208       -0.7207  -25.6390  -52.5204 H         1 UNK         0.0600 
    209 H209       -0.8299  -24.6554  -51.0653 H         1 UNK         0.0600 
    210 H210       -2.7593  -26.3817  -48.9099 H         1 UNK         0.3000 
    211 H211       -4.9306  -26.1541  -48.6751 H         1 UNK         0.0600 
    212 H212       -5.2923  -28.1508  -50.9711 H         1 UNK         0.0600 
    213 H213       -6.4722  -27.7476  -49.7329 H         1 UNK         0.0600 
    214 H214       -4.9957  -28.5868  -49.2882 H         1 UNK         0.0600 
    215 H215       -3.5252  -24.3149  -50.3430 H         1 UNK         0.3000 
    216 H216       -5.3891  -23.4112  -52.4546 H         1 UNK         0.0600 
    217 H217       -3.5413  -21.8277  -52.9601 H         1 UNK         0.0600 
    218 H218       -2.9217  -23.4647  -52.8777 H         1 UNK         0.0600 
    219 H219       -2.6576  -22.3586  -51.5337 H         1 UNK         0.0600 
    220 H220       -4.0973  -22.5006  -49.2949 H         1 UNK         0.3000 
    221 H221       -4.6287  -21.1336  -47.6761 H         1 UNK         0.0600 
    222 H222       -7.4462  -20.9457  -48.8790 H         1 UNK         0.0600 
    223 H223       -6.8764  -22.2767  -47.8769 H         1 UNK         0.0600 
    224 H224       -7.0022  -20.6668  -47.2002 H         1 UNK         0.0600 
    225 H225       -5.8563  -18.8754  -47.1343 H         1 UNK         0.3000 
    226 H226       -4.3554  -16.8335  -48.4280 H         1 UNK         0.0600 
    227 H227       -6.7264  -16.7362  -46.4903 H         1 UNK         0.0600 
    228 H228       -5.0067  -16.6162  -46.1018 H         1 UNK         0.0600 
    229 H229       -5.7984  -15.3263  -46.9856 H         1 UNK         0.0600 
    230 H230       -7.4577  -18.2053  -49.2116 H         1 UNK         0.3000 
    231 H231       -8.6144  -16.1199  -50.7480 H         1 UNK         0.0600 
    232 H232       -8.8465  -19.1685  -51.0139 H         1 UNK         0.0600 
    233 H233       -9.9312  -17.9978  -51.7556 H         1 UNK         0.0600 
    234 H234       -9.8624  -18.1358  -50.0061 H         1 UNK         0.0600 
    235 H235       -6.0040  -18.3878  -51.4859 H         1 UNK         0.3000 
    236 H236       -5.8233  -17.3936  -54.3028 H         1 UNK         0.0600 
    237 H237       -5.9430  -19.8662  -54.0532 H         1 UNK         0.0600 
    238 H238       -4.3546  -19.3734  -54.6298 H         1 UNK         0.0600 
    239 H239       -4.5756  -19.8282  -52.9436 H         1 UNK         0.0600 
    240 H240       -3.8807  -18.0661  -51.3209 H         1 UNK         0.3000 
    241 H241       -1.5543  -16.7800  -52.4888 H         1 UNK         0.0600 
    242 H242       -3.1901  -13.9977  -50.0855 H         1 UNK         0.3800 
    243 H243       -4.1306  -15.3329  -50.6641 H         1 UNK         0.3800 
    244 H244       -0.3256  -17.6307  -50.5545 H         1 UNK         0.0800 
    245 H245       -1.8102  -18.0003  -49.7158 H         1 UNK         0.0800 
    246 H246       -0.2526  -20.2480  -53.4364 H         1 UNK         0.0800 
    247 H247        0.0142  -18.5639  -53.0878 H         1 UNK         0.0800 
@<TRIPOS>BOND
     1    1    2 1    
     2    1  127 1    
     3    1  128 1    
     4    1  129 1    
     5    2    3 2    
     6    2    4 am   BACKBONE|DICT|INTERRES
     7    4    5 1    
     8    4  130 1    
     9    5    6 1    
    10    5   65 1    
    11    5  131 1    
    12    6    7 1    
    13    6  132 1    
    14    6  133 1    
    15    7    8 1    
    16    8    9 1    
    17    8  134 1    
    18    8  135 1    
    19    9   10 ar   
    20    9   14 ar   
    21   10   11 ar   
    22   10  136 1    
    23   11   12 ar   
    24   11  126 1    
    25   12   13 ar   
    26   12  137 1    
    27   13   14 ar   
    28   13   15 1    
    29   14  138 1    
    30   15   16 1    
    31   15  139 1    
    32   15  140 1    
    33   16   17 1    
    34   17   18 1    
    35   17  141 1    
    36   17  142 1    
    37   18   19 1    
    38   18   67 1    
    39   18  143 1    
    40   19   20 am   BACKBONE|DICT|INTERRES
    41   19  144 1    
    42   20   21 2    
    43   20   22 1    
    44   22   23 1    
    45   22   24 1    
    46   22  145 1    
    47   23  146 1    
    48   23  147 1    
    49   23  148 1    
    50   24   25 am   BACKBONE|DICT|INTERRES
    51   24  149 1    
    52   25   26 2    
    53   25   27 1    
    54   27   28 1    
    55   27   29 1    
    56   27  150 1    
    57   28  151 1    
    58   28  152 1    
    59   28  153 1    
    60   29   30 am   BACKBONE|DICT|INTERRES
    61   29  154 1    
    62   30   31 2    
    63   30   32 1    
    64   32   33 1    
    65   32   34 1    
    66   32  155 1    
    67   33  156 1    
    68   33  157 1    
    69   33  158 1    
    70   34   35 am   BACKBONE|DICT|INTERRES
    71   34  159 1    
    72   35   36 2    
    73   35   37 1    
    74   37   38 1    
    75   37   39 1    
    76   37  160 1    
    77   38  161 1    
    78   38  162 1    
    79   38  163 1    
    80   39   40 am   BACKBONE|DICT|INTERRES
    81   39  164 1    
    82   40   41 2    
    83   40   42 1    
    84   42   43 1    
    85   42   44 1    
    86   42  165 1    
    87   43  166 1    
    88   43  167 1    
    89   43  168 1    
    90   44   45 am   BACKBONE|DICT|INTERRES
    91   44  169 1    
    92   45   46 2    
    93   45   47 1    
    94   47   48 1    
    95   47   49 1    
    96   47  170 1    
    97   48  171 1    
    98   48  172 1    
    99   48  173 1    
   100   49   50 am   BACKBONE|DICT|INTERRES
   101   49  174 1    
   102   50   51 2    
   103   50   52 1    
   104   52   53 1    
   105   52   54 1    
   106   52  175 1    
   107   53  176 1    
   108   53  177 1    
   109   53  178 1    
   110   54   55 am   BACKBONE|DICT|INTERRES
   111   54  179 1    
   112   55   56 2    
   113   55   57 1    
   114   57   58 1    
   115   57   59 1    
   116   57  180 1    
   117   58  181 1    
   118   58  182 1    
   119   58  183 1    
   120   59   60 am   BACKBONE|DICT|INTERRES
   121   59  184 1    
   122   60   61 2    
   123   60   62 1    
   124   62   63 1    
   125   62   64 1    
   126   62  185 1    
   127   63  186 1    
   128   63  187 1    
   129   63  188 1    
   130   64   65 am   BACKBONE|DICT|INTERRES
   131   64  189 1    
   132   65   66 2    
   133   67   68 2    
   134   67   69 am   BACKBONE|DICT|INTERRES
   135   69   70 1    
   136   69  190 1    
   137   70   71 1    
   138   70   72 1    
   139   70  191 1    
   140   71  192 1    
   141   71  193 1    
   142   71  194 1    
   143   72   73 2    
   144   72   74 am   BACKBONE|DICT|INTERRES
   145   74   75 1    
   146   74  195 1    
   147   75   76 1    
   148   75   77 1    
   149   75  196 1    
   150   76  197 1    
   151   76  198 1    
   152   76  199 1    
   153   77   78 2    
   154   77   79 am   BACKBONE|DICT|INTERRES
   155   79   80 1    
   156   79  200 1    
   157   80   81 1    
   158   80   82 1    
   159   80  201 1    
   160   81  202 1    
   161   81  203 1    
   162   81  204 1    
   163   82   83 2    
   164   82   84 am   BACKBONE|DICT|INTERRES
   165   84   85 1    
   166   84  205 1    
   167   85   86 1    
   168   85   87 1    
   169   85  206 1    
   170   86  207 1    
   171   86  208 1    
   172   86  209 1    
   173   87   88 2    
   174   87   89 am   BACKBONE|DICT|INTERRES
   175   89   90 1    
   176   89  210 1    
   177   90   91 1    
   178   90   92 1    
   179   90  211 1    
   180   91  212 1    
   181   91  213 1    
   182   91  214 1    
   183   92   93 2    
   184   92   94 am   BACKBONE|DICT|INTERRES
   185   94   95 1    
   186   94  215 1    
   187   95   96 1    
   188   95   97 1    
   189   95  216 1    
   190   96  217 1    
   191   96  218 1    
   192   96  219 1    
   193   97   98 2    
   194   97   99 am   BACKBONE|DICT|INTERRES
   195   99  100 1    
   196   99  220 1    
   197  100  101 1    
   198  100  102 1    
   199  100  221 1    
   200  101  222 1    
   201  101  223 1    
   202  101  224 1    
   203  102  103 2    
   204  102  104 am   BACKBONE|DICT|INTERRES
   205  104  105 1    
   206  104  225 1    
   207  105  106 1    
   208  105  107 1    
   209  105  226 1    
   210  106  227 1    
   211  106  228 1    
   212  106  229 1    
   213  107  108 2    
   214  107  109 am   BACKBONE|DICT|INTERRES
   215  109  110 1    
   216  109  230 1    
   217  110  111 1    
   218  110  112 1    
   219  110  231 1    
   220  111  232 1    
   221  111  233 1    
   222  111  234 1    
   223  112  113 2    
   224  112  114 am   BACKBONE|DICT|INTERRES
   225  114  115 1    
   226  114  235 1    
   227  115  116 1    
   228  115  117 1    
   229  115  236 1    
   230  116  237 1    
   231  116  238 1    
   232  116  239 1    
   233  117  118 2    
   234  117  119 am   BACKBONE|DICT|INTERRES
   235  119  120 1    
   236  119  240 1    
   237  120  121 1    
   238  120  124 1    
   239  120  241 1    
   240  121  122 am   BACKBONE|DICT|INTERRES
   241  121  123 2    
   242  122  242 1    
   243  122  243 1    
   244  124  125 1    
   245  124  244 1    
   246  124  245 1    
   247  125  126 1    
   248  126  246 1    
   249  126  247 1    
@<TRIPOS>SUBSTRUCTURE
     1 UNK         1 GROUP             0       ****    0 ROOT    
