@<TRIPOS>MOLECULE
3R540
247   249    1
SMALL
USER_CHARGES


@<TRIPOS>ATOM
      1 CA          1.3960  -13.8519  -54.0757 C.3       0 UNK        -0.1800 
      2 C           1.6343  -14.0208  -52.5815 C.2       0 UNK         0.5000 
      3 O           2.7370  -14.3943  -52.1846 O.2       0 UNK        -0.5000 
      4 N           0.6021  -13.7607  -51.7684 N.am      1 UNK        -0.5000 
      5 CA          0.6023  -13.8669  -50.3060 C.3       1 UNK         0.1400 
      6 C6         -0.8288  -13.6875  -49.7321 C.3       23 UNK        -0.0398 
      7 S7         -1.0223  -14.3472  -48.0438 S.3       23 UNK        -0.2404 
      8 C8         -1.8440  -15.9454  -48.3409 C.3       23 UNK        -0.0205 
      9 C9         -0.9251  -16.9223  -49.0542 C.ar      23 UNK        -0.0193 
     10 C10        -0.9634  -17.0234  -50.4456 C.ar      23 UNK        -0.1150 
     11 C11        -0.0893  -17.8741  -51.1258 C.ar      23 UNK        -0.0193 
     12 C12         0.8246  -18.6386  -50.3927 C.ar      23 UNK        -0.1150 
     13 C13         0.8628  -18.5600  -48.9958 C.ar      23 UNK        -0.0193 
     14 C14        -0.0185  -17.7022  -48.3314 C.ar      23 UNK        -0.1150 
     15 C15         1.8834  -19.3735  -48.2134 C.3       23 UNK        -0.0205 
     16 S16         1.4342  -21.1314  -48.1083 S.3       23 UNK        -0.2404 
     17 C17         0.2550  -21.1277  -46.7191 C.3       23 UNK        -0.0398 
     18 CA         -0.1390  -22.5637  -46.2884 C.3       11 UNK         0.1400 
     19 N          -0.4679  -22.6296  -44.8599 N.am      11 UNK        -0.5000 
     20 C          -0.6876  -23.7605  -44.1735 C.2       10 UNK         0.5000 
     21 O          -0.5868  -24.8852  -44.6581 O.2       10 UNK        -0.5000 
     22 CA         -1.1596  -23.6091  -42.7180 C.3       10 UNK         0.1400 
     23 CB          0.0306  -23.4166  -41.7668 C.3       10 UNK        -0.1800 
     24 N          -2.1047  -22.5017  -42.5756 N.am      10 UNK        -0.5000 
     25 C          -3.3582  -22.5254  -43.0519 C.2       9 UNK         0.5000 
     26 O          -3.8597  -23.5069  -43.5995 O.2       9 UNK        -0.5000 
     27 CA         -4.1695  -21.2209  -42.9449 C.3       9 UNK         0.1400 
     28 CB         -4.8591  -21.1237  -41.5763 C.3       9 UNK        -0.1800 
     29 N          -3.3535  -20.0253  -43.1635 N.am      9 UNK        -0.5000 
     30 C          -2.7441  -19.7191  -44.3183 C.2       8 UNK         0.5000 
     31 O          -2.8378  -20.3975  -45.3400 O.2       8 UNK        -0.5000 
     32 CA         -1.8367  -18.4744  -44.3148 C.3       8 UNK         0.1400 
     33 CB         -2.6571  -17.2278  -44.6684 C.3       8 UNK        -0.1800 
     34 N          -1.1403  -18.2608  -43.0407 N.am      8 UNK        -0.5000 
     35 C          -0.2905  -19.1358  -42.4807 C.2       7 UNK         0.5000 
     36 O           0.0100  -20.2089  -43.0082 O.2       7 UNK        -0.5000 
     37 CA          0.2539  -18.7823  -41.0783 C.3       7 UNK         0.1400 
     38 CB          1.5321  -19.5644  -40.7080 C.3       7 UNK        -0.1800 
     39 N           0.4184  -17.3393  -40.8624 N.am      7 UNK        -0.5000 
     40 C           1.2957  -16.5297  -41.4709 C.2       6 UNK         0.5000 
     41 O           2.1563  -16.9062  -42.2685 O.2       6 UNK        -0.5000 
     42 CA          1.1726  -15.0292  -41.1476 C.3       6 UNK         0.1400 
     43 CB          2.4768  -14.4750  -40.5529 C.3       6 UNK        -0.1800 
     44 N           0.8507  -14.2939  -42.3658 N.am      6 UNK        -0.5000 
     45 C          -0.3265  -14.3603  -43.0039 C.2       5 UNK         0.5000 
     46 O          -1.3285  -14.9014  -42.5338 O.2       5 UNK        -0.5000 
     47 CA         -0.3716  -13.7646  -44.4252 C.3       5 UNK         0.1400 
     48 CB         -0.7625  -12.2806  -44.3828 C.3       5 UNK        -0.1800 
     49 N           0.9017  -13.9041  -45.1336 N.am      5 UNK        -0.5000 
     50 C           1.5021  -15.0667  -45.4340 C.2       4 UNK         0.5000 
     51 O           0.9741  -16.1646  -45.2568 O.2       4 UNK        -0.5000 
     52 CA          2.9332  -15.0022  -46.0102 C.3       4 UNK         0.1400 
     53 CB          3.0776  -15.8926  -47.2543 C.3       4 UNK        -0.1800 
     54 N           3.3852  -13.6430  -46.3278 N.am      4 UNK        -0.5000 
     55 C           3.8081  -12.7431  -45.4268 C.2       3 UNK         0.5000 
     56 O           3.8443  -12.9704  -44.2169 O.2       3 UNK        -0.5000 
     57 CA          4.2381  -11.3525  -45.9395 C.3       3 UNK         0.1400 
     58 CB          5.7697  -11.2300  -45.9331 C.3       3 UNK        -0.1800 
     59 N           3.7467  -11.0284  -47.2801 N.am      3 UNK        -0.5000 
     60 C           2.4687  -10.7887  -47.6030 C.2       2 UNK         0.5000 
     61 O           1.5479  -10.7994  -46.7845 O.2       2 UNK        -0.5000 
     62 CA          2.1542  -10.5274  -49.0951 C.3       2 UNK         0.1400 
     63 CB          3.4026  -10.2634  -49.9670 C.3       2 UNK        -0.1800 
     64 N           1.3515  -11.6053  -49.6849 N.am      2 UNK        -0.5000 
     65 C           1.6320  -12.9180  -49.6539 C.2       1 UNK         0.5000 
     66 O           2.6572  -13.3828  -49.1540 O.2       1 UNK        -0.5000 
     67 C          -1.2685  -23.1426  -47.1721 C.2       11 UNK         0.5000 
     68 O          -0.9928  -23.8581  -48.1389 O.2       11 UNK        -0.5000 
     69 N          -2.5238  -22.8499  -46.8057 N.am      12 UNK        -0.5000 
     70 CA         -3.7275  -23.4129  -47.4129 C.3       12 UNK         0.1400 
     71 CB         -4.9641  -22.6534  -46.9106 C.3       12 UNK        -0.1800 
     72 C          -3.8489  -24.9255  -47.1624 C.2       12 UNK         0.5000 
     73 O          -4.0209  -25.6810  -48.1190 O.2       12 UNK        -0.5000 
     74 N          -3.7037  -25.3454  -45.8962 N.am      13 UNK        -0.5000 
     75 CA         -3.7625  -26.7462  -45.4624 C.3       13 UNK         0.1400 
     76 CB         -3.7021  -26.8108  -43.9293 C.3       13 UNK        -0.1800 
     77 C          -2.6684  -27.6370  -46.0831 C.2       13 UNK         0.5000 
     78 O          -2.9353  -28.7973  -46.3971 O.2       13 UNK        -0.5000 
     79 N          -1.4718  -27.0697  -46.2849 N.am      14 UNK        -0.5000 
     80 CA         -0.3393  -27.6977  -46.9696 C.3       14 UNK         0.1400 
     81 CB          0.9351  -26.9015  -46.6437 C.3       14 UNK        -0.1800 
     82 C          -0.5182  -27.8078  -48.4985 C.2       14 UNK         0.5000 
     83 O           0.3089  -28.4471  -49.1494 O.2       14 UNK        -0.5000 
     84 N          -1.5636  -27.1675  -49.0453 N.am      15 UNK        -0.5000 
     85 CA         -1.9010  -27.0522  -50.4674 C.3       15 UNK         0.1400 
     86 CB         -2.1786  -28.4322  -51.0984 C.3       15 UNK        -0.1800 
     87 C          -0.8889  -26.2110  -51.2735 C.2       15 UNK         0.5000 
     88 O          -0.8412  -26.3227  -52.4991 O.2       15 UNK        -0.5000 
     89 N          -0.1176  -25.3635  -50.5791 N.am      16 UNK        -0.5000 
     90 CA          0.8211  -24.4167  -51.1754 C.3       16 UNK         0.1400 
     91 CB          1.9406  -24.1070  -50.1713 C.3       16 UNK        -0.1800 
     92 C           0.0865  -23.1463  -51.6334 C.2       16 UNK         0.5000 
     93 O           0.2751  -22.7135  -52.7707 O.2       16 UNK        -0.5000 
     94 N          -0.7824  -22.6126  -50.7630 N.am      17 UNK        -0.5000 
     95 CA         -1.7384  -21.5581  -51.1108 C.3       17 UNK         0.1400 
     96 CB         -2.0674  -20.7214  -49.8653 C.3       17 UNK        -0.1800 
     97 C          -3.0305  -22.1530  -51.6980 C.2       17 UNK         0.5000 
     98 O          -3.7025  -21.4825  -52.4819 O.2       17 UNK        -0.5000 
     99 N          -3.3595  -23.3923  -51.2953 N.am      18 UNK        -0.5000 
    100 CA        -4.5626  -24.1554  -51.6416 C.3       18 UNK         0.1400 
    101 CB        -4.5122  -24.6021  -53.1189 C.3       18 UNK        -0.1800 
    102 C         -5.8436  -23.3916  -51.2521 C.2       18 UNK         0.5000 
    103 O         -6.1525  -23.3088  -50.0639 O.2       18 UNK        -0.5000 
    104 N         -6.5423  -22.8196  -52.2412 N.am      19 UNK        -0.5000 
    105 CA        -7.7074  -21.9518  -52.0497 C.3       19 UNK         0.1400 
    106 CB        -8.4273  -21.7931  -53.3985 C.3       19 UNK        -0.1800 
    107 C         -7.3573  -20.5668  -51.4631 C.2       19 UNK         0.5000 
    108 O         -8.2588  -19.8697  -50.9969 O.2       19 UNK        -0.5000 
    109 N         -6.0704  -20.1882  -51.5181 N.am      20 UNK        -0.5000 
    110 CA        -5.4844  -18.9218  -51.0685 C.3       20 UNK         0.1400 
    111 CB        -5.6329  -18.7364  -49.5446 C.3       20 UNK        -0.1800 
    112 C         -5.9542  -17.7037  -51.8873 C.2       20 UNK         0.5000 
    113 O         -5.9053  -16.5736  -51.3991 O.2       20 UNK        -0.5000 
    114 N         -6.3389  -17.9440  -53.1504 N.am      21 UNK        -0.5000 
    115 CA        -6.7060  -16.9220  -54.1375 C.3       21 UNK         0.1400 
    116 CB        -7.2502  -17.6171  -55.3947 C.3       21 UNK        -0.1800 
    117 C         -5.5381  -15.9793  -54.4964 C.2       21 UNK         0.5000 
    118 O         -5.7720  -14.8419  -54.9059 O.2       21 UNK        -0.5000 
    119 N         -4.3070  -16.4647  -54.2966 N.am      22 UNK        -0.5000 
    120 CA        -3.0577  -15.6946  -54.3108 C.3       22 UNK         0.1400 
    121 C         -2.8748  -14.7187  -53.1076 C.2       22 UNK         0.5000 
    122 N         -3.7189  -14.7373  -52.0815 N.am      22 UNK        -0.7600 
    123 O         -1.9532  -13.9079  -53.1117 O.2       22 UNK        -0.5000 
    124 C124       -1.8309  -16.6255  -54.5142 C.3       23 UNK        -0.0398 
    125 S125       -1.7648  -18.0549  -53.3645 S.3       23 UNK        -0.2404 
    126 C126       -0.0881  -17.9257  -52.6489 C.3       23 UNK        -0.0205 
    127 H127        0.4239  -13.4056  -54.2854 H         1 UNK         0.0600 
    128 H128        1.4424  -14.8199  -54.5744 H         1 UNK         0.0600 
    129 H129        2.1618  -13.2076  -54.5075 H         1 UNK         0.0600 
    130 H130       -0.2929  -13.5317  -52.1933 H         1 UNK         0.3000 
    131 H131        0.9269  -14.8846  -50.0798 H         1 UNK         0.0600 
    132 H132       -1.1381  -12.6418  -49.7361 H         1 UNK         0.0800 
    133 H133       -1.5495  -14.1939  -50.3702 H         1 UNK         0.0800 
    134 H134       -2.7618  -15.7914  -48.9109 H         1 UNK         0.0800 
    135 H135       -2.1475  -16.3664  -47.3837 H         1 UNK         0.0800 
    136 H136       -1.6611  -16.4192  -51.0052 H         1 UNK         0.1150 
    137 H137        1.5138  -19.2938  -50.9065 H         1 UNK         0.1150 
    138 H138        0.0173  -17.6204  -47.2543 H         1 UNK         0.1150 
    139 H139        2.0101  -18.9760  -47.2060 H         1 UNK         0.0800 
    140 H140        2.8557  -19.2875  -48.7003 H         1 UNK         0.0800 
    141 H141       -0.6171  -20.5225  -46.9726 H         1 UNK         0.0800 
    142 H142        0.7430  -20.6133  -45.8895 H         1 UNK         0.0800 
    143 H143        0.7297  -23.2125  -46.4214 H         1 UNK         0.0600 
    144 H144       -0.5395  -21.7486  -44.3640 H         1 UNK         0.3000 
    145 H145       -1.6697  -24.5307  -42.4309 H         1 UNK         0.0600 
    146 H146        0.6872  -24.2872  -41.7911 H         1 UNK         0.0600 
    147 H147       -0.3013  -23.2885  -40.7365 H         1 UNK         0.0600 
    148 H148        0.6335  -22.5506  -42.0375 H         1 UNK         0.0600 
    149 H149       -1.7417  -21.6410  -42.1929 H         1 UNK         0.3000 
    150 H150       -4.9420  -21.2465  -43.7163 H         1 UNK         0.0600 
    151 H151       -4.1355  -21.0672  -40.7621 H         1 UNK         0.0600 
    152 H152       -5.4901  -21.9949  -41.3951 H         1 UNK         0.0600 
    153 H153       -5.4993  -20.2432  -41.5190 H         1 UNK         0.0600 
    154 H154       -3.2274  -19.4077  -42.3754 H         1 UNK         0.3000 
    155 H155       -1.0802  -18.6174  -45.0892 H         1 UNK         0.0600 
    156 H156       -2.0025  -16.3852  -44.8802 H         1 UNK         0.0600 
    157 H157       -3.3280  -16.9400  -43.8583 H         1 UNK         0.0600 
    158 H158       -3.2680  -17.3955  -45.5564 H         1 UNK         0.0600 
    159 H159       -1.3142  -17.3819  -42.5721 H         1 UNK         0.3000 
    160 H160       -0.5222  -19.0960  -40.3789 H         1 UNK         0.0600 
    161 H161        2.3322  -19.4043  -41.4310 H         1 UNK         0.0600 
    162 H162        1.3367  -20.6364  -40.6746 H         1 UNK         0.0600 
    163 H163        1.9029  -19.2741  -39.7251 H         1 UNK         0.0600 
    164 H164       -0.2514  -16.9209  -40.2312 H         1 UNK         0.3000 
    165 H165        0.3720  -14.8745  -40.4211 H         1 UNK         0.0600 
    166 H166        2.3747  -13.4211  -40.2935 H         1 UNK         0.0600 
    167 H167        2.7477  -15.0103  -39.6421 H         1 UNK         0.0600 
    168 H168        3.3109  -14.5682  -41.2501 H         1 UNK         0.0600 
    169 H169        1.6297  -13.8722  -42.8520 H         1 UNK         0.3000 
    170 H170       -1.1327  -14.2999  -44.9929 H         1 UNK         0.0600 
    171 H171       -0.8664  -11.8737  -45.3892 H         1 UNK         0.0600 
    172 H172       -0.0187  -11.6825  -43.8549 H         1 UNK         0.0600 
    173 H173       -1.7183  -12.1427  -43.8759 H         1 UNK         0.0600 
    174 H174        1.3874  -13.0483  -45.3600 H         1 UNK         0.3000 
    175 H175        3.5978  -15.4046  -45.2429 H         1 UNK         0.0600 
    176 H176        3.0171  -16.9431  -46.9762 H         1 UNK         0.0600 
    177 H177        2.2891  -15.7027  -47.9830 H         1 UNK         0.0600 
    178 H178        4.0385  -15.7450  -47.7472 H         1 UNK         0.0600 
    179 H179        3.3274  -13.3777  -47.3075 H         1 UNK         0.3000 
    180 H180        3.8345  -10.6130  -45.2447 H         1 UNK         0.0600 
    181 H181        6.2320  -11.9357  -46.6245 H         1 UNK         0.0600 
    182 H182        6.1746  -11.4304  -44.9402 H         1 UNK         0.0600 
    183 H183        6.0870  -10.2257  -46.2145 H         1 UNK         0.0600 
    184 H184        4.4311  -11.0348  -48.0224 H         1 UNK         0.3000 
    185 H185        1.5377   -9.6278  -49.1212 H         1 UNK         0.0600 
    186 H186        3.9938   -9.4364  -49.5714 H         1 UNK         0.0600 
    187 H187        4.0512  -11.1374  -50.0377 H         1 UNK         0.0600 
    188 H188        3.1136   -9.9905  -50.9820 H         1 UNK         0.0600 
    189 H189        0.4890  -11.3111  -50.1195 H         1 UNK         0.3000 
    190 H190       -2.6646  -22.1801  -46.0548 H         1 UNK         0.3000 
    191 H191       -3.6649  -23.2670  -48.4914 H         1 UNK         0.0600 
    192 H192       -4.9102  -21.5979  -47.1783 H         1 UNK         0.0600 
    193 H193       -5.8758  -23.0550  -47.3540 H         1 UNK         0.0600 
    194 H194       -5.0716  -22.7181  -45.8287 H         1 UNK         0.0600 
    195 H195       -3.5895  -24.6530  -45.1613 H         1 UNK         0.3000 
    196 H196       -4.7277  -27.1454  -45.7804 H         1 UNK         0.0600 
    197 H197       -3.7794  -27.8403  -43.5775 H         1 UNK         0.0600 
    198 H198       -4.5211  -26.2508  -43.4776 H         1 UNK         0.0600 
    199 H199       -2.7660  -26.4028  -43.5481 H         1 UNK         0.0600 
    200 H200       -1.3089  -26.1375  -45.9131 H         1 UNK         0.3000 
    201 H201       -0.2199  -28.7111  -46.5815 H         1 UNK         0.0600 
    202 H202        1.8123  -27.3485  -47.1132 H         1 UNK         0.0600 
    203 H203        1.1214  -26.8784  -45.5699 H         1 UNK         0.0600 
    204 H204        0.8641  -25.8708  -46.9941 H         1 UNK         0.0600 
    205 H205       -2.1942  -26.6769  -48.4212 H         1 UNK         0.3000 
    206 H206       -2.8363  -26.4959  -50.4979 H         1 UNK         0.0600 
    207 H207       -2.8904  -29.0024  -50.5014 H         1 UNK         0.0600 
    208 H208       -2.6062  -28.3259  -52.0960 H         1 UNK         0.0600 
    209 H209       -1.2697  -29.0259  -51.1971 H         1 UNK         0.0600 
    210 H210       -0.2597  -25.2885  -49.5791 H         1 UNK         0.3000 
    211 H211        1.2820  -24.8702  -52.0557 H         1 UNK         0.0600 
    212 H212        1.5426  -23.7990  -49.2055 H         1 UNK         0.0600 
    213 H213        2.5888  -23.3086  -50.5348 H         1 UNK         0.0600 
    214 H214        2.5653  -24.9842  -50.0029 H         1 UNK         0.0600 
    215 H215       -0.8459  -23.0137  -49.8319 H         1 UNK         0.3000 
    216 H216       -1.2935  -20.8938  -51.8547 H         1 UNK         0.0600 
    217 H217       -2.5759  -19.7990  -50.1425 H         1 UNK         0.0600 
    218 H218       -1.1650  -20.4342  -49.3329 H         1 UNK         0.0600 
    219 H219       -2.7117  -21.2505  -49.1657 H         1 UNK         0.0600 
    220 H220       -2.7420  -23.8344  -50.6324 H         1 UNK         0.3000 
    221 H221       -4.5567  -25.0545  -51.0252 H         1 UNK         0.0600 
    222 H222       -4.4506  -23.7596  -53.8082 H         1 UNK         0.0600 
    223 H223       -3.6431  -25.2351  -53.3000 H         1 UNK         0.0600 
    224 H224       -5.3945  -25.1864  -53.3832 H         1 UNK         0.0600 
    225 H225       -6.2023  -22.9187  -53.1869 H         1 UNK         0.3000 
    226 H226       -8.3898  -22.4402  -51.3509 H         1 UNK         0.0600 
    227 H227       -8.7426  -22.7590  -53.7936 H         1 UNK         0.0600 
    228 H228       -7.7881  -21.3172  -54.1432 H         1 UNK         0.0600 
    229 H229       -9.3229  -21.1790  -53.2948 H         1 UNK         0.0600 
    230 H230       -5.4034  -20.8308  -51.9386 H         1 UNK         0.3000 
    231 H231       -4.4183  -19.0036  -51.2796 H         1 UNK         0.0600 
    232 H232       -6.6704  -18.5696  -49.2548 H         1 UNK         0.0600 
    233 H233       -5.0546  -17.8794  -49.1973 H         1 UNK         0.0600 
    234 H234       -5.2683  -19.6108  -49.0053 H         1 UNK         0.0600 
    235 H235       -6.3418  -18.9016  -53.4690 H         1 UNK         0.3000 
    236 H236       -7.5022  -16.3107  -53.7079 H         1 UNK         0.0600 
    237 H237       -6.4987  -18.2582  -55.8572 H         1 UNK         0.0600 
    238 H238       -8.1195  -18.2321  -55.1609 H         1 UNK         0.0600 
    239 H239       -7.5622  -16.8855  -56.1412 H         1 UNK         0.0600 
    240 H240       -4.2183  -17.4140  -53.9656 H         1 UNK         0.3000 
    241 H241       -3.1030  -15.0443  -55.1863 H         1 UNK         0.0600 
    242 H242       -3.6065  -14.0636  -51.3434 H         1 UNK         0.3800 
    243 H243       -4.4927  -15.3918  -52.0353 H         1 UNK         0.3800 
    244 H244       -0.9057  -16.0499  -54.4765 H         1 UNK         0.0800 
    245 H245       -1.8662  -17.0353  -55.5243 H         1 UNK         0.0800 
    246 H246        0.4916  -18.7817  -52.9979 H         1 UNK         0.0800 
    247 H247        0.4291  -17.0388  -53.0143 H         1 UNK         0.0800 
@<TRIPOS>BOND
     1    1    2 1    
     2    1  127 1    
     3    1  128 1    
     4    1  129 1    
     5    2    3 2    
     6    2    4 am   BACKBONE|DICT|INTERRES
     7    4    5 1    
     8    4  130 1    
     9    5    6 1    
    10    5   65 1    
    11    5  131 1    
    12    6    7 1    
    13    6  132 1    
    14    6  133 1    
    15    7    8 1    
    16    8    9 1    
    17    8  134 1    
    18    8  135 1    
    19    9   10 ar   
    20    9   14 ar   
    21   10   11 ar   
    22   10  136 1    
    23   11   12 ar   
    24   11  126 1    
    25   12   13 ar   
    26   12  137 1    
    27   13   14 ar   
    28   13   15 1    
    29   14  138 1    
    30   15   16 1    
    31   15  139 1    
    32   15  140 1    
    33   16   17 1    
    34   17   18 1    
    35   17  141 1    
    36   17  142 1    
    37   18   19 1    
    38   18   67 1    
    39   18  143 1    
    40   19   20 am   BACKBONE|DICT|INTERRES
    41   19  144 1    
    42   20   21 2    
    43   20   22 1    
    44   22   23 1    
    45   22   24 1    
    46   22  145 1    
    47   23  146 1    
    48   23  147 1    
    49   23  148 1    
    50   24   25 am   BACKBONE|DICT|INTERRES
    51   24  149 1    
    52   25   26 2    
    53   25   27 1    
    54   27   28 1    
    55   27   29 1    
    56   27  150 1    
    57   28  151 1    
    58   28  152 1    
    59   28  153 1    
    60   29   30 am   BACKBONE|DICT|INTERRES
    61   29  154 1    
    62   30   31 2    
    63   30   32 1    
    64   32   33 1    
    65   32   34 1    
    66   32  155 1    
    67   33  156 1    
    68   33  157 1    
    69   33  158 1    
    70   34   35 am   BACKBONE|DICT|INTERRES
    71   34  159 1    
    72   35   36 2    
    73   35   37 1    
    74   37   38 1    
    75   37   39 1    
    76   37  160 1    
    77   38  161 1    
    78   38  162 1    
    79   38  163 1    
    80   39   40 am   BACKBONE|DICT|INTERRES
    81   39  164 1    
    82   40   41 2    
    83   40   42 1    
    84   42   43 1    
    85   42   44 1    
    86   42  165 1    
    87   43  166 1    
    88   43  167 1    
    89   43  168 1    
    90   44   45 am   BACKBONE|DICT|INTERRES
    91   44  169 1    
    92   45   46 2    
    93   45   47 1    
    94   47   48 1    
    95   47   49 1    
    96   47  170 1    
    97   48  171 1    
    98   48  172 1    
    99   48  173 1    
   100   49   50 am   BACKBONE|DICT|INTERRES
   101   49  174 1    
   102   50   51 2    
   103   50   52 1    
   104   52   53 1    
   105   52   54 1    
   106   52  175 1    
   107   53  176 1    
   108   53  177 1    
   109   53  178 1    
   110   54   55 am   BACKBONE|DICT|INTERRES
   111   54  179 1    
   112   55   56 2    
   113   55   57 1    
   114   57   58 1    
   115   57   59 1    
   116   57  180 1    
   117   58  181 1    
   118   58  182 1    
   119   58  183 1    
   120   59   60 am   BACKBONE|DICT|INTERRES
   121   59  184 1    
   122   60   61 2    
   123   60   62 1    
   124   62   63 1    
   125   62   64 1    
   126   62  185 1    
   127   63  186 1    
   128   63  187 1    
   129   63  188 1    
   130   64   65 am   BACKBONE|DICT|INTERRES
   131   64  189 1    
   132   65   66 2    
   133   67   68 2    
   134   67   69 am   BACKBONE|DICT|INTERRES
   135   69   70 1    
   136   69  190 1    
   137   70   71 1    
   138   70   72 1    
   139   70  191 1    
   140   71  192 1    
   141   71  193 1    
   142   71  194 1    
   143   72   73 2    
   144   72   74 am   BACKBONE|DICT|INTERRES
   145   74   75 1    
   146   74  195 1    
   147   75   76 1    
   148   75   77 1    
   149   75  196 1    
   150   76  197 1    
   151   76  198 1    
   152   76  199 1    
   153   77   78 2    
   154   77   79 am   BACKBONE|DICT|INTERRES
   155   79   80 1    
   156   79  200 1    
   157   80   81 1    
   158   80   82 1    
   159   80  201 1    
   160   81  202 1    
   161   81  203 1    
   162   81  204 1    
   163   82   83 2    
   164   82   84 am   BACKBONE|DICT|INTERRES
   165   84   85 1    
   166   84  205 1    
   167   85   86 1    
   168   85   87 1    
   169   85  206 1    
   170   86  207 1    
   171   86  208 1    
   172   86  209 1    
   173   87   88 2    
   174   87   89 am   BACKBONE|DICT|INTERRES
   175   89   90 1    
   176   89  210 1    
   177   90   91 1    
   178   90   92 1    
   179   90  211 1    
   180   91  212 1    
   181   91  213 1    
   182   91  214 1    
   183   92   93 2    
   184   92   94 am   BACKBONE|DICT|INTERRES
   185   94   95 1    
   186   94  215 1    
   187   95   96 1    
   188   95   97 1    
   189   95  216 1    
   190   96  217 1    
   191   96  218 1    
   192   96  219 1    
   193   97   98 2    
   194   97   99 am   BACKBONE|DICT|INTERRES
   195   99  100 1    
   196   99  220 1    
   197  100  101 1    
   198  100  102 1    
   199  100  221 1    
   200  101  222 1    
   201  101  223 1    
   202  101  224 1    
   203  102  103 2    
   204  102  104 am   BACKBONE|DICT|INTERRES
   205  104  105 1    
   206  104  225 1    
   207  105  106 1    
   208  105  107 1    
   209  105  226 1    
   210  106  227 1    
   211  106  228 1    
   212  106  229 1    
   213  107  108 2    
   214  107  109 am   BACKBONE|DICT|INTERRES
   215  109  110 1    
   216  109  230 1    
   217  110  111 1    
   218  110  112 1    
   219  110  231 1    
   220  111  232 1    
   221  111  233 1    
   222  111  234 1    
   223  112  113 2    
   224  112  114 am   BACKBONE|DICT|INTERRES
   225  114  115 1    
   226  114  235 1    
   227  115  116 1    
   228  115  117 1    
   229  115  236 1    
   230  116  237 1    
   231  116  238 1    
   232  116  239 1    
   233  117  118 2    
   234  117  119 am   BACKBONE|DICT|INTERRES
   235  119  120 1    
   236  119  240 1    
   237  120  121 1    
   238  120  124 1    
   239  120  241 1    
   240  121  122 am   BACKBONE|DICT|INTERRES
   241  121  123 2    
   242  122  242 1    
   243  122  243 1    
   244  124  125 1    
   245  124  244 1    
   246  124  245 1    
   247  125  126 1    
   248  126  246 1    
   249  126  247 1    
@<TRIPOS>SUBSTRUCTURE
     1 UNK         1 GROUP             0       ****    0 ROOT    
