@<TRIPOS>MOLECULE
3R540
247   249    1
SMALL
USER_CHARGES


@<TRIPOS>ATOM
      1 CA         -1.3872  -13.3121  -54.8219 C.3       0 UNK        -0.1800 
      2 C          -0.0774  -12.9600  -54.1311 C.2       0 UNK         0.5000 
      3 O           0.3062  -11.7908  -54.1010 O.2       0 UNK        -0.5000 
      4 N           0.6066  -13.9686  -53.5769 N.am      1 UNK        -0.5000 
      5 CA          1.8898  -13.8434  -52.8701 C.3       1 UNK         0.1400 
      6 C6          2.5372  -15.2277  -52.6216 C.3       23 UNK        -0.0398 
      7 S7          2.9020  -16.1158  -54.1736 S.3       23 UNK        -0.2404 
      8 C8          4.0250  -17.4202  -53.5808 C.3       23 UNK        -0.0205 
      9 C9          3.2670  -18.5431  -52.8895 C.ar      23 UNK        -0.0193 
     10 C10         2.7953  -19.6297  -53.6314 C.ar      23 UNK        -0.1150 
     11 C11         2.0834  -20.6610  -53.0108 C.ar      23 UNK        -0.0193 
     12 C12         1.8628  -20.6089  -51.6320 C.ar      23 UNK        -0.1150 
     13 C13         2.3385  -19.5311  -50.8782 C.ar      23 UNK        -0.0193 
     14 C14         3.0397  -18.5013  -51.5112 C.ar      23 UNK        -0.1150 
     15 C15         2.0959  -19.4881  -49.3802 C.3       23 UNK        -0.0205 
     16 S16         0.3670  -19.0636  -49.0164 S.3       23 UNK        -0.2404 
     17 C17         0.2835  -19.4413  -47.2369 C.3       23 UNK        -0.0398 
     18 CA          0.1469  -20.9523  -46.9296 C.3       11 UNK         0.1400 
     19 N           0.3406  -21.2378  -45.5078 N.am      11 UNK        -0.5000 
     20 C           0.5161  -22.4610  -44.9901 C.2       10 UNK         0.5000 
     21 O           0.5405  -23.4881  -45.6666 O.2       10 UNK        -0.5000 
     22 CA          0.6532  -22.5581  -43.4595 C.3       10 UNK         0.1400 
     23 CB          2.0700  -22.1706  -43.0114 C.3       10 UNK        -0.1800 
     24 N          -0.3281  -21.7329  -42.7550 N.am      10 UNK        -0.5000 
     25 C          -1.6537  -21.9302  -42.8000 C.2       9 UNK         0.5000 
     26 O          -2.1867  -22.8673  -43.3966 O.2       9 UNK        -0.5000 
     27 CA         -2.5313  -20.8653  -42.1126 C.3       9 UNK         0.1400 
     28 CB         -2.5692  -21.0725  -40.5912 C.3       9 UNK        -0.1800 
     29 N          -2.0944  -19.5000  -42.4147 N.am      9 UNK        -0.5000 
     30 C          -2.0718  -18.9780  -43.6489 C.2       8 UNK         0.5000 
     31 O          -2.4589  -19.5722  -44.6523 O.2       8 UNK        -0.5000 
     32 CA         -1.4546  -17.5831  -43.8073 C.3       8 UNK         0.1400 
     33 CB         -2.4809  -16.4854  -43.4925 C.3       8 UNK        -0.1800 
     34 N          -0.2386  -17.4231  -43.0058 N.am      8 UNK        -0.5000 
     35 C           0.9031  -18.0849  -43.2518 C.2       7 UNK         0.5000 
     36 O           1.0586  -18.8282  -44.2169 O.2       7 UNK        -0.5000 
     37 CA          2.0460  -17.9431  -42.2342 C.3       7 UNK         0.1400 
     38 CB          2.9606  -16.7607  -42.5866 C.3       7 UNK        -0.1800 
     39 N           1.5451  -17.8167  -40.8667 N.am      7 UNK        -0.5000 
     40 C           0.9691  -18.8262  -40.1965 C.2       6 UNK         0.5000 
     41 O           0.8551  -19.9652  -40.6510 O.2       6 UNK        -0.5000 
     42 CA          0.3816  -18.5060  -38.8094 C.3       6 UNK         0.1400 
     43 CB          1.4254  -18.7580  -37.7117 C.3       6 UNK        -0.1800 
     44 N          -0.1206  -17.1353  -38.6926 N.am      6 UNK        -0.5000 
     45 C          -1.1394  -16.6283  -39.4001 C.2       5 UNK         0.5000 
     46 O          -1.7769  -17.2852  -40.2256 O.2       5 UNK        -0.5000 
     47 CA         -1.5028  -15.1432  -39.1642 C.3       5 UNK         0.1400 
     48 CB         -0.5908  -14.4284  -38.1412 C.3       5 UNK        -0.1800 
     49 N          -1.5608  -14.3570  -40.4038 N.am      5 UNK        -0.5000 
     50 C          -0.6006  -14.2407  -41.3315 C.2       4 UNK         0.5000 
     51 O           0.4633  -14.8633  -41.3063 O.2       4 UNK        -0.5000 
     52 CA         -0.8690  -13.2480  -42.4724 C.3       4 UNK         0.1400 
     53 CB         -0.5223  -11.8123  -42.0413 C.3       4 UNK        -0.1800 
     54 N          -0.0724  -13.6182  -43.6417 N.am      4 UNK        -0.5000 
     55 C          -0.4075  -13.3571  -44.9102 C.2       3 UNK         0.5000 
     56 O          -1.4231  -12.7327  -45.2326 O.2       3 UNK        -0.5000 
     57 CA          0.5297  -13.8953  -46.0058 C.3       3 UNK         0.1400 
     58 CB          0.4281  -15.4293  -46.1162 C.3       3 UNK        -0.1800 
     59 N           0.1564  -13.2725  -47.2733 N.am      3 UNK        -0.5000 
     60 C           0.8464  -13.3139  -48.4171 C.2       2 UNK         0.5000 
     61 O           1.9230  -13.9016  -48.5397 O.2       2 UNK        -0.5000 
     62 CA          0.2038  -12.5689  -49.6066 C.3       2 UNK         0.1400 
     63 CB          0.4546  -11.0501  -49.5236 C.3       2 UNK        -0.1800 
     64 N           0.5885  -13.1091  -50.9169 N.am      2 UNK        -0.5000 
     65 C           1.7789  -13.0665  -51.5374 C.2       1 UNK         0.5000 
     66 O           2.7644  -12.4565  -51.1200 O.2       1 UNK        -0.5000 
     67 C          -1.1617  -21.5598  -47.4743 C.2       11 UNK         0.5000 
     68 O          -1.1451  -22.1356  -48.5602 O.2       11 UNK        -0.5000 
     69 N          -2.2523  -21.4766  -46.7006 N.am      12 UNK        -0.5000 
     70 CA         -3.5387  -22.1019  -47.0098 C.3       12 UNK         0.1400 
     71 CB         -4.5735  -21.6916  -45.9512 C.3       12 UNK        -0.1800 
     72 C          -3.4400  -23.6330  -47.1238 C.2       12 UNK         0.5000 
     73 O          -3.9916  -24.2097  -48.0616 O.2       12 UNK        -0.5000 
     74 N          -2.6915  -24.2557  -46.2019 N.am      13 UNK        -0.5000 
     75 CA         -2.3823  -25.6848  -46.2230 C.3       13 UNK         0.1400 
     76 CB         -1.7410  -26.0947  -44.8887 C.3       13 UNK        -0.1800 
     77 C          -1.4909  -26.0835  -47.4156 C.2       13 UNK         0.5000 
     78 O          -1.7551  -27.1072  -48.0460 O.2       13 UNK        -0.5000 
     79 N          -0.4754  -25.2622  -47.7208 N.am      14 UNK        -0.5000 
     80 CA          0.4445  -25.4491  -48.8463 C.3       14 UNK         0.1400 
     81 CB          1.6180  -24.4641  -48.7261 C.3       14 UNK        -0.1800 
     82 C          -0.2443  -25.3082  -50.2165 C.2       14 UNK         0.5000 
     83 O          -0.0019  -26.1257  -51.1052 O.2       14 UNK        -0.5000 
     84 N          -1.1052  -24.2910  -50.3546 N.am      15 UNK        -0.5000 
     85 CA         -1.9296  -24.0476  -51.5399 C.3       15 UNK         0.1400 
     86 CB         -2.4803  -22.6132  -51.4793 C.3       15 UNK        -0.1800 
     87 C          -3.0863  -25.0568  -51.6855 C.2       15 UNK         0.5000 
     88 O          -3.5959  -25.2307  -52.7929 O.2       15 UNK        -0.5000 
     89 N          -3.4796  -25.6847  -50.5662 N.am      16 UNK        -0.5000 
     90 CA         -4.6124  -26.5987  -50.3910 C.3       16 UNK         0.1400 
     91 CB         -4.3927  -27.9077  -51.1769 C.3       16 UNK        -0.1800 
     92 C          -5.9591  -25.9124  -50.7012 C.2       16 UNK         0.5000 
     93 O          -6.8323  -26.5064  -51.3372 O.2       16 UNK        -0.5000 
     94 N          -6.0864  -24.6569  -50.2582 N.am      17 UNK        -0.5000 
     95 CA         -7.2084  -23.7612  -50.5180 C.3       17 UNK         0.1400 
     96 CB         -7.1979  -23.3046  -51.9960 C.3       17 UNK        -0.1800 
     97 C          -7.1438  -22.6036  -49.5056 C.2       17 UNK         0.5000 
     98 O          -6.8600  -22.8443  -48.3314 O.2       17 UNK        -0.5000 
     99 N          -7.4026  -21.3724  -49.9605 N.am      18 UNK        -0.5000 
    100 CA        -7.2023  -20.1458  -49.1907 C.3       18 UNK         0.1400 
    101 CB        -8.0512  -19.0273  -49.8169 C.3       18 UNK        -0.1800 
    102 C         -5.7146  -19.7472  -49.1598 C.2       18 UNK         0.5000 
    103 O         -4.9250  -20.2189  -49.9829 O.2       18 UNK        -0.5000 
    104 N         -5.3586  -18.8599  -48.2231 N.am      19 UNK        -0.5000 
    105 CA        -4.0209  -18.2804  -48.1082 C.3       19 UNK         0.1400 
    106 CB        -3.9485  -17.4130  -46.8438 C.3       19 UNK        -0.1800 
    107 C         -3.6651  -17.4574  -49.3598 C.2       19 UNK         0.5000 
    108 O         -4.4278  -16.5656  -49.7374 O.2       19 UNK        -0.5000 
    109 N         -2.5271  -17.7948  -49.9788 N.am      20 UNK        -0.5000 
    110 CA        -1.9733  -17.2064  -51.2015 C.3       20 UNK         0.1400 
    111 CB        -1.5822  -15.7329  -50.9750 C.3       20 UNK        -0.1800 
    112 C         -2.8443  -17.4142  -52.4599 C.2       20 UNK         0.5000 
    113 O         -2.7032  -16.6615  -53.4267 O.2       20 UNK        -0.5000 
    114 N         -3.6828  -18.4648  -52.4638 N.am      21 UNK        -0.5000 
    115 CA        -4.5432  -18.8605  -53.5889 C.3       21 UNK         0.1400 
    116 CB        -5.4561  -20.0146  -53.1510 C.3       21 UNK        -0.1800 
    117 C         -3.7802  -19.2377  -54.8766 C.2       21 UNK         0.5000 
    118 O         -4.3777  -19.2500  -55.9536 O.2       21 UNK        -0.5000 
    119 N         -2.4757  -19.5067  -54.7460 N.am      22 UNK        -0.5000 
    120 CA        -1.5133  -19.6619  -55.8458 C.3       22 UNK         0.1400 
    121 C         -1.3254  -18.3845  -56.7207 C.2       22 UNK         0.5000 
    122 N         -1.6715  -17.1917  -56.2459 N.am      22 UNK        -0.7600 
    123 O         -0.8550  -18.4808  -57.8507 O.2       22 UNK        -0.5000 
    124 C124       -0.1322  -20.1305  -55.3240 C.3       23 UNK        -0.0398 
    125 S125       -0.2025  -21.6222  -54.2727 S.3       23 UNK        -0.2404 
    126 C126        1.5528  -21.8293  -53.8303 C.3       23 UNK        -0.0205 
    127 H127       -1.6226  -14.3726  -54.7282 H         1 UNK         0.0600 
    128 H128       -1.3296  -13.0680  -55.8824 H         1 UNK         0.0600 
    129 H129       -2.2080  -12.7442  -54.3833 H         1 UNK         0.0600 
    130 H130        0.2612  -14.9115  -53.6838 H         1 UNK         0.3000 
    131 H131        2.5608  -13.2688  -53.5126 H         1 UNK         0.0600 
    132 H132        3.4717  -15.1141  -52.0686 H         1 UNK         0.0800 
    133 H133        1.8864  -15.8506  -52.0051 H         1 UNK         0.0800 
    134 H134        4.7751  -16.9951  -52.9122 H         1 UNK         0.0800 
    135 H135        4.5754  -17.8205  -54.4335 H         1 UNK         0.0800 
    136 H136        2.9686  -19.6637  -54.6979 H         1 UNK         0.1150 
    137 H137        1.3101  -21.4012  -51.1458 H         1 UNK         0.1150 
    138 H138        3.4062  -17.6655  -50.9319 H         1 UNK         0.1150 
    139 H139        2.3453  -20.4613  -48.9572 H         1 UNK         0.0800 
    140 H140        2.7540  -18.7627  -48.8993 H         1 UNK         0.0800 
    141 H141       -0.5453  -18.8835  -46.7989 H         1 UNK         0.0800 
    142 H142        1.1900  -19.0458  -46.7776 H         1 UNK         0.0800 
    143 H143        0.9604  -21.4648  -47.4442 H         1 UNK         0.0600 
    144 H144        0.3949  -20.4302  -44.8924 H         1 UNK         0.3000 
    145 H145        0.4803  -23.5984  -43.1761 H         1 UNK         0.0600 
    146 H146        2.1900  -22.2932  -41.9348 H         1 UNK         0.0600 
    147 H147        2.8180  -22.7987  -43.4968 H         1 UNK         0.0600 
    148 H148        2.3020  -21.1342  -43.2570 H         1 UNK         0.0600 
    149 H149        0.0341  -20.9640  -42.2001 H         1 UNK         0.3000 
    150 H150       -3.5480  -20.9786  -42.4948 H         1 UNK         0.0600 
    151 H151       -2.9475  -22.0651  -40.3439 H         1 UNK         0.0600 
    152 H152       -3.2236  -20.3452  -40.1103 H         1 UNK         0.0600 
    153 H153       -1.5799  -20.9792  -40.1438 H         1 UNK         0.0600 
    154 H154       -1.7847  -18.9262  -41.6389 H         1 UNK         0.3000 
    155 H155       -1.1811  -17.4828  -44.8580 H         1 UNK         0.0600 
    156 H156       -3.4199  -16.6640  -44.0166 H         1 UNK         0.0600 
    157 H157       -2.1230  -15.5116  -43.8164 H         1 UNK         0.0600 
    158 H158       -2.7140  -16.4275  -42.4310 H         1 UNK         0.0600 
    159 H159       -0.2993  -16.8532  -42.1720 H         1 UNK         0.3000 
    160 H160        2.6497  -18.8515  -42.2882 H         1 UNK         0.0600 
    161 H161        2.4227  -15.8145  -42.6089 H         1 UNK         0.0600 
    162 H162        3.4075  -16.9004  -43.5717 H         1 UNK         0.0600 
    163 H163        3.7771  -16.6663  -41.8707 H         1 UNK         0.0600 
    164 H164        1.5507  -16.8909  -40.4599 H         1 UNK         0.3000 
    165 H165       -0.4581  -19.1843  -38.6445 H         1 UNK         0.0600 
    166 H166        0.9969  -18.6165  -36.7194 H         1 UNK         0.0600 
    167 H167        1.8019  -19.7808  -37.7588 H         1 UNK         0.0600 
    168 H168        2.2810  -18.0884  -37.8079 H         1 UNK         0.0600 
    169 H169        0.3596  -16.5319  -38.0410 H         1 UNK         0.3000 
    170 H170       -2.5144  -15.1477  -38.7561 H         1 UNK         0.0600 
    171 H171       -0.6157  -14.9230  -37.1694 H         1 UNK         0.0600 
    172 H172        0.4470  -14.3891  -38.4750 H         1 UNK         0.0600 
    173 H173       -0.9205  -13.4019  -37.9799 H         1 UNK         0.0600 
    174 H174       -2.4144  -13.8326  -40.5345 H         1 UNK         0.3000 
    175 H175       -1.9307  -13.3020  -42.7227 H         1 UNK         0.0600 
    176 H176        0.5350  -11.7142  -41.7918 H         1 UNK         0.0600 
    177 H177       -0.7473  -11.0965  -42.8321 H         1 UNK         0.0600 
    178 H178       -1.0967  -11.5150  -41.1632 H         1 UNK         0.0600 
    179 H179        0.7498  -14.1673  -43.4266 H         1 UNK         0.3000 
    180 H180        1.5532  -13.6079  -45.7574 H         1 UNK         0.0600 
    181 H181        0.7115  -15.9032  -45.1786 H         1 UNK         0.0600 
    182 H182        1.0941  -15.8285  -46.8808 H         1 UNK         0.0600 
    183 H183       -0.5860  -15.7447  -46.3627 H         1 UNK         0.0600 
    184 H184       -0.7088  -12.7476  -47.2152 H         1 UNK         0.3000 
    185 H185       -0.8736  -12.7285  -49.5386 H         1 UNK         0.0600 
    186 H186        0.0112  -10.6312  -48.6196 H         1 UNK         0.0600 
    187 H187        1.5180  -10.8115  -49.4998 H         1 UNK         0.0600 
    188 H188        0.0118  -10.5296  -50.3729 H         1 UNK         0.0600 
    189 H189       -0.1353  -13.6356  -51.3825 H         1 UNK         0.3000 
    190 H190       -2.2080  -20.9410  -45.8359 H         1 UNK         0.3000 
    191 H191       -3.8674  -21.7259  -47.9793 H         1 UNK         0.0600 
    192 H192       -4.2646  -21.9895  -44.9493 H         1 UNK         0.0600 
    193 H193       -5.5412  -22.1537  -46.1455 H         1 UNK         0.0600 
    194 H194       -4.7241  -20.6124  -45.9455 H         1 UNK         0.0600 
    195 H195       -2.2860  -23.7093  -45.4509 H         1 UNK         0.3000 
    196 H196       -3.3255  -26.2266  -46.3212 H         1 UNK         0.0600 
    197 H197       -1.5384  -27.1661  -44.8667 H         1 UNK         0.0600 
    198 H198       -2.4004  -25.8702  -44.0500 H         1 UNK         0.0600 
    199 H199       -0.7966  -25.5790  -44.7161 H         1 UNK         0.0600 
    200 H200       -0.2912  -24.4709  -47.1105 H         1 UNK         0.3000 
    201 H201        0.8470  -26.4619  -48.7795 H         1 UNK         0.0600 
    202 H202        2.1422  -24.5872  -47.7783 H         1 UNK         0.0600 
    203 H203        1.2842  -23.4289  -48.7929 H         1 UNK         0.0600 
    204 H204        2.3444  -24.6246  -49.5237 H         1 UNK         0.0600 
    205 H205       -1.1981  -23.6173  -49.5954 H         1 UNK         0.3000 
    206 H206       -1.2954  -24.1341  -52.4246 H         1 UNK         0.0600 
    207 H207       -1.6747  -21.8828  -51.3988 H         1 UNK         0.0600 
    208 H208       -3.0437  -22.3755  -52.3818 H         1 UNK         0.0600 
    209 H209       -3.1461  -22.4717  -50.6264 H         1 UNK         0.0600 
    210 H210       -3.0180  -25.4162  -49.7067 H         1 UNK         0.3000 
    211 H211       -4.6356  -26.8515  -49.3299 H         1 UNK         0.0600 
    212 H212       -4.4135  -27.7441  -52.2546 H         1 UNK         0.0600 
    213 H213       -5.1681  -28.6378  -50.9424 H         1 UNK         0.0600 
    214 H214       -3.4338  -28.3605  -50.9241 H         1 UNK         0.0600 
    215 H215       -5.3635  -24.2826  -49.6493 H         1 UNK         0.3000 
    216 H216       -8.1370  -24.3004  -50.3222 H         1 UNK         0.0600 
    217 H217       -8.0496  -22.6639  -52.2266 H         1 UNK         0.0600 
    218 H218       -7.2580  -24.1544  -52.6757 H         1 UNK         0.0600 
    219 H219       -6.2855  -22.7590  -52.2373 H         1 UNK         0.0600 
    220 H220       -7.5898  -21.2558  -50.9448 H         1 UNK         0.3000 
    221 H221       -7.5392  -20.3082  -48.1646 H         1 UNK         0.0600 
    222 H222       -7.7439  -18.8077  -50.8395 H         1 UNK         0.0600 
    223 H223       -9.1070  -19.2982  -49.8355 H         1 UNK         0.0600 
    224 H224       -7.9662  -18.1020  -49.2459 H         1 UNK         0.0600 
    225 H225       -6.0637  -18.4849  -47.6062 H         1 UNK         0.3000 
    226 H226       -3.3079  -19.1002  -48.0003 H         1 UNK         0.0600 
    227 H227       -2.9406  -17.0235  -46.6974 H         1 UNK         0.0600 
    228 H228       -4.6265  -16.5604  -46.8980 H         1 UNK         0.0600 
    229 H229       -4.2090  -17.9904  -45.9573 H         1 UNK         0.0600 
    230 H230       -1.9731  -18.5465  -49.5899 H         1 UNK         0.3000 
    231 H231       -1.0508  -17.7533  -51.4016 H         1 UNK         0.0600 
    232 H232       -1.0475  -15.3414  -51.8381 H         1 UNK         0.0600 
    233 H233       -0.9263  -15.6311  -50.1100 H         1 UNK         0.0600 
    234 H234       -2.4545  -15.0987  -50.8161 H         1 UNK         0.0600 
    235 H235       -3.7584  -19.0284  -51.6258 H         1 UNK         0.3000 
    236 H236       -5.1740  -18.0043  -53.8355 H         1 UNK         0.0600 
    237 H237       -6.1242  -19.7020  -52.3506 H         1 UNK         0.0600 
    238 H238       -6.0824  -20.3611  -53.9741 H         1 UNK         0.0600 
    239 H239       -4.8780  -20.8668  -52.7945 H         1 UNK         0.0600 
    240 H240       -2.0835  -19.5076  -53.8173 H         1 UNK         0.3000 
    241 H241       -1.9053  -20.4379  -56.5056 H         1 UNK         0.0600 
    242 H242       -1.5503  -16.3786  -56.8276 H         1 UNK         0.3800 
    243 H243       -2.0627  -17.0901  -55.3157 H         1 UNK         0.3800 
    244 H244        0.5420  -20.3346  -56.1577 H         1 UNK         0.0800 
    245 H245        0.3238  -19.3253  -54.7465 H         1 UNK         0.0800 
    246 H246        2.1426  -21.9587  -54.7391 H         1 UNK         0.0800 
    247 H247        1.6643  -22.7535  -53.2613 H         1 UNK         0.0800 
@<TRIPOS>BOND
     1    1    2 1    
     2    1  127 1    
     3    1  128 1    
     4    1  129 1    
     5    2    3 2    
     6    2    4 am   BACKBONE|DICT|INTERRES
     7    4    5 1    
     8    4  130 1    
     9    5    6 1    
    10    5   65 1    
    11    5  131 1    
    12    6    7 1    
    13    6  132 1    
    14    6  133 1    
    15    7    8 1    
    16    8    9 1    
    17    8  134 1    
    18    8  135 1    
    19    9   10 ar   
    20    9   14 ar   
    21   10   11 ar   
    22   10  136 1    
    23   11   12 ar   
    24   11  126 1    
    25   12   13 ar   
    26   12  137 1    
    27   13   14 ar   
    28   13   15 1    
    29   14  138 1    
    30   15   16 1    
    31   15  139 1    
    32   15  140 1    
    33   16   17 1    
    34   17   18 1    
    35   17  141 1    
    36   17  142 1    
    37   18   19 1    
    38   18   67 1    
    39   18  143 1    
    40   19   20 am   BACKBONE|DICT|INTERRES
    41   19  144 1    
    42   20   21 2    
    43   20   22 1    
    44   22   23 1    
    45   22   24 1    
    46   22  145 1    
    47   23  146 1    
    48   23  147 1    
    49   23  148 1    
    50   24   25 am   BACKBONE|DICT|INTERRES
    51   24  149 1    
    52   25   26 2    
    53   25   27 1    
    54   27   28 1    
    55   27   29 1    
    56   27  150 1    
    57   28  151 1    
    58   28  152 1    
    59   28  153 1    
    60   29   30 am   BACKBONE|DICT|INTERRES
    61   29  154 1    
    62   30   31 2    
    63   30   32 1    
    64   32   33 1    
    65   32   34 1    
    66   32  155 1    
    67   33  156 1    
    68   33  157 1    
    69   33  158 1    
    70   34   35 am   BACKBONE|DICT|INTERRES
    71   34  159 1    
    72   35   36 2    
    73   35   37 1    
    74   37   38 1    
    75   37   39 1    
    76   37  160 1    
    77   38  161 1    
    78   38  162 1    
    79   38  163 1    
    80   39   40 am   BACKBONE|DICT|INTERRES
    81   39  164 1    
    82   40   41 2    
    83   40   42 1    
    84   42   43 1    
    85   42   44 1    
    86   42  165 1    
    87   43  166 1    
    88   43  167 1    
    89   43  168 1    
    90   44   45 am   BACKBONE|DICT|INTERRES
    91   44  169 1    
    92   45   46 2    
    93   45   47 1    
    94   47   48 1    
    95   47   49 1    
    96   47  170 1    
    97   48  171 1    
    98   48  172 1    
    99   48  173 1    
   100   49   50 am   BACKBONE|DICT|INTERRES
   101   49  174 1    
   102   50   51 2    
   103   50   52 1    
   104   52   53 1    
   105   52   54 1    
   106   52  175 1    
   107   53  176 1    
   108   53  177 1    
   109   53  178 1    
   110   54   55 am   BACKBONE|DICT|INTERRES
   111   54  179 1    
   112   55   56 2    
   113   55   57 1    
   114   57   58 1    
   115   57   59 1    
   116   57  180 1    
   117   58  181 1    
   118   58  182 1    
   119   58  183 1    
   120   59   60 am   BACKBONE|DICT|INTERRES
   121   59  184 1    
   122   60   61 2    
   123   60   62 1    
   124   62   63 1    
   125   62   64 1    
   126   62  185 1    
   127   63  186 1    
   128   63  187 1    
   129   63  188 1    
   130   64   65 am   BACKBONE|DICT|INTERRES
   131   64  189 1    
   132   65   66 2    
   133   67   68 2    
   134   67   69 am   BACKBONE|DICT|INTERRES
   135   69   70 1    
   136   69  190 1    
   137   70   71 1    
   138   70   72 1    
   139   70  191 1    
   140   71  192 1    
   141   71  193 1    
   142   71  194 1    
   143   72   73 2    
   144   72   74 am   BACKBONE|DICT|INTERRES
   145   74   75 1    
   146   74  195 1    
   147   75   76 1    
   148   75   77 1    
   149   75  196 1    
   150   76  197 1    
   151   76  198 1    
   152   76  199 1    
   153   77   78 2    
   154   77   79 am   BACKBONE|DICT|INTERRES
   155   79   80 1    
   156   79  200 1    
   157   80   81 1    
   158   80   82 1    
   159   80  201 1    
   160   81  202 1    
   161   81  203 1    
   162   81  204 1    
   163   82   83 2    
   164   82   84 am   BACKBONE|DICT|INTERRES
   165   84   85 1    
   166   84  205 1    
   167   85   86 1    
   168   85   87 1    
   169   85  206 1    
   170   86  207 1    
   171   86  208 1    
   172   86  209 1    
   173   87   88 2    
   174   87   89 am   BACKBONE|DICT|INTERRES
   175   89   90 1    
   176   89  210 1    
   177   90   91 1    
   178   90   92 1    
   179   90  211 1    
   180   91  212 1    
   181   91  213 1    
   182   91  214 1    
   183   92   93 2    
   184   92   94 am   BACKBONE|DICT|INTERRES
   185   94   95 1    
   186   94  215 1    
   187   95   96 1    
   188   95   97 1    
   189   95  216 1    
   190   96  217 1    
   191   96  218 1    
   192   96  219 1    
   193   97   98 2    
   194   97   99 am   BACKBONE|DICT|INTERRES
   195   99  100 1    
   196   99  220 1    
   197  100  101 1    
   198  100  102 1    
   199  100  221 1    
   200  101  222 1    
   201  101  223 1    
   202  101  224 1    
   203  102  103 2    
   204  102  104 am   BACKBONE|DICT|INTERRES
   205  104  105 1    
   206  104  225 1    
   207  105  106 1    
   208  105  107 1    
   209  105  226 1    
   210  106  227 1    
   211  106  228 1    
   212  106  229 1    
   213  107  108 2    
   214  107  109 am   BACKBONE|DICT|INTERRES
   215  109  110 1    
   216  109  230 1    
   217  110  111 1    
   218  110  112 1    
   219  110  231 1    
   220  111  232 1    
   221  111  233 1    
   222  111  234 1    
   223  112  113 2    
   224  112  114 am   BACKBONE|DICT|INTERRES
   225  114  115 1    
   226  114  235 1    
   227  115  116 1    
   228  115  117 1    
   229  115  236 1    
   230  116  237 1    
   231  116  238 1    
   232  116  239 1    
   233  117  118 2    
   234  117  119 am   BACKBONE|DICT|INTERRES
   235  119  120 1    
   236  119  240 1    
   237  120  121 1    
   238  120  124 1    
   239  120  241 1    
   240  121  122 am   BACKBONE|DICT|INTERRES
   241  121  123 2    
   242  122  242 1    
   243  122  243 1    
   244  124  125 1    
   245  124  244 1    
   246  124  245 1    
   247  125  126 1    
   248  126  246 1    
   249  126  247 1    
@<TRIPOS>SUBSTRUCTURE
     1 UNK         1 GROUP             0       ****    0 ROOT    
