@<TRIPOS>MOLECULE
3R540
247   249    1
SMALL
USER_CHARGES


@<TRIPOS>ATOM
      1 CA         -4.0744  -15.8329  -50.4110 C.3       0 UNK        -0.1800 
      2 C          -3.6265  -15.9572  -48.9615 C.2       0 UNK         0.5000 
      3 O          -2.4908  -15.6126  -48.6419 O.2       0 UNK        -0.5000 
      4 N          -4.5141  -16.4433  -48.0853 N.am      1 UNK        -0.5000 
      5 CA         -4.2847  -16.6777  -46.6536 C.3       1 UNK         0.1400 
      6 C6         -5.3212  -17.6858  -46.0850 C.3       23 UNK        -0.0398 
      7 S7         -4.8264  -19.4119  -46.3853 S.3       23 UNK        -0.2404 
      8 C8         -5.6971  -19.8085  -47.9354 C.3       23 UNK        -0.0205 
      9 C9         -5.4400  -21.2109  -48.4923 C.ar      23 UNK        -0.0193 
     10 C10        -6.1381  -21.5922  -49.6413 C.ar      23 UNK        -0.1150 
     11 C11        -5.9432  -22.8488  -50.2210 C.ar      23 UNK        -0.0193 
     12 C12        -5.0429  -23.7397  -49.6322 C.ar      23 UNK        -0.1150 
     13 C13        -4.3321  -23.3807  -48.4835 C.ar      23 UNK        -0.0193 
     14 C14        -4.5388  -22.1202  -47.9167 C.ar      23 UNK        -0.1150 
     15 C15        -3.3654  -24.3687  -47.8431 C.3       23 UNK        -0.0205 
     16 S16        -1.6234  -23.8499  -48.0080 S.3       23 UNK        -0.2404 
     17 C17        -1.2390  -23.1608  -46.3565 C.3       23 UNK        -0.0398 
     18 CA         -0.9780  -21.6360  -46.3701 C.3       11 UNK         0.1400 
     19 N          -1.2918  -21.0057  -45.0847 N.am      11 UNK        -0.5000 
     20 C          -1.4758  -19.6863  -44.9267 C.2       10 UNK         0.5000 
     21 O          -1.4186  -18.8949  -45.8686 O.2       10 UNK        -0.5000 
     22 CA         -1.6731  -19.1427  -43.4977 C.3       10 UNK         0.1400 
     23 CB         -2.7661  -18.0628  -43.4020 C.3       10 UNK        -0.1800 
     24 N          -1.8393  -20.1658  -42.4632 N.am      10 UNK        -0.5000 
     25 C          -2.8534  -21.0214  -42.2807 C.2       9 UNK         0.5000 
     26 O          -3.8778  -21.0402  -42.9632 O.2       9 UNK        -0.5000 
     27 CA         -2.6350  -22.0598  -41.1573 C.3       9 UNK         0.1400 
     28 CB         -3.6874  -23.1884  -41.1603 C.3       9 UNK        -0.1800 
     29 N          -1.2728  -22.6152  -41.1731 N.am      9 UNK        -0.5000 
     30 C          -0.6835  -23.2609  -42.1931 C.2       8 UNK         0.5000 
     31 O          -1.2539  -23.5254  -43.2503 O.2       8 UNK        -0.5000 
     32 CA          0.8089  -23.6147  -42.0143 C.3       8 UNK         0.1400 
     33 CB          1.4857  -24.0477  -43.3334 C.3       8 UNK        -0.1800 
     34 N           1.5687  -22.5322  -41.3764 N.am      8 UNK        -0.5000 
     35 C           1.7065  -21.2778  -41.8291 C.2       7 UNK         0.5000 
     36 O           1.2398  -20.8711  -42.8975 O.2       7 UNK        -0.5000 
     37 CA          2.4946  -20.3204  -40.9125 C.3       7 UNK         0.1400 
     38 CB          3.9881  -20.3328  -41.2707 C.3       7 UNK        -0.1800 
     39 N           2.0045  -18.9437  -40.9750 N.am      7 UNK        -0.5000 
     40 C           0.7580  -18.5455  -40.6877 C.2       6 UNK         0.5000 
     41 O          -0.1079  -19.3057  -40.2503 O.2       6 UNK        -0.5000 
     42 CA          0.4029  -17.0604  -40.9276 C.3       6 UNK         0.1400 
     43 CB          0.0511  -16.3685  -39.6012 C.3       6 UNK        -0.1800 
     44 N           1.4395  -16.2736  -41.6031 N.am      6 UNK        -0.5000 
     45 C           1.8490  -16.4272  -42.8694 C.2       5 UNK         0.5000 
     46 O           1.4103  -17.2808  -43.6389 O.2       5 UNK        -0.5000 
     47 CA          2.8979  -15.4139  -43.3407 C.3       5 UNK         0.1400 
     48 CB          3.6014  -15.7996  -44.6545 C.3       5 UNK        -0.1800 
     49 N           2.2240  -14.1295  -43.4749 N.am      5 UNK        -0.5000 
     50 C           2.7631  -12.9398  -43.1890 C.2       4 UNK         0.5000 
     51 O           3.9461  -12.7787  -42.8865 O.2       4 UNK        -0.5000 
     52 CA          1.8167  -11.7220  -43.2209 C.3       4 UNK         0.1400 
     53 CB          1.9108  -11.0085  -44.5784 C.3       4 UNK        -0.1800 
     54 N           0.4108  -12.0446  -42.9558 N.am      4 UNK        -0.5000 
     55 C          -0.0785  -12.5813  -41.8273 C.2       3 UNK         0.5000 
     56 O           0.6176  -12.8677  -40.8529 O.2       3 UNK        -0.5000 
     57 CA         -1.5985  -12.8475  -41.7724 C.3       3 UNK         0.1400 
     58 CB         -2.2802  -11.8769  -40.7955 C.3       3 UNK        -0.1800 
     59 N          -2.2671  -12.7524  -43.0752 N.am      3 UNK        -0.5000 
     60 C          -2.1493  -13.6539  -44.0575 C.2       2 UNK         0.5000 
     61 O          -1.4478  -14.6638  -43.9711 O.2       2 UNK        -0.5000 
     62 CA         -2.8850  -13.3264  -45.3698 C.3       2 UNK         0.1400 
     63 CB         -2.0131  -12.4232  -46.2565 C.3       2 UNK        -0.1800 
     64 N          -3.2088  -14.5411  -46.1123 N.am      2 UNK        -0.5000 
     65 C          -4.2390  -15.3529  -45.8540 C.2       1 UNK         0.5000 
     66 O          -5.1221  -15.0832  -45.0375 O.2       1 UNK        -0.5000 
     67 C           0.4411  -21.2719  -46.8723 C.2       11 UNK         0.5000 
     68 O           0.7045  -21.3897  -48.0699 O.2       11 UNK        -0.5000 
     69 N           1.3177  -20.7800  -45.9799 N.am      12 UNK        -0.5000 
     70 CA          2.5973  -20.1705  -46.3440 C.3       12 UNK         0.1400 
     71 CB          3.4488  -19.9454  -45.0881 C.3       12 UNK        -0.1800 
     72 C           2.4170  -18.8601  -47.1360 C.2       12 UNK         0.5000 
     73 O           3.1025  -18.6718  -48.1407 O.2       12 UNK        -0.5000 
     74 N           1.4633  -18.0097  -46.7221 N.am      13 UNK        -0.5000 
     75 CA          1.0639  -16.8000  -47.4519 C.3       13 UNK         0.1400 
     76 CB          0.1454  -15.9272  -46.5831 C.3       13 UNK        -0.1800 
     77 C           0.3843  -17.1268  -48.7926 C.2       13 UNK         0.5000 
     78 O           0.6257  -16.4357  -49.7828 O.2       13 UNK        -0.5000 
     79 N          -0.3962  -18.2172  -48.8120 N.am      14 UNK        -0.5000 
     80 CA         -1.0121  -18.7841  -50.0135 C.3       14 UNK         0.1400 
     81 CB         -2.0991  -19.7864  -49.5975 C.3       14 UNK        -0.1800 
     82 C          -0.0025  -19.4606  -50.9647 C.2       14 UNK         0.5000 
     83 O          -0.4031  -19.8678  -52.0556 O.2       14 UNK        -0.5000 
     84 N           1.2646  -19.5866  -50.5400 N.am      15 UNK        -0.5000 
     85 CA          2.3979  -20.1990  -51.2360 C.3       15 UNK         0.1400 
     86 CB          2.7931  -19.3646  -52.4707 C.3       15 UNK        -0.1800 
     87 C           2.1427  -21.6804  -51.5661 C.2       15 UNK         0.5000 
     88 O           2.3528  -22.1055  -52.7021 O.2       15 UNK        -0.5000 
     89 N           1.6404  -22.4275  -50.5718 N.am      16 UNK        -0.5000 
     90 CA          1.1880  -23.8192  -50.6757 C.3       16 UNK         0.1400 
     91 CB          2.3684  -24.7714  -50.9618 C.3       16 UNK        -0.1800 
     92 C           0.0217  -23.9674  -51.6767 C.2       16 UNK         0.5000 
     93 O          -0.0043  -24.9093  -52.4700 O.2       16 UNK        -0.5000 
     94 N          -0.9028  -22.9965  -51.6203 N.am      17 UNK        -0.5000 
     95 CA         -2.1117  -22.8302  -52.4348 C.3       17 UNK         0.1400 
     96 CB         -2.9679  -24.1104  -52.4166 C.3       17 UNK        -0.1800 
     97 C          -1.8565  -22.3340  -53.8748 C.2       17 UNK         0.5000 
     98 O          -2.8190  -22.1753  -54.6297 O.2       17 UNK        -0.5000 
     99 N          -0.5930  -22.0815  -54.2462 N.am      18 UNK        -0.5000 
    100 CA        -0.2030  -21.6418  -55.5859 C.3       18 UNK         0.1400 
    101 CB         1.2937  -21.9052  -55.8042 C.3       18 UNK        -0.1800 
    102 C         -0.5321  -20.1635  -55.8548 C.2       18 UNK         0.5000 
    103 O         -0.9932  -19.8420  -56.9500 O.2       18 UNK        -0.5000 
    104 N         -0.3121  -19.2918  -54.8599 N.am      19 UNK        -0.5000 
    105 CA        -0.5882  -17.8543  -54.9576 C.3       19 UNK         0.1400 
    106 CB         0.2940  -17.0747  -53.9706 C.3       19 UNK        -0.1800 
    107 C         -2.0750  -17.5425  -54.7251 C.2       19 UNK         0.5000 
    108 O         -2.5902  -16.5786  -55.2917 O.2       19 UNK        -0.5000 
    109 N         -2.7461  -18.3877  -53.9303 N.am      20 UNK        -0.5000 
    110 CA        -4.1994  -18.3748  -53.7507 C.3       20 UNK         0.1400 
    111 CB        -4.5447  -19.1110  -52.4496 C.3       20 UNK        -0.1800 
    112 C         -4.9602  -18.9713  -54.9567 C.2       20 UNK         0.5000 
    113 O         -6.1674  -18.7558  -55.0675 O.2       20 UNK        -0.5000 
    114 N         -4.2380  -19.6801  -55.8403 N.am      21 UNK        -0.5000 
    115 CA        -4.6928  -20.3152  -57.0805 C.3       21 UNK         0.1400 
    116 CB        -5.1362  -19.2531  -58.1081 C.3       21 UNK        -0.1800 
    117 C         -5.7519  -21.4071  -56.8310 C.2       21 UNK         0.5000 
    118 O         -6.7988  -21.4251  -57.4823 O.2       21 UNK        -0.5000 
    119 N         -5.4546  -22.2937  -55.8771 N.am      22 UNK        -0.5000 
    120 CA        -6.3498  -23.3607  -55.4015 C.3       22 UNK         0.1400 
    121 C         -5.6310  -24.7107  -55.1188 C.2       22 UNK         0.5000 
    122 N         -4.3536  -24.8647  -55.4459 N.am      22 UNK        -0.7600 
    123 O         -6.2491  -25.6508  -54.6266 O.2       22 UNK        -0.5000 
    124 C124       -7.2579  -22.8794  -54.2368 C.3       23 UNK        -0.0398 
    125 S125       -6.3309  -22.1249  -52.8574 S.3       23 UNK        -0.2404 
    126 C126       -6.7110  -23.2430  -51.4758 C.3       23 UNK        -0.0205 
    127 H127       -3.3335  -16.2809  -51.0733 H         1 UNK         0.0600 
    128 H128       -5.0296  -16.3290  -50.5847 H         1 UNK         0.0600 
    129 H129       -4.1795  -14.7821  -50.6806 H         1 UNK         0.0600 
    130 H130       -5.4440  -16.6608  -48.4112 H         1 UNK         0.3000 
    131 H131       -3.2916  -17.1180  -46.5435 H         1 UNK         0.0600 
    132 H132       -5.4148  -17.5959  -45.0021 H         1 UNK         0.0800 
    133 H133       -6.3210  -17.4993  -46.4798 H         1 UNK         0.0800 
    134 H134       -5.4053  -19.0825  -48.6948 H         1 UNK         0.0800 
    135 H135       -6.7686  -19.6844  -47.7724 H         1 UNK         0.0800 
    136 H136       -6.8338  -20.9018  -50.0979 H         1 UNK         0.1150 
    137 H137       -4.8987  -24.7180  -50.0679 H         1 UNK         0.1150 
    138 H138       -3.9864  -21.8636  -47.0258 H         1 UNK         0.1150 
    139 H139       -3.6361  -24.5201  -46.7979 H         1 UNK         0.0800 
    140 H140       -3.4660  -25.3470  -48.3152 H         1 UNK         0.0800 
    141 H141       -2.0796  -23.3769  -45.6978 H         1 UNK         0.0800 
    142 H142       -0.3909  -23.7014  -45.9333 H         1 UNK         0.0800 
    143 H143       -1.6811  -21.2009  -47.0790 H         1 UNK         0.0600 
    144 H144       -1.3270  -21.6134  -44.2750 H         1 UNK         0.3000 
    145 H145       -0.7274  -18.6583  -43.2664 H         1 UNK         0.0600 
    146 H146       -2.8053  -17.6284  -42.4034 H         1 UNK         0.0600 
    147 H147       -2.5708  -17.2475  -44.0987 H         1 UNK         0.0600 
    148 H148       -3.7507  -18.4671  -43.6293 H         1 UNK         0.0600 
    149 H149       -1.0547  -20.2411  -41.8247 H         1 UNK         0.3000 
    150 H150       -2.7367  -21.5163  -40.2167 H         1 UNK         0.0600 
    151 H151       -4.6918  -22.7848  -41.0271 H         1 UNK         0.0600 
    152 H152       -3.5114  -23.8935  -40.3481 H         1 UNK         0.0600 
    153 H153       -3.6824  -23.7469  -42.0967 H         1 UNK         0.0600 
    154 H154       -0.7119  -22.4150  -40.3568 H         1 UNK         0.3000 
    155 H155        0.8411  -24.4648  -41.3315 H         1 UNK         0.0600 
    156 H156        2.5325  -24.3051  -43.1725 H         1 UNK         0.0600 
    157 H157        1.4477  -23.2624  -44.0889 H         1 UNK         0.0600 
    158 H158        0.9971  -24.9277  -43.7532 H         1 UNK         0.0600 
    159 H159        1.9919  -22.7691  -40.4897 H         1 UNK         0.3000 
    160 H160        2.3824  -20.6600  -39.8809 H         1 UNK         0.0600 
    161 H161        4.1669  -19.9333  -42.2688 H         1 UNK         0.0600 
    162 H162        4.3908  -21.3463  -41.2457 H         1 UNK         0.0600 
    163 H163        4.5671  -19.7375  -40.5645 H         1 UNK         0.0600 
    164 H164        2.6354  -18.2600  -41.3626 H         1 UNK         0.3000 
    165 H165       -0.4865  -17.0403  -41.5590 H         1 UNK         0.0600 
    166 H166        0.9072  -16.3358  -38.9264 H         1 UNK         0.0600 
    167 H167       -0.2862  -15.3452  -39.7659 H         1 UNK         0.0600 
    168 H168       -0.7545  -16.8926  -39.0851 H         1 UNK         0.0600 
    169 H169        1.8371  -15.5179  -41.0627 H         1 UNK         0.3000 
    170 H170        3.6571  -15.3570  -42.5574 H         1 UNK         0.0600 
    171 H171        4.0237  -16.8032  -44.5940 H         1 UNK         0.0600 
    172 H172        2.9205  -15.7790  -45.5018 H         1 UNK         0.0600 
    173 H173        4.4202  -15.1145  -44.8740 H         1 UNK         0.0600 
    174 H174        1.2346  -14.1747  -43.6829 H         1 UNK         0.3000 
    175 H175        2.1493  -11.0305  -42.4442 H         1 UNK         0.0600 
    176 H176        1.5592  -11.6445  -45.3920 H         1 UNK         0.0600 
    177 H177        1.3182  -10.0935  -44.5863 H         1 UNK         0.0600 
    178 H178        2.9409  -10.7282  -44.8026 H         1 UNK         0.0600 
    179 H179       -0.2426  -11.8366  -43.6952 H         1 UNK         0.3000 
    180 H180       -1.7332  -13.8627  -41.3927 H         1 UNK         0.0600 
    181 H181       -1.8372  -11.9460  -39.8010 H         1 UNK         0.0600 
    182 H182       -2.1861  -10.8416  -41.1255 H         1 UNK         0.0600 
    183 H183       -3.3418  -12.1023  -40.6914 H         1 UNK         0.0600 
    184 H184       -2.8483  -11.9390  -43.2208 H         1 UNK         0.3000 
    185 H185       -3.8108  -12.7968  -45.1353 H         1 UNK         0.0600 
    186 H186       -1.0538  -12.8870  -46.4880 H         1 UNK         0.0600 
    187 H187       -2.5112  -12.1984  -47.1999 H         1 UNK         0.0600 
    188 H188       -1.8065  -11.4715  -45.7657 H         1 UNK         0.0600 
    189 H189       -2.5596  -14.8256  -46.8392 H         1 UNK         0.3000 
    190 H190        1.0564  -20.7310  -45.0003 H         1 UNK         0.3000 
    191 H191        3.1312  -20.8738  -46.9866 H         1 UNK         0.0600 
    192 H192        4.4119  -19.5008  -45.3411 H         1 UNK         0.0600 
    193 H193        3.6476  -20.8872  -44.5764 H         1 UNK         0.0600 
    194 H194        2.9544  -19.2793  -44.3817 H         1 UNK         0.0600 
    195 H195        0.9433  -18.2192  -45.8794 H         1 UNK         0.3000 
    196 H196        1.9663  -16.2264  -47.6723 H         1 UNK         0.0600 
    197 H197       -0.1210  -15.0107  -47.1093 H         1 UNK         0.0600 
    198 H198        0.6229  -15.6351  -45.6503 H         1 UNK         0.0600 
    199 H199       -0.7841  -16.4365  -46.3319 H         1 UNK         0.0600 
    200 H200       -0.5757  -18.6883  -47.9335 H         1 UNK         0.3000 
    201 H201       -1.4883  -17.9705  -50.5638 H         1 UNK         0.0600 
    202 H202       -2.7578  -19.3733  -48.8332 H         1 UNK         0.0600 
    203 H203       -1.6676  -20.7100  -49.2170 H         1 UNK         0.0600 
    204 H204       -2.7199  -20.0661  -50.4465 H         1 UNK         0.0600 
    205 H205        1.4779  -19.2384  -49.6145 H         1 UNK         0.3000 
    206 H206        3.2364  -20.1773  -50.5387 H         1 UNK         0.0600 
    207 H207        2.9374  -18.3162  -52.2097 H         1 UNK         0.0600 
    208 H208        3.7279  -19.7256  -52.9007 H         1 UNK         0.0600 
    209 H209        2.0364  -19.4166  -53.2521 H         1 UNK         0.0600 
    210 H210        1.4447  -21.9754  -49.6798 H         1 UNK         0.3000 
    211 H211        0.7897  -24.0836  -49.6962 H         1 UNK         0.0600 
    212 H212        2.7858  -24.6182  -51.9573 H         1 UNK         0.0600 
    213 H213        2.0506  -25.8127  -50.8995 H         1 UNK         0.0600 
    214 H214        3.1701  -24.6334  -50.2365 H         1 UNK         0.0600 
    215 H215       -0.7379  -22.2537  -50.9566 H         1 UNK         0.3000 
    216 H216       -2.6882  -22.0476  -51.9410 H         1 UNK         0.0600 
    217 H217       -2.5740  -24.8721  -53.0895 H         1 UNK         0.0600 
    218 H218       -3.9885  -23.8985  -52.7294 H         1 UNK         0.0600 
    219 H219       -3.0130  -24.5434  -51.4186 H         1 UNK         0.0600 
    220 H220        0.1497  -22.2074  -53.5707 H         1 UNK         0.3000 
    221 H221       -0.7542  -22.2432  -56.3122 H         1 UNK         0.0600 
    222 H222        1.9122  -21.2762  -55.1636 H         1 UNK         0.0600 
    223 H223        1.5477  -22.9456  -55.6001 H         1 UNK         0.0600 
    224 H224        1.5779  -21.6959  -56.8362 H         1 UNK         0.0600 
    225 H225       -0.0266  -19.6408  -53.9494 H         1 UNK         0.3000 
    226 H226       -0.3341  -17.5154  -55.9644 H         1 UNK         0.0600 
    227 H227        1.3519  -17.2546  -54.1597 H         1 UNK         0.0600 
    228 H228        0.1284  -16.0012  -54.0690 H         1 UNK         0.0600 
    229 H229        0.0843  -17.3388  -52.9350 H         1 UNK         0.0600 
    230 H230       -2.2325  -19.1382  -53.4891 H         1 UNK         0.3000 
    231 H231       -4.5287  -17.3390  -53.6445 H         1 UNK         0.0600 
    232 H232       -4.1706  -20.1345  -52.4578 H         1 UNK         0.0600 
    233 H233       -4.1200  -18.6014  -51.5862 H         1 UNK         0.0600 
    234 H234       -5.6237  -19.1545  -52.2961 H         1 UNK         0.0600 
    235 H235       -3.2613  -19.8207  -55.6268 H         1 UNK         0.3000 
    236 H236       -3.8223  -20.8260  -57.4949 H         1 UNK         0.0600 
    237 H237       -4.3497  -18.5173  -58.2761 H         1 UNK         0.0600 
    238 H238       -5.3615  -19.7126  -59.0711 H         1 UNK         0.0600 
    239 H239       -6.0303  -18.7203  -57.7832 H         1 UNK         0.0600 
    240 H240       -4.5798  -22.1938  -55.3674 H         1 UNK         0.3000 
    241 H241       -7.0182  -23.6188  -56.2247 H         1 UNK         0.0600 
    242 H242       -3.8236  -24.1011  -55.8351 H         1 UNK         0.3800 
    243 H243       -3.9060  -25.7508  -55.2760 H         1 UNK         0.3800 
    244 H244       -7.8916  -23.6883  -53.8700 H         1 UNK         0.0800 
    245 H245       -7.9456  -22.1215  -54.6137 H         1 UNK         0.0800 
    246 H246       -6.4732  -24.2665  -51.7704 H         1 UNK         0.0800 
    247 H247       -7.7813  -23.2139  -51.2676 H         1 UNK         0.0800 
@<TRIPOS>BOND
     1    1    2 1    
     2    1  127 1    
     3    1  128 1    
     4    1  129 1    
     5    2    3 2    
     6    2    4 am   BACKBONE|DICT|INTERRES
     7    4    5 1    
     8    4  130 1    
     9    5    6 1    
    10    5   65 1    
    11    5  131 1    
    12    6    7 1    
    13    6  132 1    
    14    6  133 1    
    15    7    8 1    
    16    8    9 1    
    17    8  134 1    
    18    8  135 1    
    19    9   10 ar   
    20    9   14 ar   
    21   10   11 ar   
    22   10  136 1    
    23   11   12 ar   
    24   11  126 1    
    25   12   13 ar   
    26   12  137 1    
    27   13   14 ar   
    28   13   15 1    
    29   14  138 1    
    30   15   16 1    
    31   15  139 1    
    32   15  140 1    
    33   16   17 1    
    34   17   18 1    
    35   17  141 1    
    36   17  142 1    
    37   18   19 1    
    38   18   67 1    
    39   18  143 1    
    40   19   20 am   BACKBONE|DICT|INTERRES
    41   19  144 1    
    42   20   21 2    
    43   20   22 1    
    44   22   23 1    
    45   22   24 1    
    46   22  145 1    
    47   23  146 1    
    48   23  147 1    
    49   23  148 1    
    50   24   25 am   BACKBONE|DICT|INTERRES
    51   24  149 1    
    52   25   26 2    
    53   25   27 1    
    54   27   28 1    
    55   27   29 1    
    56   27  150 1    
    57   28  151 1    
    58   28  152 1    
    59   28  153 1    
    60   29   30 am   BACKBONE|DICT|INTERRES
    61   29  154 1    
    62   30   31 2    
    63   30   32 1    
    64   32   33 1    
    65   32   34 1    
    66   32  155 1    
    67   33  156 1    
    68   33  157 1    
    69   33  158 1    
    70   34   35 am   BACKBONE|DICT|INTERRES
    71   34  159 1    
    72   35   36 2    
    73   35   37 1    
    74   37   38 1    
    75   37   39 1    
    76   37  160 1    
    77   38  161 1    
    78   38  162 1    
    79   38  163 1    
    80   39   40 am   BACKBONE|DICT|INTERRES
    81   39  164 1    
    82   40   41 2    
    83   40   42 1    
    84   42   43 1    
    85   42   44 1    
    86   42  165 1    
    87   43  166 1    
    88   43  167 1    
    89   43  168 1    
    90   44   45 am   BACKBONE|DICT|INTERRES
    91   44  169 1    
    92   45   46 2    
    93   45   47 1    
    94   47   48 1    
    95   47   49 1    
    96   47  170 1    
    97   48  171 1    
    98   48  172 1    
    99   48  173 1    
   100   49   50 am   BACKBONE|DICT|INTERRES
   101   49  174 1    
   102   50   51 2    
   103   50   52 1    
   104   52   53 1    
   105   52   54 1    
   106   52  175 1    
   107   53  176 1    
   108   53  177 1    
   109   53  178 1    
   110   54   55 am   BACKBONE|DICT|INTERRES
   111   54  179 1    
   112   55   56 2    
   113   55   57 1    
   114   57   58 1    
   115   57   59 1    
   116   57  180 1    
   117   58  181 1    
   118   58  182 1    
   119   58  183 1    
   120   59   60 am   BACKBONE|DICT|INTERRES
   121   59  184 1    
   122   60   61 2    
   123   60   62 1    
   124   62   63 1    
   125   62   64 1    
   126   62  185 1    
   127   63  186 1    
   128   63  187 1    
   129   63  188 1    
   130   64   65 am   BACKBONE|DICT|INTERRES
   131   64  189 1    
   132   65   66 2    
   133   67   68 2    
   134   67   69 am   BACKBONE|DICT|INTERRES
   135   69   70 1    
   136   69  190 1    
   137   70   71 1    
   138   70   72 1    
   139   70  191 1    
   140   71  192 1    
   141   71  193 1    
   142   71  194 1    
   143   72   73 2    
   144   72   74 am   BACKBONE|DICT|INTERRES
   145   74   75 1    
   146   74  195 1    
   147   75   76 1    
   148   75   77 1    
   149   75  196 1    
   150   76  197 1    
   151   76  198 1    
   152   76  199 1    
   153   77   78 2    
   154   77   79 am   BACKBONE|DICT|INTERRES
   155   79   80 1    
   156   79  200 1    
   157   80   81 1    
   158   80   82 1    
   159   80  201 1    
   160   81  202 1    
   161   81  203 1    
   162   81  204 1    
   163   82   83 2    
   164   82   84 am   BACKBONE|DICT|INTERRES
   165   84   85 1    
   166   84  205 1    
   167   85   86 1    
   168   85   87 1    
   169   85  206 1    
   170   86  207 1    
   171   86  208 1    
   172   86  209 1    
   173   87   88 2    
   174   87   89 am   BACKBONE|DICT|INTERRES
   175   89   90 1    
   176   89  210 1    
   177   90   91 1    
   178   90   92 1    
   179   90  211 1    
   180   91  212 1    
   181   91  213 1    
   182   91  214 1    
   183   92   93 2    
   184   92   94 am   BACKBONE|DICT|INTERRES
   185   94   95 1    
   186   94  215 1    
   187   95   96 1    
   188   95   97 1    
   189   95  216 1    
   190   96  217 1    
   191   96  218 1    
   192   96  219 1    
   193   97   98 2    
   194   97   99 am   BACKBONE|DICT|INTERRES
   195   99  100 1    
   196   99  220 1    
   197  100  101 1    
   198  100  102 1    
   199  100  221 1    
   200  101  222 1    
   201  101  223 1    
   202  101  224 1    
   203  102  103 2    
   204  102  104 am   BACKBONE|DICT|INTERRES
   205  104  105 1    
   206  104  225 1    
   207  105  106 1    
   208  105  107 1    
   209  105  226 1    
   210  106  227 1    
   211  106  228 1    
   212  106  229 1    
   213  107  108 2    
   214  107  109 am   BACKBONE|DICT|INTERRES
   215  109  110 1    
   216  109  230 1    
   217  110  111 1    
   218  110  112 1    
   219  110  231 1    
   220  111  232 1    
   221  111  233 1    
   222  111  234 1    
   223  112  113 2    
   224  112  114 am   BACKBONE|DICT|INTERRES
   225  114  115 1    
   226  114  235 1    
   227  115  116 1    
   228  115  117 1    
   229  115  236 1    
   230  116  237 1    
   231  116  238 1    
   232  116  239 1    
   233  117  118 2    
   234  117  119 am   BACKBONE|DICT|INTERRES
   235  119  120 1    
   236  119  240 1    
   237  120  121 1    
   238  120  124 1    
   239  120  241 1    
   240  121  122 am   BACKBONE|DICT|INTERRES
   241  121  123 2    
   242  122  242 1    
   243  122  243 1    
   244  124  125 1    
   245  124  244 1    
   246  124  245 1    
   247  125  126 1    
   248  126  246 1    
   249  126  247 1    
@<TRIPOS>SUBSTRUCTURE
     1 UNK         1 GROUP             0       ****    0 ROOT    
