@<TRIPOS>MOLECULE
3R540
247   249    1
SMALL
USER_CHARGES


@<TRIPOS>ATOM
      1 CA          2.7687  -17.4327  -47.6175 C.3       0 UNK        -0.1800 
      2 C           2.7918  -15.9176  -47.4945 C.2       0 UNK         0.5000 
      3 O           3.2735  -15.3843  -46.4967 O.2       0 UNK        -0.5000 
      4 N           2.2972  -15.2245  -48.5279 N.am      1 UNK        -0.5000 
      5 CA          2.1649  -13.7601  -48.6154 C.3       1 UNK         0.1400 
      6 C6          1.3365  -13.3367  -49.8526 C.3       23 UNK        -0.0398 
      7 S7         -0.3693  -13.9758  -49.7864 S.3       23 UNK        -0.2404 
      8 C8         -0.3196  -15.3939  -50.9387 C.3       23 UNK        -0.0205 
      9 C9         -0.8880  -16.6718  -50.3298 C.ar      23 UNK        -0.0193 
     10 C10        -2.0861  -16.6428  -49.6086 C.ar      23 UNK        -0.1150 
     11 C11        -2.6297  -17.8125  -49.0778 C.ar      23 UNK        -0.0193 
     12 C12        -1.9800  -19.0297  -49.2938 C.ar      23 UNK        -0.1150 
     13 C13        -0.7872  -19.0813  -50.0219 C.ar      23 UNK        -0.0193 
     14 C14        -0.2403  -17.8969  -50.5275 C.ar      23 UNK        -0.1150 
     15 C15        -0.1218  -20.4230  -50.3036 C.3       23 UNK        -0.0205 
     16 S16         1.3857  -20.7159  -49.3152 S.3       23 UNK        -0.2404 
     17 C17         0.7881  -20.5973  -47.5956 C.3       23 UNK        -0.0398 
     18 CA          0.3836  -21.9390  -46.9357 C.3       11 UNK         0.1400 
     19 N           0.3018  -21.8031  -45.4749 N.am      11 UNK        -0.5000 
     20 C          -0.0543  -22.7497  -44.5933 C.2       10 UNK         0.5000 
     21 O          -0.3495  -23.9024  -44.9072 O.2       10 UNK        -0.5000 
     22 CA         -0.1585  -22.3187  -43.1191 C.3       10 UNK         0.1400 
     23 CB          1.2288  -22.2049  -42.4697 C.3       10 UNK        -0.1800 
     24 N          -0.8854  -21.0563  -42.9774 N.am      10 UNK        -0.5000 
     25 C          -2.2061  -20.9279  -43.1731 C.2       9 UNK         0.5000 
     26 O          -2.9574  -21.8798  -43.3843 O.2       9 UNK        -0.5000 
     27 CA         -2.7853  -19.4989  -43.1655 C.3       9 UNK         0.1400 
     28 CB         -3.1592  -19.0704  -41.7390 C.3       9 UNK        -0.1800 
     29 N          -1.8838  -18.5064  -43.7543 N.am      9 UNK        -0.5000 
     30 C          -1.4806  -18.5098  -45.0325 C.2       8 UNK         0.5000 
     31 O          -1.8701  -19.3307  -45.8620 O.2       8 UNK        -0.5000 
     32 CA         -0.4086  -17.4743  -45.4289 C.3       8 UNK         0.1400 
     33 CB         -1.0325  -16.1077  -45.7444 C.3       8 UNK        -0.1800 
     34 N           0.6292  -17.3285  -44.4040 N.am      8 UNK        -0.5000 
     35 C           1.4608  -18.3138  -44.0346 C.2       7 UNK         0.5000 
     36 O           1.4797  -19.4209  -44.5673 O.2       7 UNK        -0.5000 
     37 CA          2.3855  -18.0474  -42.8385 C.3       7 UNK         0.1400 
     38 CB          3.6613  -17.3195  -43.2829 C.3       7 UNK        -0.1800 
     39 N           1.6974  -17.2819  -41.8010 N.am      7 UNK        -0.5000 
     40 C           0.7753  -17.8040  -40.9786 C.2       6 UNK         0.5000 
     41 O           0.4647  -18.9954  -40.9767 O.2       6 UNK        -0.5000 
     42 CA          0.0531  -16.8323  -40.0240 C.3       6 UNK         0.1400 
     43 CB          0.8278  -16.6997  -38.7046 C.3       6 UNK        -0.1800 
     44 N          -0.1422  -15.5017  -40.6015 N.am      6 UNK        -0.5000 
     45 C          -0.9187  -15.2370  -41.6618 C.2       5 UNK         0.5000 
     46 O          -1.6160  -16.0826  -42.2200 O.2       5 UNK        -0.5000 
     47 CA         -0.8631  -13.8036  -42.2301 C.3       5 UNK         0.1400 
     48 CB         -1.9826  -12.9435  -41.6260 C.3       5 UNK        -0.1800 
     49 N           0.4266  -13.1324  -42.0270 N.am      5 UNK        -0.5000 
     50 C           1.6053  -13.5818  -42.4801 C.2       4 UNK         0.5000 
     51 O           1.7271  -14.6284  -43.1193 O.2       4 UNK        -0.5000 
     52 CA          2.8457  -12.7650  -42.0674 C.3       4 UNK         0.1400 
     53 CB          3.1405  -12.9711  -40.5716 C.3       4 UNK        -0.1800 
     54 N           4.0508  -13.1181  -42.8197 N.am      4 UNK        -0.5000 
     55 C           4.2626  -12.8648  -44.1171 C.2       3 UNK         0.5000 
     56 O           3.4512  -12.2735  -44.8344 O.2       3 UNK        -0.5000 
     57 CA          5.6331  -13.2864  -44.6876 C.3       3 UNK         0.1400 
     58 CB          6.2000  -14.5766  -44.0639 C.3       3 UNK        -0.1800 
     59 N           5.5313  -13.4726  -46.1306 N.am      3 UNK        -0.5000 
     60 C           6.3121  -12.8983  -47.0547 C.2       2 UNK         0.5000 
     61 O           7.2656  -12.1666  -46.7839 O.2       2 UNK        -0.5000 
     62 CA          5.9863  -13.1865  -48.5373 C.3       2 UNK         0.1400 
     63 CB          6.9900  -14.1921  -49.1230 C.3       2 UNK        -0.1800 
     64 N           4.6323  -13.7036  -48.7412 N.am      2 UNK        -0.5000 
     65 C           3.5074  -12.9924  -48.5840 C.2       1 UNK         0.5000 
     66 O           3.5006  -11.7738  -48.4049 O.2       1 UNK        -0.5000 
     67 C          -0.9199  -22.4944  -47.5441 C.2       11 UNK         0.5000 
     68 O          -0.8622  -23.3988  -48.3776 O.2       11 UNK        -0.5000 
     69 N          -2.0680  -21.9943  -47.0647 N.am      12 UNK        -0.5000 
     70 CA         -3.4127  -22.4219  -47.4564 C.3       12 UNK         0.1400 
     71 CB         -4.4512  -21.5686  -46.7153 C.3       12 UNK        -0.1800 
     72 C          -3.7094  -23.9185  -47.2356 C.2       12 UNK         0.5000 
     73 O          -4.5905  -24.4501  -47.9117 O.2       12 UNK        -0.5000 
     74 N          -2.9758  -24.5667  -46.3217 N.am      13 UNK        -0.5000 
     75 CA         -3.0377  -26.0038  -46.0720 C.3       13 UNK         0.1400 
     76 CB         -3.0817  -26.2489  -44.5552 C.3       13 UNK        -0.1800 
     77 C          -1.8372  -26.7299  -46.7035 C.2       13 UNK         0.5000 
     78 O          -2.0268  -27.7637  -47.3441 O.2       13 UNK        -0.5000 
     79 N          -0.6263  -26.1915  -46.4998 N.am      14 UNK        -0.5000 
     80 CA          0.6428  -26.8142  -46.8791 C.3       14 UNK         0.1400 
     81 CB          1.7952  -26.0888  -46.1663 C.3       14 UNK        -0.1800 
     82 C           0.8861  -26.8541  -48.3973 C.2       14 UNK         0.5000 
     83 O           1.2816  -27.8974  -48.9192 O.2       14 UNK        -0.5000 
     84 N           0.6513  -25.7233  -49.0729 N.am      15 UNK        -0.5000 
     85 CA          0.7989  -25.5754  -50.5234 C.3       15 UNK         0.1400 
     86 CB          1.4701  -24.2244  -50.8149 C.3       15 UNK        -0.1800 
     87 C          -0.5563  -25.6619  -51.2490 C.2       15 UNK         0.5000 
     88 O          -0.5688  -25.8618  -52.4641 O.2       15 UNK        -0.5000 
     89 N          -1.6483  -25.5152  -50.4839 N.am      16 UNK        -0.5000 
     90 CA         -3.0522  -25.3850  -50.8753 C.3       16 UNK         0.1400 
     91 CB         -3.5075  -26.4783  -51.8620 C.3       16 UNK        -0.1800 
     92 C          -3.3625  -23.9741  -51.4059 C.2       16 UNK         0.5000 
     93 O          -2.6230  -23.4396  -52.2341 O.2       16 UNK        -0.5000 
     94 N          -4.4763  -23.4003  -50.9314 N.am      17 UNK        -0.5000 
     95 CA         -5.0002  -22.1143  -51.4012 C.3       17 UNK         0.1400 
     96 CB         -6.1071  -21.6389  -50.4502 C.3       17 UNK        -0.1800 
     97 C          -5.5343  -22.1943  -52.8438 C.2       17 UNK         0.5000 
     98 O          -5.3823  -21.2409  -53.6117 O.2       17 UNK        -0.5000 
     99 N          -6.1592  -23.3387  -53.1692 N.am      18 UNK        -0.5000 
    100 CA        -6.6650  -23.7619  -54.4836 C.3       18 UNK         0.1400 
    101 CB        -5.4788  -23.9997  -55.4411 C.3       18 UNK        -0.1800 
    102 C         -7.7291  -22.8328  -55.1117 C.2       18 UNK         0.5000 
    103 O         -8.0068  -22.9551  -56.3057 O.2       18 UNK        -0.5000 
    104 N         -8.2787  -21.9052  -54.3110 N.am      19 UNK        -0.5000 
    105 CA        -9.1088  -20.7617  -54.7118 C.3       19 UNK         0.1400 
    106 CB       -10.4750  -21.2344  -55.2523 C.3       19 UNK        -0.1800 
    107 C         -8.3789  -19.7985  -55.6800 C.2       19 UNK         0.5000 
    108 O         -9.0348  -19.1056  -56.4611 O.2       19 UNK        -0.5000 
    109 N         -7.0386  -19.7901  -55.6296 N.am      20 UNK        -0.5000 
    110 CA        -6.1663  -19.0786  -56.5613 C.3       20 UNK         0.1400 
    111 CB        -5.4662  -20.0973  -57.4762 C.3       20 UNK        -0.1800 
    112 C         -5.1394  -18.2155  -55.8177 C.2       20 UNK         0.5000 
    113 O         -4.9658  -17.0494  -56.1749 O.2       20 UNK        -0.5000 
    114 N         -4.4842  -18.7836  -54.7947 N.am      21 UNK        -0.5000 
    115 CA        -3.5309  -18.0655  -53.9453 C.3       21 UNK         0.1400 
    116 CB        -2.6072  -19.0733  -53.2477 C.3       21 UNK        -0.1800 
    117 C         -4.2544  -17.1766  -52.9184 C.2       21 UNK         0.5000 
    118 O         -3.7995  -16.0677  -52.6373 O.2       21 UNK        -0.5000 
    119 N         -5.3946  -17.6671  -52.4247 N.am      22 UNK        -0.5000 
    120 CA        -6.3339  -16.9724  -51.5433 C.3       22 UNK         0.1400 
    121 C         -7.7273  -17.6581  -51.5839 C.2       22 UNK         0.5000 
    122 N         -8.7476  -17.0469  -50.9975 N.am      22 UNK        -0.7600 
    123 O         -7.8998  -18.7359  -52.1510 O.2       22 UNK        -0.5000 
    124 C124       -5.7877  -16.7562  -50.1043 C.3       23 UNK        -0.0398 
    125 S125       -5.3616  -18.2917  -49.2086 S.3       23 UNK        -0.2404 
    126 C126       -3.9073  -17.7578  -48.2556 C.3       23 UNK        -0.0205 
    127 H127        3.6671  -17.7843  -48.1240 H         1 UNK         0.0600 
    128 H128        1.8987  -17.7682  -48.1826 H         1 UNK         0.0600 
    129 H129        2.7333  -17.8951  -46.6325 H         1 UNK         0.0600 
    130 H130        1.9143  -15.7334  -49.3106 H         1 UNK         0.3000 
    131 H131        1.6214  -13.4416  -47.7229 H         1 UNK         0.0600 
    132 H132        1.8260  -13.6440  -50.7780 H         1 UNK         0.0800 
    133 H133        1.2588  -12.2489  -49.9046 H         1 UNK         0.0800 
    134 H134        0.6994  -15.5657  -51.2863 H         1 UNK         0.0800 
    135 H135       -0.9063  -15.1438  -51.8238 H         1 UNK         0.0800 
    136 H136       -2.5987  -15.7035  -49.4595 H         1 UNK         0.1150 
    137 H137       -2.4112  -19.9363  -48.8964 H         1 UNK         0.1150 
    138 H138        0.6760  -17.9384  -51.0994 H         1 UNK         0.1150 
    139 H139       -0.8270  -21.2404  -50.1488 H         1 UNK         0.0800 
    140 H140        0.1463  -20.4675  -51.3600 H         1 UNK         0.0800 
    141 H141       -0.0143  -19.8666  -47.5310 H         1 UNK         0.0800 
    142 H142        1.6173  -20.1657  -47.0360 H         1 UNK         0.0800 
    143 H143        1.1721  -22.6673  -47.1336 H         1 UNK         0.0600 
    144 H144        0.5684  -20.8924  -45.1057 H         1 UNK         0.3000 
    145 H145       -0.7127  -23.0934  -42.5848 H         1 UNK         0.0600 
    146 H146        1.8517  -21.4576  -42.9599 H         1 UNK         0.0600 
    147 H147        1.1486  -21.9325  -41.4171 H         1 UNK         0.0600 
    148 H148        1.7596  -23.1563  -42.5208 H         1 UNK         0.0600 
    149 H149       -0.3394  -20.2312  -42.7667 H         1 UNK         0.3000 
    150 H150       -3.6973  -19.5118  -43.7660 H         1 UNK         0.0600 
    151 H151       -3.8620  -19.7742  -41.2915 H         1 UNK         0.0600 
    152 H152       -3.6333  -18.0887  -41.7335 H         1 UNK         0.0600 
    153 H153       -2.2843  -19.0231  -41.0907 H         1 UNK         0.0600 
    154 H154       -1.5744  -17.7527  -43.1467 H         1 UNK         0.3000 
    155 H155        0.0742  -17.8312  -46.3395 H         1 UNK         0.0600 
    156 H156       -1.7492  -16.1895  -46.5621 H         1 UNK         0.0600 
    157 H157       -0.2723  -15.3886  -46.0515 H         1 UNK         0.0600 
    158 H158       -1.5617  -15.6948  -44.8864 H         1 UNK         0.0600 
    159 H159        0.7051  -16.4322  -43.9386 H         1 UNK         0.3000 
    160 H160        2.6813  -19.0111  -42.4181 H         1 UNK         0.0600 
    161 H161        3.4358  -16.3913  -43.8069 H         1 UNK         0.0600 
    162 H162        4.2411  -17.9401  -43.9671 H         1 UNK         0.0600 
    163 H163        4.3017  -17.0822  -42.4335 H         1 UNK         0.0600 
    164 H164        1.8395  -16.2798  -41.8165 H         1 UNK         0.3000 
    165 H165       -0.9302  -17.2529  -39.8034 H         1 UNK         0.0600 
    166 H166        0.2885  -16.0762  -37.9912 H         1 UNK         0.0600 
    167 H167        0.9727  -17.6749  -38.2377 H         1 UNK         0.0600 
    168 H168        1.8139  -16.2593  -38.8584 H         1 UNK         0.0600 
    169 H169        0.3929  -14.7469  -40.1992 H         1 UNK         0.3000 
    170 H170       -1.0297  -13.8736  -43.3066 H         1 UNK         0.0600 
    171 H171       -2.9582  -13.4059  -41.7831 H         1 UNK         0.0600 
    172 H172       -1.8522  -12.8091  -40.5515 H         1 UNK         0.0600 
    173 H173       -2.0152  -11.9564  -42.0875 H         1 UNK         0.0600 
    174 H174        0.4035  -12.2739  -41.4954 H         1 UNK         0.3000 
    175 H175        2.6313  -11.7088  -42.2435 H         1 UNK         0.0600 
    176 H176        3.3510  -14.0171  -40.3434 H         1 UNK         0.0600 
    177 H177        4.0001  -12.3801  -40.2542 H         1 UNK         0.0600 
    178 H178        2.2969  -12.6636  -39.9525 H         1 UNK         0.0600 
    179 H179        4.7584  -13.6256  -42.3102 H         1 UNK         0.3000 
    180 H180        6.3184  -12.4678  -44.4599 H         1 UNK         0.0600 
    181 H181        5.5395  -15.4251  -44.2366 H         1 UNK         0.0600 
    182 H182        6.3541  -14.4792  -42.9891 H         1 UNK         0.0600 
    183 H183        7.1686  -14.8232  -44.4992 H         1 UNK         0.0600 
    184 H184        4.7333  -14.0263  -46.4302 H         1 UNK         0.3000 
    185 H185        6.0827  -12.2465  -49.0845 H         1 UNK         0.0600 
    186 H186        6.8100  -14.3567  -50.1855 H         1 UNK         0.0600 
    187 H187        8.0131  -13.8280  -49.0208 H         1 UNK         0.0600 
    188 H188        6.9331  -15.1571  -48.6178 H         1 UNK         0.0600 
    189 H189        4.5451  -14.6988  -48.8851 H         1 UNK         0.3000 
    190 H190       -2.0156  -21.2187  -46.4098 H         1 UNK         0.3000 
    191 H191       -3.5095  -22.2275  -48.5254 H         1 UNK         0.0600 
    192 H192       -4.3317  -20.5131  -46.9467 H         1 UNK         0.0600 
    193 H193       -5.4666  -21.8474  -46.9992 H         1 UNK         0.0600 
    194 H194       -4.3705  -21.6858  -45.6350 H         1 UNK         0.0600 
    195 H195       -2.2581  -24.0538  -45.8238 H         1 UNK         0.3000 
    196 H196       -3.9472  -26.4273  -46.5034 H         1 UNK         0.0600 
    197 H197       -3.1237  -27.3158  -44.3328 H         1 UNK         0.0600 
    198 H198       -3.9639  -25.7885  -44.1100 H         1 UNK         0.0600 
    199 H199       -2.2043  -25.8416  -44.0514 H         1 UNK         0.0600 
    200 H200       -0.5549  -25.3423  -45.9424 H         1 UNK         0.3000 
    201 H201        0.6265  -27.8460  -46.5215 H         1 UNK         0.0600 
    202 H202        1.6777  -26.1325  -45.0833 H         1 UNK         0.0600 
    203 H203        1.8494  -25.0380  -46.4530 H         1 UNK         0.0600 
    204 H204        2.7554  -26.5462  -46.4082 H         1 UNK         0.0600 
    205 H205        0.2826  -24.9147  -48.5808 H         1 UNK         0.3000 
    206 H206        1.4406  -26.3637  -50.9222 H         1 UNK         0.0600 
    207 H207        2.4202  -24.1297  -50.2890 H         1 UNK         0.0600 
    208 H208        1.6731  -24.1115  -51.8804 H         1 UNK         0.0600 
    209 H209        0.8345  -23.3915  -50.5153 H         1 UNK         0.0600 
    210 H210       -1.4676  -25.2992  -49.5129 H         1 UNK         0.3000 
    211 H211       -3.6155  -25.5410  -49.9572 H         1 UNK         0.0600 
    212 H212       -3.0833  -26.3373  -52.8564 H         1 UNK         0.0600 
    213 H213       -4.5921  -26.4670  -51.9740 H         1 UNK         0.0600 
    214 H214       -3.2264  -27.4713  -51.5109 H         1 UNK         0.0600 
    215 H215       -5.0115  -23.8797  -50.2190 H         1 UNK         0.3000 
    216 H216       -4.1914  -21.3825  -51.3768 H         1 UNK         0.0600 
    217 H217       -6.5306  -20.6924  -50.7877 H         1 UNK         0.0600 
    218 H218       -5.7207  -21.4757  -49.4451 H         1 UNK         0.0600 
    219 H219       -6.9242  -22.3581  -50.3832 H         1 UNK         0.0600 
    220 H220       -6.2491  -24.0307  -52.4392 H         1 UNK         0.3000 
    221 H221       -7.1609  -24.7206  -54.3251 H         1 UNK         0.0600 
    222 H222       -4.9684  -23.0684  -55.6888 H         1 UNK         0.0600 
    223 H223       -4.7453  -24.6747  -54.9993 H         1 UNK         0.0600 
    224 H224       -5.8091  -24.4510  -56.3773 H         1 UNK         0.0600 
    225 H225       -7.9744  -21.8955  -53.3481 H         1 UNK         0.3000 
    226 H226       -9.3019  -20.1913  -53.8035 H         1 UNK         0.0600 
    227 H227      -10.9583  -21.9205  -54.5565 H         1 UNK         0.0600 
    228 H228      -11.1512  -20.3907  -55.3955 H         1 UNK         0.0600 
    229 H229      -10.3796  -21.7412  -56.2129 H         1 UNK         0.0600 
    230 H230       -6.5807  -20.3662  -54.9304 H         1 UNK         0.3000 
    231 H231       -6.7510  -18.4056  -57.1922 H         1 UNK         0.0600 
    232 H232       -4.8648  -20.8064  -56.9057 H         1 UNK         0.0600 
    233 H233       -4.8045  -19.5975  -58.1850 H         1 UNK         0.0600 
    234 H234       -6.1929  -20.6683  -58.0545 H         1 UNK         0.0600 
    235 H235       -4.6925  -19.7423  -54.5294 H         1 UNK         0.3000 
    236 H236       -2.9114  -17.4231  -54.5751 H         1 UNK         0.0600 
    237 H237       -2.1385  -19.7483  -53.9637 H         1 UNK         0.0600 
    238 H238       -1.8084  -18.5535  -52.7212 H         1 UNK         0.0600 
    239 H239       -3.1434  -19.6765  -52.5162 H         1 UNK         0.0600 
    240 H240       -5.7197  -18.5736  -52.7338 H         1 UNK         0.3000 
    241 H241       -6.4916  -15.9875  -51.9869 H         1 UNK         0.0600 
    242 H242       -9.6542  -17.4868  -51.0209 H         1 UNK         0.3800 
    243 H243       -8.6438  -16.1572  -50.5353 H         1 UNK         0.3800 
    244 H244       -4.9059  -16.1181  -50.1543 H         1 UNK         0.0800 
    245 H245       -6.5067  -16.2004  -49.5013 H         1 UNK         0.0800 
    246 H246       -3.7987  -18.3971  -47.3819 H         1 UNK         0.0800 
    247 H247       -4.0736  -16.7534  -47.8633 H         1 UNK         0.0800 
@<TRIPOS>BOND
     1    1    2 1    
     2    1  127 1    
     3    1  128 1    
     4    1  129 1    
     5    2    3 2    
     6    2    4 am   BACKBONE|DICT|INTERRES
     7    4    5 1    
     8    4  130 1    
     9    5    6 1    
    10    5   65 1    
    11    5  131 1    
    12    6    7 1    
    13    6  132 1    
    14    6  133 1    
    15    7    8 1    
    16    8    9 1    
    17    8  134 1    
    18    8  135 1    
    19    9   10 ar   
    20    9   14 ar   
    21   10   11 ar   
    22   10  136 1    
    23   11   12 ar   
    24   11  126 1    
    25   12   13 ar   
    26   12  137 1    
    27   13   14 ar   
    28   13   15 1    
    29   14  138 1    
    30   15   16 1    
    31   15  139 1    
    32   15  140 1    
    33   16   17 1    
    34   17   18 1    
    35   17  141 1    
    36   17  142 1    
    37   18   19 1    
    38   18   67 1    
    39   18  143 1    
    40   19   20 am   BACKBONE|DICT|INTERRES
    41   19  144 1    
    42   20   21 2    
    43   20   22 1    
    44   22   23 1    
    45   22   24 1    
    46   22  145 1    
    47   23  146 1    
    48   23  147 1    
    49   23  148 1    
    50   24   25 am   BACKBONE|DICT|INTERRES
    51   24  149 1    
    52   25   26 2    
    53   25   27 1    
    54   27   28 1    
    55   27   29 1    
    56   27  150 1    
    57   28  151 1    
    58   28  152 1    
    59   28  153 1    
    60   29   30 am   BACKBONE|DICT|INTERRES
    61   29  154 1    
    62   30   31 2    
    63   30   32 1    
    64   32   33 1    
    65   32   34 1    
    66   32  155 1    
    67   33  156 1    
    68   33  157 1    
    69   33  158 1    
    70   34   35 am   BACKBONE|DICT|INTERRES
    71   34  159 1    
    72   35   36 2    
    73   35   37 1    
    74   37   38 1    
    75   37   39 1    
    76   37  160 1    
    77   38  161 1    
    78   38  162 1    
    79   38  163 1    
    80   39   40 am   BACKBONE|DICT|INTERRES
    81   39  164 1    
    82   40   41 2    
    83   40   42 1    
    84   42   43 1    
    85   42   44 1    
    86   42  165 1    
    87   43  166 1    
    88   43  167 1    
    89   43  168 1    
    90   44   45 am   BACKBONE|DICT|INTERRES
    91   44  169 1    
    92   45   46 2    
    93   45   47 1    
    94   47   48 1    
    95   47   49 1    
    96   47  170 1    
    97   48  171 1    
    98   48  172 1    
    99   48  173 1    
   100   49   50 am   BACKBONE|DICT|INTERRES
   101   49  174 1    
   102   50   51 2    
   103   50   52 1    
   104   52   53 1    
   105   52   54 1    
   106   52  175 1    
   107   53  176 1    
   108   53  177 1    
   109   53  178 1    
   110   54   55 am   BACKBONE|DICT|INTERRES
   111   54  179 1    
   112   55   56 2    
   113   55   57 1    
   114   57   58 1    
   115   57   59 1    
   116   57  180 1    
   117   58  181 1    
   118   58  182 1    
   119   58  183 1    
   120   59   60 am   BACKBONE|DICT|INTERRES
   121   59  184 1    
   122   60   61 2    
   123   60   62 1    
   124   62   63 1    
   125   62   64 1    
   126   62  185 1    
   127   63  186 1    
   128   63  187 1    
   129   63  188 1    
   130   64   65 am   BACKBONE|DICT|INTERRES
   131   64  189 1    
   132   65   66 2    
   133   67   68 2    
   134   67   69 am   BACKBONE|DICT|INTERRES
   135   69   70 1    
   136   69  190 1    
   137   70   71 1    
   138   70   72 1    
   139   70  191 1    
   140   71  192 1    
   141   71  193 1    
   142   71  194 1    
   143   72   73 2    
   144   72   74 am   BACKBONE|DICT|INTERRES
   145   74   75 1    
   146   74  195 1    
   147   75   76 1    
   148   75   77 1    
   149   75  196 1    
   150   76  197 1    
   151   76  198 1    
   152   76  199 1    
   153   77   78 2    
   154   77   79 am   BACKBONE|DICT|INTERRES
   155   79   80 1    
   156   79  200 1    
   157   80   81 1    
   158   80   82 1    
   159   80  201 1    
   160   81  202 1    
   161   81  203 1    
   162   81  204 1    
   163   82   83 2    
   164   82   84 am   BACKBONE|DICT|INTERRES
   165   84   85 1    
   166   84  205 1    
   167   85   86 1    
   168   85   87 1    
   169   85  206 1    
   170   86  207 1    
   171   86  208 1    
   172   86  209 1    
   173   87   88 2    
   174   87   89 am   BACKBONE|DICT|INTERRES
   175   89   90 1    
   176   89  210 1    
   177   90   91 1    
   178   90   92 1    
   179   90  211 1    
   180   91  212 1    
   181   91  213 1    
   182   91  214 1    
   183   92   93 2    
   184   92   94 am   BACKBONE|DICT|INTERRES
   185   94   95 1    
   186   94  215 1    
   187   95   96 1    
   188   95   97 1    
   189   95  216 1    
   190   96  217 1    
   191   96  218 1    
   192   96  219 1    
   193   97   98 2    
   194   97   99 am   BACKBONE|DICT|INTERRES
   195   99  100 1    
   196   99  220 1    
   197  100  101 1    
   198  100  102 1    
   199  100  221 1    
   200  101  222 1    
   201  101  223 1    
   202  101  224 1    
   203  102  103 2    
   204  102  104 am   BACKBONE|DICT|INTERRES
   205  104  105 1    
   206  104  225 1    
   207  105  106 1    
   208  105  107 1    
   209  105  226 1    
   210  106  227 1    
   211  106  228 1    
   212  106  229 1    
   213  107  108 2    
   214  107  109 am   BACKBONE|DICT|INTERRES
   215  109  110 1    
   216  109  230 1    
   217  110  111 1    
   218  110  112 1    
   219  110  231 1    
   220  111  232 1    
   221  111  233 1    
   222  111  234 1    
   223  112  113 2    
   224  112  114 am   BACKBONE|DICT|INTERRES
   225  114  115 1    
   226  114  235 1    
   227  115  116 1    
   228  115  117 1    
   229  115  236 1    
   230  116  237 1    
   231  116  238 1    
   232  116  239 1    
   233  117  118 2    
   234  117  119 am   BACKBONE|DICT|INTERRES
   235  119  120 1    
   236  119  240 1    
   237  120  121 1    
   238  120  124 1    
   239  120  241 1    
   240  121  122 am   BACKBONE|DICT|INTERRES
   241  121  123 2    
   242  122  242 1    
   243  122  243 1    
   244  124  125 1    
   245  124  244 1    
   246  124  245 1    
   247  125  126 1    
   248  126  246 1    
   249  126  247 1    
@<TRIPOS>SUBSTRUCTURE
     1 UNK         1 GROUP             0       ****    0 ROOT    
