@<TRIPOS>MOLECULE
3R540
247   249    1
SMALL
USER_CHARGES


@<TRIPOS>ATOM
      1 CA         -2.8412  -11.5614  -51.4674 C.3       0 UNK        -0.1800 
      2 C          -3.1024  -12.7338  -50.5328 C.2       0 UNK         0.5000 
      3 O          -3.2936  -13.8578  -50.9947 O.2       0 UNK        -0.5000 
      4 N          -3.1181  -12.4743  -49.2206 N.am      1 UNK        -0.5000 
      5 CA         -3.3281  -13.4704  -48.1668 C.3       1 UNK         0.1400 
      6 C6         -3.9041  -12.8283  -46.8783 C.3       23 UNK        -0.0398 
      7 S7         -5.6672  -12.3977  -47.1108 S.3       23 UNK        -0.2404 
      8 C8         -6.5511  -13.7024  -46.1817 C.3       23 UNK        -0.0205 
      9 C9         -5.9833  -15.0964  -46.4184 C.ar      23 UNK        -0.0193 
     10 C10        -6.1226  -15.7248  -47.6593 C.ar      23 UNK        -0.1150 
     11 C11        -5.5179  -16.9633  -47.8967 C.ar      23 UNK        -0.0193 
     12 C12        -4.7914  -17.5847  -46.8769 C.ar      23 UNK        -0.1150 
     13 C13        -4.6718  -16.9788  -45.6235 C.ar      23 UNK        -0.0193 
     14 C14        -5.2761  -15.7398  -45.3995 C.ar      23 UNK        -0.1150 
     15 C15        -3.8330  -17.6150  -44.5283 C.3       23 UNK        -0.0205 
     16 S16        -4.7286  -18.8853  -43.5790 S.3       23 UNK        -0.2404 
     17 C17        -4.6548  -20.3613  -44.6549 C.3       23 UNK        -0.0398 
     18 CA         -3.2220  -20.8193  -45.0441 C.3       11 UNK         0.1400 
     19 N          -2.2765  -20.9787  -43.9277 N.am      11 UNK        -0.5000 
     20 C          -2.3742  -21.7892  -42.8645 C.2       10 UNK         0.5000 
     21 O          -3.3711  -22.4665  -42.6109 O.2       10 UNK        -0.5000 
     22 CA         -1.1283  -21.9248  -41.9761 C.3       10 UNK         0.1400 
     23 CB         -0.1080  -22.8595  -42.6482 C.3       10 UNK        -0.1800 
     24 N          -0.4897  -20.6351  -41.7163 N.am      10 UNK        -0.5000 
     25 C          -0.5046  -20.0000  -40.5357 C.2       9 UNK         0.5000 
     26 O          -1.0931  -20.4235  -39.5398 O.2       9 UNK        -0.5000 
     27 CA          0.2819  -18.6760  -40.4278 C.3       9 UNK         0.1400 
     28 CB          1.6510  -18.9179  -39.7737 C.3       9 UNK        -0.1800 
     29 N           0.4881  -18.0133  -41.7140 N.am      9 UNK        -0.5000 
     30 C          -0.4796  -17.4397  -42.4395 C.2       8 UNK         0.5000 
     31 O          -1.6404  -17.3231  -42.0509 O.2       8 UNK        -0.5000 
     32 CA         -0.0932  -16.9368  -43.8434 C.3       8 UNK         0.1400 
     33 CB          0.1998  -15.4307  -43.8108 C.3       8 UNK        -0.1800 
     34 N           1.0447  -17.6469  -44.4343 N.am      8 UNK        -0.5000 
     35 C           1.0799  -18.9545  -44.7308 C.2       7 UNK         0.5000 
     36 O           0.1435  -19.7263  -44.5258 O.2       7 UNK        -0.5000 
     37 CA          2.3986  -19.5001  -45.3019 C.3       7 UNK         0.1400 
     38 CB          2.4895  -19.2611  -46.8171 C.3       7 UNK        -0.1800 
     39 N           3.5507  -18.8961  -44.6347 N.am      7 UNK        -0.5000 
     40 C           4.0122  -19.2826  -43.4369 C.2       6 UNK         0.5000 
     41 O           3.5572  -20.2357  -42.8046 O.2       6 UNK        -0.5000 
     42 CA          5.1601  -18.4515  -42.8322 C.3       6 UNK         0.1400 
     43 CB          6.5201  -18.9895  -43.3018 C.3       6 UNK        -0.1800 
     44 N           5.0688  -17.0269  -43.1576 N.am      6 UNK        -0.5000 
     45 C           4.1131  -16.2030  -42.7051 C.2       5 UNK         0.5000 
     46 O           3.2188  -16.5520  -41.9349 O.2       5 UNK        -0.5000 
     47 CA          4.1369  -14.7566  -43.2402 C.3       5 UNK         0.1400 
     48 CB          5.0258  -13.8727  -42.3528 C.3       5 UNK        -0.1800 
     49 N           4.5769  -14.6379  -44.6356 N.am      5 UNK        -0.5000 
     50 C           4.0113  -15.2569  -45.6803 C.2       4 UNK         0.5000 
     51 O           3.0646  -16.0423  -45.5805 O.2       4 UNK        -0.5000 
     52 CA          4.6377  -14.9986  -47.0562 C.3       4 UNK         0.1400 
     53 CB          6.0427  -15.6293  -47.1390 C.3       4 UNK        -0.1800 
     54 N           3.7675  -15.5834  -48.0703 N.am      4 UNK        -0.5000 
     55 C           3.8222  -15.3617  -49.3864 C.2       3 UNK         0.5000 
     56 O           4.5989  -14.5668  -49.9175 O.2       3 UNK        -0.5000 
     57 CA          2.8703  -16.1947  -50.2648 C.3       3 UNK         0.1400 
     58 CB          3.5504  -17.5240  -50.6321 C.3       3 UNK        -0.1800 
     59 N           1.5746  -16.4969  -49.6530 N.am      3 UNK        -0.5000 
     60 C           0.6360  -15.6048  -49.3115 C.2       2 UNK         0.5000 
     61 O           0.7894  -14.3842  -49.3901 O.2       2 UNK        -0.5000 
     62 CA         -0.7067  -16.2171  -48.8628 C.3       2 UNK         0.1400 
     63 CB         -0.5773  -17.0011  -47.5430 C.3       2 UNK        -0.1800 
     64 N          -1.8095  -15.2566  -48.8000 N.am      2 UNK        -0.5000 
     65 C          -2.0324  -14.2697  -47.9225 C.2       1 UNK         0.5000 
     66 O          -1.2923  -13.9785  -46.9812 O.2       1 UNK        -0.5000 
     67 C          -3.2514  -22.0656  -45.9508 C.2       11 UNK         0.5000 
     68 O          -3.0104  -21.9498  -47.1520 O.2       11 UNK        -0.5000 
     69 N          -3.4438  -23.2500  -45.3576 N.am      12 UNK        -0.5000 
     70 CA         -3.3184  -24.5713  -45.9767 C.3       12 UNK         0.1400 
     71 CB         -4.0963  -25.5880  -45.1237 C.3       12 UNK        -0.1800 
     72 C          -1.8430  -24.9827  -46.1986 C.2       12 UNK         0.5000 
     73 O          -1.4679  -26.1266  -45.9381 O.2       12 UNK        -0.5000 
     74 N          -1.0272  -24.0355  -46.6791 N.am      13 UNK        -0.5000 
     75 CA          0.3790  -24.2154  -47.0455 C.3       13 UNK         0.1400 
     76 CB          1.0548  -22.8348  -47.0638 C.3       13 UNK        -0.1800 
     77 C           0.5454  -24.9249  -48.4053 C.2       13 UNK         0.5000 
     78 O           1.6354  -25.4066  -48.7151 O.2       13 UNK        -0.5000 
     79 N          -0.5408  -24.9800  -49.1810 N.am      14 UNK        -0.5000 
     80 CA         -0.6899  -25.6949  -50.4383 C.3       14 UNK         0.1400 
     81 CB         -0.3976  -24.7344  -51.6012 C.3       14 UNK        -0.1800 
     82 C          -2.1275  -26.2345  -50.5028 C.2       14 UNK         0.5000 
     83 O          -2.9714  -25.8358  -49.6907 O.2       14 UNK        -0.5000 
     84 N          -2.3809  -27.1267  -51.4692 N.am      15 UNK        -0.5000 
     85 CA         -3.6792  -27.7556  -51.7262 C.3       15 UNK         0.1400 
     86 CB         -3.5535  -28.6964  -52.9338 C.3       15 UNK        -0.1800 
     87 C          -4.7975  -26.7231  -51.9606 C.2       15 UNK         0.5000 
     88 O          -4.5851  -25.7483  -52.6849 O.2       15 UNK        -0.5000 
     89 N          -5.9469  -26.9375  -51.3044 N.am      16 UNK        -0.5000 
     90 CA         -7.1346  -26.0695  -51.2937 C.3       16 UNK         0.1400 
     91 CB         -7.8040  -26.0575  -52.6843 C.3       16 UNK        -0.1800 
     92 C          -6.8700  -24.6417  -50.7577 C.2       16 UNK         0.5000 
     93 O          -7.6454  -23.7299  -51.0486 O.2       16 UNK        -0.5000 
     94 N          -5.7745  -24.4739  -49.9990 N.am      17 UNK        -0.5000 
     95 CA         -5.2269  -23.2140  -49.4880 C.3       17 UNK         0.1400 
     96 CB         -6.1756  -22.5645  -48.4584 C.3       17 UNK        -0.1800 
     97 C          -4.7764  -22.2400  -50.5973 C.2       17 UNK         0.5000 
     98 O          -4.7124  -21.0333  -50.3613 O.2       17 UNK        -0.5000 
     99 N          -4.4312  -22.7663  -51.7826 N.am      18 UNK        -0.5000 
    100 CA        -3.9307  -22.0075  -52.9313 C.3       18 UNK         0.1400 
    101 CB        -4.2124  -22.8042  -54.2168 C.3       18 UNK        -0.1800 
    102 C         -2.4370  -21.6542  -52.7662 C.2       18 UNK         0.5000 
    103 O         -1.6091  -22.0321  -53.5978 O.2       18 UNK        -0.5000 
    104 N         -2.1100  -20.9671  -51.6641 N.am      19 UNK        -0.5000 
    105 CA        -0.7707  -20.5726  -51.2258 C.3       19 UNK         0.1400 
    106 CB        -0.8471  -20.1881  -49.7368 C.3       19 UNK        -0.1800 
    107 C         -0.1482  -19.4586  -52.0966 C.2       19 UNK         0.5000 
    108 O          0.1451  -18.3720  -51.5947 O.2       19 UNK        -0.5000 
    109 N          0.0302  -19.7570  -53.3896 N.am      20 UNK        -0.5000 
    110 CA         0.6265  -18.9657  -54.4723 C.3       20 UNK         0.1400 
    111 CB         2.1099  -18.6581  -54.1944 C.3       20 UNK        -0.1800 
    112 C         -0.1525  -17.6857  -54.8243 C.2       20 UNK         0.5000 
    113 O         -0.6105  -17.5464  -55.9588 O.2       20 UNK        -0.5000 
    114 N         -0.2797  -16.7742  -53.8541 N.am      21 UNK        -0.5000 
    115 CA        -1.0134  -15.5157  -53.9782 C.3       21 UNK         0.1400 
    116 CB        -0.5508  -14.5599  -52.8698 C.3       21 UNK        -0.1800 
    117 C         -2.5375  -15.7275  -53.9206 C.2       21 UNK         0.5000 
    118 O         -3.2801  -14.9950  -54.5758 O.2       21 UNK        -0.5000 
    119 N         -2.9645  -16.7363  -53.1524 N.am      22 UNK        -0.5000 
    120 CA        -4.3581  -17.1764  -53.0261 C.3       22 UNK         0.1400 
    121 C         -4.8441  -17.8872  -54.3176 C.2       22 UNK         0.5000 
    122 N         -5.9797  -17.4855  -54.8712 N.am      22 UNK        -0.7600 
    123 O         -4.2207  -18.8343  -54.7916 O.2       22 UNK        -0.5000 
    124 C124       -4.5367  -18.1133  -51.8091 C.3       23 UNK        -0.0398 
    125 S125       -4.1079  -17.3132  -50.2302 S.3       23 UNK        -0.2404 
    126 C126       -5.6167  -17.6165  -49.2638 C.3       23 UNK        -0.0205 
    127 H127       -2.9953  -10.6056  -50.9660 H         1 UNK         0.0600 
    128 H128       -3.5132  -11.6056  -52.3246 H         1 UNK         0.0600 
    129 H129       -1.8155  -11.5937  -51.8337 H         1 UNK         0.0600 
    130 H130       -2.9384  -11.5335  -48.9014 H         1 UNK         0.3000 
    131 H131       -4.0634  -14.1916  -48.5273 H         1 UNK         0.0600 
    132 H132       -3.3494  -11.9265  -46.6154 H         1 UNK         0.0800 
    133 H133       -3.8035  -13.4921  -46.0194 H         1 UNK         0.0800 
    134 H134       -7.6037  -13.6892  -46.4673 H         1 UNK         0.0800 
    135 H135       -6.5223  -13.4533  -45.1198 H         1 UNK         0.0800 
    136 H136       -6.6637  -15.2275  -48.4523 H         1 UNK         0.1150 
    137 H137       -4.3025  -18.5286  -47.0715 H         1 UNK         0.1150 
    138 H138       -5.1635  -15.2575  -44.4385 H         1 UNK         0.1150 
    139 H139       -2.9169  -18.0195  -44.9499 H         1 UNK         0.0800 
    140 H140       -3.5133  -16.8421  -43.8288 H         1 UNK         0.0800 
    141 H141       -5.2445  -20.1578  -45.5499 H         1 UNK         0.0800 
    142 H142       -5.1799  -21.1637  -44.1347 H         1 UNK         0.0800 
    143 H143       -2.7835  -20.0438  -45.6705 H         1 UNK         0.0600 
    144 H144       -1.3886  -20.5011  -44.0722 H         1 UNK         0.3000 
    145 H145       -1.4420  -22.3936  -41.0411 H         1 UNK         0.0600 
    146 H146        0.7512  -23.0328  -42.0001 H         1 UNK         0.0600 
    147 H147       -0.5513  -23.8318  -42.8682 H         1 UNK         0.0600 
    148 H148        0.2622  -22.4483  -43.5882 H         1 UNK         0.0600 
    149 H149       -0.0178  -20.1983  -42.4985 H         1 UNK         0.3000 
    150 H150       -0.2902  -18.0036  -39.7852 H         1 UNK         0.0600 
    151 H151        1.5404  -19.3818  -38.7927 H         1 UNK         0.0600 
    152 H152        2.1913  -17.9817  -39.6312 H         1 UNK         0.0600 
    153 H153        2.2749  -19.5755  -40.3802 H         1 UNK         0.0600 
    154 H154        1.4344  -17.9917  -42.0718 H         1 UNK         0.3000 
    155 H155       -0.9455  -17.0955  -44.5016 H         1 UNK         0.0600 
    156 H156        0.9923  -15.1958  -43.1019 H         1 UNK         0.0600 
    157 H157       -0.6855  -14.8708  -43.5073 H         1 UNK         0.0600 
    158 H158        0.4983  -15.0574  -44.7907 H         1 UNK         0.0600 
    159 H159        1.8479  -17.0751  -44.6850 H         1 UNK         0.3000 
    160 H160        2.4164  -20.5786  -45.1317 H         1 UNK         0.0600 
    161 H161        2.4611  -18.2008  -47.0659 H         1 UNK         0.0600 
    162 H162        1.6609  -19.7444  -47.3352 H         1 UNK         0.0600 
    163 H163        3.4112  -19.6754  -47.2258 H         1 UNK         0.0600 
    164 H164        3.9337  -18.0624  -45.0576 H         1 UNK         0.3000 
    165 H165        5.1073  -18.5555  -41.7463 H         1 UNK         0.0600 
    166 H166        7.3417  -18.4594  -42.8198 H         1 UNK         0.0600 
    167 H167        6.6278  -20.0466  -43.0552 H         1 UNK         0.0600 
    168 H168        6.6425  -18.8899  -44.3811 H         1 UNK         0.0600 
    169 H169        5.7660  -16.6551  -43.7854 H         1 UNK         0.3000 
    170 H170        3.1195  -14.3678  -43.1871 H         1 UNK         0.0600 
    171 H171        4.7089  -13.9220  -41.3101 H         1 UNK         0.0600 
    172 H172        6.0708  -14.1824  -42.3934 H         1 UNK         0.0600 
    173 H173        4.9727  -12.8272  -42.6571 H         1 UNK         0.0600 
    174 H174        5.3578  -14.0198  -44.8030 H         1 UNK         0.3000 
    175 H175        4.6988  -13.9199  -47.2126 H         1 UNK         0.0600 
    176 H176        6.0059  -16.7093  -46.9902 H         1 UNK         0.0600 
    177 H177        6.5080  -15.4436  -48.1070 H         1 UNK         0.0600 
    178 H178        6.7107  -15.2153  -46.3831 H         1 UNK         0.0600 
    179 H179        3.0560  -16.1974  -47.6957 H         1 UNK         0.3000 
    180 H180        2.6793  -15.6351  -51.1828 H         1 UNK         0.0600 
    181 H181        3.8304  -18.0905  -49.7427 H         1 UNK         0.0600 
    182 H182        4.4588  -17.3511  -51.2105 H         1 UNK         0.0600 
    183 H183        2.8983  -18.1587  -51.2296 H         1 UNK         0.0600 
    184 H184        1.3237  -17.4750  -49.6363 H         1 UNK         0.3000 
    185 H185       -1.0015  -16.9235  -49.6391 H         1 UNK         0.0600 
    186 H186        0.0564  -17.8774  -47.6680 H         1 UNK         0.0600 
    187 H187       -0.1363  -16.3878  -46.7582 H         1 UNK         0.0600 
    188 H188       -1.5472  -17.3554  -47.1932 H         1 UNK         0.0600 
    189 H189       -2.4669  -15.3227  -49.5698 H         1 UNK         0.3000 
    190 H190       -3.5746  -23.2387  -44.3498 H         1 UNK         0.3000 
    191 H191       -3.7885  -24.5408  -46.9603 H         1 UNK         0.0600 
    192 H192       -5.1401  -25.2929  -45.0146 H         1 UNK         0.0600 
    193 H193       -3.6685  -25.6838  -44.1249 H         1 UNK         0.0600 
    194 H194       -4.0881  -26.5767  -45.5842 H         1 UNK         0.0600 
    195 H195       -1.4404  -23.1331  -46.8898 H         1 UNK         0.3000 
    196 H196        0.8654  -24.8298  -46.2852 H         1 UNK         0.0600 
    197 H197        2.1212  -22.9227  -47.2747 H         1 UNK         0.0600 
    198 H198        0.9534  -22.3351  -46.1004 H         1 UNK         0.0600 
    199 H199        0.6218  -22.1848  -47.8246 H         1 UNK         0.0600 
    200 H200       -1.4133  -24.6268  -48.8111 H         1 UNK         0.3000 
    201 H201       -0.0019  -26.5422  -50.4712 H         1 UNK         0.0600 
    202 H202        0.6190  -24.3447  -51.5469 H         1 UNK         0.0600 
    203 H203       -1.0808  -23.8868  -51.5876 H         1 UNK         0.0600 
    204 H204       -0.5057  -25.2299  -52.5665 H         1 UNK         0.0600 
    205 H205       -1.6381  -27.3738  -52.1064 H         1 UNK         0.3000 
    206 H206       -3.9301  -28.3536  -50.8478 H         1 UNK         0.0600 
    207 H207       -2.8077  -29.4714  -52.7562 H         1 UNK         0.0600 
    208 H208       -4.5001  -29.1985  -53.1382 H         1 UNK         0.0600 
    209 H209       -3.2681  -28.1546  -53.8366 H         1 UNK         0.0600 
    210 H210       -6.0143  -27.7593  -50.7194 H         1 UNK         0.3000 
    211 H211       -7.8371  -26.5247  -50.5943 H         1 UNK         0.0600 
    212 H212       -7.1895  -25.5447  -53.4249 H         1 UNK         0.0600 
    213 H213       -8.7681  -25.5488  -52.6521 H         1 UNK         0.0600 
    214 H214       -7.9866  -27.0704  -53.0431 H         1 UNK         0.0600 
    215 H215       -5.1817  -25.2811  -49.8485 H         1 UNK         0.3000 
    216 H216       -4.3112  -23.4827  -48.9629 H         1 UNK         0.0600 
    217 H217       -5.7090  -21.6982  -47.9882 H         1 UNK         0.0600 
    218 H218       -6.4304  -23.2640  -47.6624 H         1 UNK         0.0600 
    219 H219       -7.1026  -22.2219  -48.9181 H         1 UNK         0.0600 
    220 H220       -4.4942  -23.7709  -51.9092 H         1 UNK         0.3000 
    221 H221       -4.4848  -21.0700  -53.0025 H         1 UNK         0.0600 
    222 H222       -3.6550  -23.7412  -54.2413 H         1 UNK         0.0600 
    223 H223       -5.2721  -23.0429  -54.3094 H         1 UNK         0.0600 
    224 H224       -3.9297  -22.2296  -55.0998 H         1 UNK         0.0600 
    225 H225       -2.8707  -20.7294  -51.0346 H         1 UNK         0.3000 
    226 H226       -0.1165  -21.4429  -51.3085 H         1 UNK         0.0600 
    227 H227       -1.2078  -21.0217  -49.1339 H         1 UNK         0.0600 
    228 H228        0.1338  -19.9099  -49.3506 H         1 UNK         0.0600 
    229 H229       -1.5213  -19.3466  -49.5726 H         1 UNK         0.0600 
    230 H230       -0.3430  -20.6579  -53.6816 H         1 UNK         0.3000 
    231 H231        0.5900  -19.6093  -55.3527 H         1 UNK         0.0600 
    232 H232        2.6621  -19.5619  -53.9370 H         1 UNK         0.0600 
    233 H233        2.2326  -17.9440  -53.3815 H         1 UNK         0.0600 
    234 H234        2.5852  -18.2253  -55.0754 H         1 UNK         0.0600 
    235 H235        0.0769  -17.0212  -52.9353 H         1 UNK         0.3000 
    236 H236       -0.7709  -15.0638  -54.9424 H         1 UNK         0.0600 
    237 H237       -1.0267  -13.5856  -52.9790 H         1 UNK         0.0600 
    238 H238       -0.8056  -14.9401  -51.8804 H         1 UNK         0.0600 
    239 H239        0.5274  -14.4022  -52.9025 H         1 UNK         0.0600 
    240 H240       -2.2769  -17.2881  -52.6638 H         1 UNK         0.3000 
    241 H241       -4.9732  -16.2891  -52.8620 H         1 UNK         0.0600 
    242 H242       -6.3105  -17.9522  -55.7014 H         1 UNK         0.3800 
    243 H243       -6.5059  -16.7104  -54.4982 H         1 UNK         0.3800 
    244 H244       -5.5621  -18.4840  -51.7590 H         1 UNK         0.0800 
    245 H245       -3.9043  -18.9912  -51.9173 H         1 UNK         0.0800 
    246 H246       -6.4824  -17.2335  -49.8062 H         1 UNK         0.0800 
    247 H247       -5.7661  -18.6918  -49.1514 H         1 UNK         0.0800 
@<TRIPOS>BOND
     1    1    2 1    
     2    1  127 1    
     3    1  128 1    
     4    1  129 1    
     5    2    3 2    
     6    2    4 am   BACKBONE|DICT|INTERRES
     7    4    5 1    
     8    4  130 1    
     9    5    6 1    
    10    5   65 1    
    11    5  131 1    
    12    6    7 1    
    13    6  132 1    
    14    6  133 1    
    15    7    8 1    
    16    8    9 1    
    17    8  134 1    
    18    8  135 1    
    19    9   10 ar   
    20    9   14 ar   
    21   10   11 ar   
    22   10  136 1    
    23   11   12 ar   
    24   11  126 1    
    25   12   13 ar   
    26   12  137 1    
    27   13   14 ar   
    28   13   15 1    
    29   14  138 1    
    30   15   16 1    
    31   15  139 1    
    32   15  140 1    
    33   16   17 1    
    34   17   18 1    
    35   17  141 1    
    36   17  142 1    
    37   18   19 1    
    38   18   67 1    
    39   18  143 1    
    40   19   20 am   BACKBONE|DICT|INTERRES
    41   19  144 1    
    42   20   21 2    
    43   20   22 1    
    44   22   23 1    
    45   22   24 1    
    46   22  145 1    
    47   23  146 1    
    48   23  147 1    
    49   23  148 1    
    50   24   25 am   BACKBONE|DICT|INTERRES
    51   24  149 1    
    52   25   26 2    
    53   25   27 1    
    54   27   28 1    
    55   27   29 1    
    56   27  150 1    
    57   28  151 1    
    58   28  152 1    
    59   28  153 1    
    60   29   30 am   BACKBONE|DICT|INTERRES
    61   29  154 1    
    62   30   31 2    
    63   30   32 1    
    64   32   33 1    
    65   32   34 1    
    66   32  155 1    
    67   33  156 1    
    68   33  157 1    
    69   33  158 1    
    70   34   35 am   BACKBONE|DICT|INTERRES
    71   34  159 1    
    72   35   36 2    
    73   35   37 1    
    74   37   38 1    
    75   37   39 1    
    76   37  160 1    
    77   38  161 1    
    78   38  162 1    
    79   38  163 1    
    80   39   40 am   BACKBONE|DICT|INTERRES
    81   39  164 1    
    82   40   41 2    
    83   40   42 1    
    84   42   43 1    
    85   42   44 1    
    86   42  165 1    
    87   43  166 1    
    88   43  167 1    
    89   43  168 1    
    90   44   45 am   BACKBONE|DICT|INTERRES
    91   44  169 1    
    92   45   46 2    
    93   45   47 1    
    94   47   48 1    
    95   47   49 1    
    96   47  170 1    
    97   48  171 1    
    98   48  172 1    
    99   48  173 1    
   100   49   50 am   BACKBONE|DICT|INTERRES
   101   49  174 1    
   102   50   51 2    
   103   50   52 1    
   104   52   53 1    
   105   52   54 1    
   106   52  175 1    
   107   53  176 1    
   108   53  177 1    
   109   53  178 1    
   110   54   55 am   BACKBONE|DICT|INTERRES
   111   54  179 1    
   112   55   56 2    
   113   55   57 1    
   114   57   58 1    
   115   57   59 1    
   116   57  180 1    
   117   58  181 1    
   118   58  182 1    
   119   58  183 1    
   120   59   60 am   BACKBONE|DICT|INTERRES
   121   59  184 1    
   122   60   61 2    
   123   60   62 1    
   124   62   63 1    
   125   62   64 1    
   126   62  185 1    
   127   63  186 1    
   128   63  187 1    
   129   63  188 1    
   130   64   65 am   BACKBONE|DICT|INTERRES
   131   64  189 1    
   132   65   66 2    
   133   67   68 2    
   134   67   69 am   BACKBONE|DICT|INTERRES
   135   69   70 1    
   136   69  190 1    
   137   70   71 1    
   138   70   72 1    
   139   70  191 1    
   140   71  192 1    
   141   71  193 1    
   142   71  194 1    
   143   72   73 2    
   144   72   74 am   BACKBONE|DICT|INTERRES
   145   74   75 1    
   146   74  195 1    
   147   75   76 1    
   148   75   77 1    
   149   75  196 1    
   150   76  197 1    
   151   76  198 1    
   152   76  199 1    
   153   77   78 2    
   154   77   79 am   BACKBONE|DICT|INTERRES
   155   79   80 1    
   156   79  200 1    
   157   80   81 1    
   158   80   82 1    
   159   80  201 1    
   160   81  202 1    
   161   81  203 1    
   162   81  204 1    
   163   82   83 2    
   164   82   84 am   BACKBONE|DICT|INTERRES
   165   84   85 1    
   166   84  205 1    
   167   85   86 1    
   168   85   87 1    
   169   85  206 1    
   170   86  207 1    
   171   86  208 1    
   172   86  209 1    
   173   87   88 2    
   174   87   89 am   BACKBONE|DICT|INTERRES
   175   89   90 1    
   176   89  210 1    
   177   90   91 1    
   178   90   92 1    
   179   90  211 1    
   180   91  212 1    
   181   91  213 1    
   182   91  214 1    
   183   92   93 2    
   184   92   94 am   BACKBONE|DICT|INTERRES
   185   94   95 1    
   186   94  215 1    
   187   95   96 1    
   188   95   97 1    
   189   95  216 1    
   190   96  217 1    
   191   96  218 1    
   192   96  219 1    
   193   97   98 2    
   194   97   99 am   BACKBONE|DICT|INTERRES
   195   99  100 1    
   196   99  220 1    
   197  100  101 1    
   198  100  102 1    
   199  100  221 1    
   200  101  222 1    
   201  101  223 1    
   202  101  224 1    
   203  102  103 2    
   204  102  104 am   BACKBONE|DICT|INTERRES
   205  104  105 1    
   206  104  225 1    
   207  105  106 1    
   208  105  107 1    
   209  105  226 1    
   210  106  227 1    
   211  106  228 1    
   212  106  229 1    
   213  107  108 2    
   214  107  109 am   BACKBONE|DICT|INTERRES
   215  109  110 1    
   216  109  230 1    
   217  110  111 1    
   218  110  112 1    
   219  110  231 1    
   220  111  232 1    
   221  111  233 1    
   222  111  234 1    
   223  112  113 2    
   224  112  114 am   BACKBONE|DICT|INTERRES
   225  114  115 1    
   226  114  235 1    
   227  115  116 1    
   228  115  117 1    
   229  115  236 1    
   230  116  237 1    
   231  116  238 1    
   232  116  239 1    
   233  117  118 2    
   234  117  119 am   BACKBONE|DICT|INTERRES
   235  119  120 1    
   236  119  240 1    
   237  120  121 1    
   238  120  124 1    
   239  120  241 1    
   240  121  122 am   BACKBONE|DICT|INTERRES
   241  121  123 2    
   242  122  242 1    
   243  122  243 1    
   244  124  125 1    
   245  124  244 1    
   246  124  245 1    
   247  125  126 1    
   248  126  246 1    
   249  126  247 1    
@<TRIPOS>SUBSTRUCTURE
     1 UNK         1 GROUP             0       ****    0 ROOT    
