@<TRIPOS>MOLECULE
3R540
247   249    1
SMALL
USER_CHARGES


@<TRIPOS>ATOM
      1 CA         -1.0654  -11.6900  -44.3168 C.3       0 UNK        -0.1800 
      2 C           0.0810  -11.1931  -45.1847 C.2       0 UNK         0.5000 
      3 O           0.9924  -10.5372  -44.6804 O.2       0 UNK        -0.5000 
      4 N           0.0525  -11.5137  -46.4856 N.am      1 UNK        -0.5000 
      5 CA          1.0418  -11.0873  -47.4875 C.3       1 UNK         0.1400 
      6 C6          0.5601  -11.3663  -48.9330 C.3       23 UNK        -0.0398 
      7 S7          0.2233  -13.1278  -49.2943 S.3       23 UNK        -0.2404 
      8 C8          1.6979  -13.5506  -50.2715 C.3       23 UNK        -0.0205 
      9 C9          1.6390  -14.9814  -50.7782 C.ar      23 UNK        -0.0193 
     10 C10         1.0821  -15.2607  -52.0290 C.ar      23 UNK        -0.1150 
     11 C11         1.0599  -16.5686  -52.5213 C.ar      23 UNK        -0.0193 
     12 C12         1.5895  -17.6020  -51.7425 C.ar      23 UNK        -0.1150 
     13 C13         2.1243  -17.3425  -50.4768 C.ar      23 UNK        -0.0193 
     14 C14         2.1598  -16.0242  -50.0078 C.ar      23 UNK        -0.1150 
     15 C15         2.6814  -18.4946  -49.6452 C.3       23 UNK        -0.0205 
     16 S16         2.2223  -18.4285  -47.8805 S.3       23 UNK        -0.2404 
     17 C17         0.4023  -18.5597  -47.9354 C.3       23 UNK        -0.0398 
     18 CA         -0.1178  -19.9768  -47.5934 C.3       11 UNK         0.1400 
     19 N           0.2441  -20.4190  -46.2410 N.am      11 UNK        -0.5000 
     20 C           0.0347  -21.6548  -45.7633 C.2       10 UNK         0.5000 
     21 O          -0.4376  -22.5734  -46.4330 O.2       10 UNK        -0.5000 
     22 CA          0.3477  -21.8964  -44.2749 C.3       10 UNK         0.1400 
     23 CB          1.8471  -22.1436  -44.0512 C.3       10 UNK        -0.1800 
     24 N          -0.1180  -20.8026  -43.4205 N.am      10 UNK        -0.5000 
     25 C          -1.4099  -20.4923  -43.2385 C.2       9 UNK         0.5000 
     26 O          -2.3383  -21.1289  -43.7345 O.2       9 UNK        -0.5000 
     27 CA         -1.7252  -19.2408  -42.3999 C.3       9 UNK         0.1400 
     28 CB         -1.6854  -19.5676  -40.9000 C.3       9 UNK        -0.1800 
     29 N          -0.8267  -18.1235  -42.6880 N.am      9 UNK        -0.5000 
     30 C          -0.7290  -17.5112  -43.8769 C.2       8 UNK         0.5000 
     31 O          -1.4349  -17.7832  -44.8477 O.2       8 UNK        -0.5000 
     32 CA          0.3902  -16.4652  -44.0283 C.3       8 UNK         0.1400 
     33 CB         -0.0389  -15.1068  -43.4570 C.3       8 UNK        -0.1800 
     34 N           1.6448  -16.8870  -43.4049 N.am      8 UNK        -0.5000 
     35 C           2.3359  -17.9795  -43.7604 C.2       7 UNK         0.5000 
     36 O           1.9869  -18.7464  -44.6542 O.2       7 UNK        -0.5000 
     37 CA          3.5903  -18.3061  -42.9374 C.3       7 UNK         0.1400 
     38 CB          4.7708  -17.4148  -43.3481 C.3       7 UNK        -0.1800 
     39 N           3.3339  -18.1715  -41.5052 N.am      7 UNK        -0.5000 
     40 C           2.5540  -19.0054  -40.8024 C.2       6 UNK         0.5000 
     41 O           2.0129  -20.0033  -41.2794 O.2       6 UNK        -0.5000 
     42 CA          2.3081  -18.6378  -39.3281 C.3       6 UNK         0.1400 
     43 CB          3.4513  -19.1548  -38.4421 C.3       6 UNK        -0.1800 
     44 N           2.1513  -17.1961  -39.1270 N.am      6 UNK        -0.5000 
     45 C           1.1236  -16.4759  -39.5980 C.2       5 UNK         0.5000 
     46 O           0.1883  -16.9547  -40.2375 O.2       5 UNK        -0.5000 
     47 CA          1.1725  -14.9583  -39.3505 C.3       5 UNK         0.1400 
     48 CB          0.6067  -14.6176  -37.9639 C.3       5 UNK        -0.1800 
     49 N           2.5160  -14.3882  -39.4830 N.am      5 UNK        -0.5000 
     50 C           3.2324  -14.3899  -40.6142 C.2       4 UNK         0.5000 
     51 O           2.8702  -14.9421  -41.6559 O.2       4 UNK        -0.5000 
     52 CA          4.5874  -13.6659  -40.5751 C.3       4 UNK         0.1400 
     53 CB          5.7496  -14.6688  -40.6239 C.3       4 UNK        -0.1800 
     54 N           4.6900  -12.7495  -41.7062 N.am      4 UNK        -0.5000 
     55 C           4.0604  -11.5723  -41.7878 C.2       3 UNK         0.5000 
     56 O           3.4271  -11.0748  -40.8556 O.2       3 UNK        -0.5000 
     57 CA          4.1231  -10.8314  -43.1355 C.3       3 UNK         0.1400 
     58 CB          5.4735  -10.1154  -43.3307 C.3       3 UNK        -0.1800 
     59 N           3.7694  -11.6662  -44.2904 N.am      3 UNK        -0.5000 
     60 C           4.4476  -12.6802  -44.8519 C.2       2 UNK         0.5000 
     61 O           5.5326  -13.0863  -44.4334 O.2       2 UNK        -0.5000 
     62 CA          3.8055  -13.3843  -46.0686 C.3       2 UNK         0.1400 
     63 CB          3.5250  -14.8604  -45.7530 C.3       2 UNK        -0.1800 
     64 N           2.5562  -12.7611  -46.5074 N.am      2 UNK        -0.5000 
     65 C           2.4635  -11.6424  -47.2393 C.2       1 UNK         0.5000 
     66 O           3.4383  -11.0407  -47.6907 O.2       1 UNK        -0.5000 
     67 C          -1.6403  -20.0602  -47.8295 C.2       11 UNK         0.5000 
     68 O          -2.0611  -20.5547  -48.8753 O.2       11 UNK        -0.5000 
     69 N          -2.4368  -19.6154  -46.8460 N.am      12 UNK        -0.5000 
     70 CA         -3.8983  -19.6916  -46.8632 C.3       12 UNK         0.1400 
     71 CB         -4.4750  -18.9006  -45.6800 C.3       12 UNK        -0.1800 
     72 C          -4.4207  -21.1393  -46.8625 C.2       12 UNK         0.5000 
     73 O          -5.3349  -21.4500  -47.6252 O.2       12 UNK        -0.5000 
     74 N          -3.8114  -22.0084  -46.0436 N.am      13 UNK        -0.5000 
     75 CA         -4.1042  -23.4418  -45.9938 C.3       13 UNK         0.1400 
     76 CB         -3.3536  -24.0884  -44.8204 C.3       13 UNK        -0.1800 
     77 C          -3.7734  -24.1545  -47.3166 C.2       13 UNK         0.5000 
     78 O          -4.5737  -24.9642  -47.7846 O.2       13 UNK        -0.5000 
     79 N          -2.6292  -23.8062  -47.9217 N.am      14 UNK        -0.5000 
     80 CA         -2.2192  -24.2829  -49.2415 C.3       14 UNK         0.1400 
     81 CB         -0.7743  -23.8483  -49.5282 C.3       14 UNK        -0.1800 
     82 C          -3.1722  -23.8151  -50.3559 C.2       14 UNK         0.5000 
     83 O          -3.5387  -24.6209  -51.2087 O.2       14 UNK        -0.5000 
     84 N          -3.5886  -22.5413  -50.3104 N.am      15 UNK        -0.5000 
     85 CA         -4.5576  -21.9517  -51.2382 C.3       15 UNK         0.1400 
     86 CB         -4.6343  -20.4347  -51.0060 C.3       15 UNK        -0.1800 
     87 C          -5.9567  -22.5883  -51.1344 C.2       15 UNK         0.5000 
     88 O          -6.6258  -22.7504  -52.1536 O.2       15 UNK        -0.5000 
     89 N          -6.3669  -22.9553  -49.9124 N.am      16 UNK        -0.5000 
     90 CA         -7.6078  -23.6801  -49.6400 C.3       16 UNK         0.1400 
     91 CB         -7.9193  -23.6139  -48.1371 C.3       16 UNK        -0.1800 
     92 C          -7.5617  -25.1417  -50.1264 C.2       16 UNK         0.5000 
     93 O          -8.5803  -25.6550  -50.5911 O.2       16 UNK        -0.5000 
     94 N          -6.3912  -25.7849  -50.0102 N.am      17 UNK        -0.5000 
     95 CA         -6.1432  -27.1481  -50.4814 C.3       17 UNK         0.1400 
     96 CB         -4.8635  -27.6893  -49.8255 C.3       17 UNK        -0.1800 
     97 C          -6.0520  -27.2437  -52.0167 C.2       17 UNK         0.5000 
     98 O          -6.5056  -28.2366  -52.5884 O.2       17 UNK        -0.5000 
     99 N          -5.4659  -26.2209  -52.6534 N.am      18 UNK        -0.5000 
    100 CA        -5.3402  -26.0840  -54.1043 C.3       18 UNK         0.1400 
    101 CB        -4.4347  -24.8806  -54.4143 C.3       18 UNK        -0.1800 
    102 C         -6.7021  -25.9229  -54.8080 C.2       18 UNK         0.5000 
    103 O         -7.6457  -25.3839  -54.2253 O.2       18 UNK        -0.5000 
    104 N         -6.7695  -26.3709  -56.0687 N.am      19 UNK        -0.5000 
    105 CA        -7.9547  -26.2506  -56.9236 C.3       19 UNK         0.1400 
    106 CB        -7.7937  -27.1741  -58.1411 C.3       19 UNK        -0.1800 
    107 C         -8.2250  -24.8020  -57.3765 C.2       19 UNK         0.5000 
    108 O         -9.3834  -24.4312  -57.5710 O.2       19 UNK        -0.5000 
    109 N         -7.1554  -24.0134  -57.5231 N.am      20 UNK        -0.5000 
    110 CA        -7.1616  -22.5980  -57.8690 C.3       20 UNK         0.1400 
    111 CB        -7.4441  -22.4153  -59.3723 C.3       20 UNK        -0.1800 
    112 C         -5.7950  -22.0093  -57.4918 C.2       20 UNK         0.5000 
    113 O         -4.8113  -22.7530  -57.4322 O.2       20 UNK        -0.5000 
    114 N         -5.7640  -20.6875  -57.2739 N.am      21 UNK        -0.5000 
    115 CA        -4.5994  -19.8826  -56.8838 C.3       21 UNK         0.1400 
    116 CB        -3.5500  -19.8617  -58.0189 C.3       21 UNK        -0.1800 
    117 C         -4.0149  -20.2898  -55.5107 C.2       21 UNK         0.5000 
    118 O         -4.7283  -20.8607  -54.6825 O.2       21 UNK        -0.5000 
    119 N         -2.7463  -19.9404  -55.2711 N.am      22 UNK        -0.5000 
    120 CA        -1.9984  -20.2849  -54.0534 C.3       22 UNK         0.1400 
    121 C         -1.5769  -21.7811  -54.0089 C.2       22 UNK         0.5000 
    122 N         -1.2815  -22.3069  -52.8288 N.am      22 UNK        -0.7600 
    123 O         -1.4615  -22.4556  -55.0296 O.2       22 UNK        -0.5000 
    124 C124       -0.7615  -19.3734  -53.8560 C.3       23 UNK        -0.0398 
    125 S125       -1.1713  -17.5945  -53.8256 S.3       23 UNK        -0.2404 
    126 C126        0.4903  -16.8523  -53.9046 C.3       23 UNK        -0.0205 
    127 H127       -1.6880  -12.4133  -44.8438 H         1 UNK         0.0600 
    128 H128       -1.6944  -10.8528  -44.0147 H         1 UNK         0.0600 
    129 H129       -0.6773  -12.1655  -43.4162 H         1 UNK         0.0600 
    130 H130       -0.7117  -12.0692  -46.8445 H         1 UNK         0.3000 
    131 H131        1.1283  -10.0029  -47.3894 H         1 UNK         0.0600 
    132 H132        1.2738  -10.9672  -49.6560 H         1 UNK         0.0800 
    133 H133       -0.3635  -10.8146  -49.1132 H         1 UNK         0.0800 
    134 H134        1.7858  -12.8638  -51.1149 H         1 UNK         0.0800 
    135 H135        2.5936  -13.4097  -49.6648 H         1 UNK         0.0800 
    136 H136        0.6777  -14.4546  -52.6253 H         1 UNK         0.1150 
    137 H137        1.5897  -18.6122  -52.1241 H         1 UNK         0.1150 
    138 H138        2.5898  -15.8080  -49.0401 H         1 UNK         0.1150 
    139 H139        2.3544  -19.4544  -50.0484 H         1 UNK         0.0800 
    140 H140        3.7691  -18.4818  -49.7225 H         1 UNK         0.0800 
    141 H141        0.0538  -18.2532  -48.9232 H         1 UNK         0.0800 
    142 H142       -0.0040  -17.8278  -47.2357 H         1 UNK         0.0800 
    143 H143        0.3480  -20.6754  -48.2917 H         1 UNK         0.0600 
    144 H144        0.7017  -19.7340  -45.6437 H         1 UNK         0.3000 
    145 H145       -0.1843  -22.8001  -43.9705 H         1 UNK         0.0600 
    146 H146        2.0585  -22.3605  -43.0040 H         1 UNK         0.0600 
    147 H147        2.1905  -22.9972  -44.6366 H         1 UNK         0.0600 
    148 H148        2.4512  -21.2852  -44.3425 H         1 UNK         0.0600 
    149 H149        0.5932  -20.2424  -42.9662 H         1 UNK         0.3000 
    150 H150       -2.7392  -18.9224  -42.6493 H         1 UNK         0.0600 
    151 H151       -2.3541  -20.3959  -40.6622 H         1 UNK         0.0600 
    152 H152       -2.0023  -18.7127  -40.3025 H         1 UNK         0.0600 
    153 H153       -0.6835  -19.8494  -40.5753 H         1 UNK         0.0600 
    154 H154       -0.2462  -17.7986  -41.9198 H         1 UNK         0.3000 
    155 H155        0.5808  -16.3391  -45.0962 H         1 UNK         0.0600 
    156 H156       -0.2258  -15.1627  -42.3846 H         1 UNK         0.0600 
    157 H157       -0.9561  -14.7582  -43.9328 H         1 UNK         0.0600 
    158 H158        0.7266  -14.3486  -43.6231 H         1 UNK         0.0600 
    159 H159        2.0162  -16.2879  -42.6718 H         1 UNK         0.3000 
    160 H160        3.8656  -19.3437  -43.1390 H         1 UNK         0.0600 
    161 H161        4.5429  -16.3566  -43.2224 H         1 UNK         0.0600 
    162 H162        5.0239  -17.5710  -44.3973 H         1 UNK         0.0600 
    163 H163        5.6615  -17.6408  -42.7619 H         1 UNK         0.0600 
    164 H164        3.6948  -17.3455  -41.0523 H         1 UNK         0.3000 
    165 H165        1.3838  -19.1271  -39.0135 H         1 UNK         0.0600 
    166 H166        3.2486  -18.9667  -37.3876 H         1 UNK         0.0600 
    167 H167        3.5793  -20.2317  -38.5602 H         1 UNK         0.0600 
    168 H168        4.4019  -18.6817  -38.6915 H         1 UNK         0.0600 
    169 H169        2.8789  -16.7212  -38.6135 H         1 UNK         0.3000 
    170 H170        0.5371  -14.4835  -40.1009 H         1 UNK         0.0600 
    171 H171       -0.4020  -15.0159  -37.8455 H         1 UNK         0.0600 
    172 H172        1.2200  -15.0337  -37.1637 H         1 UNK         0.0600 
    173 H173        0.5475  -13.5391  -37.8162 H         1 UNK         0.0600 
    174 H174        2.8833  -13.9126  -38.6714 H         1 UNK         0.3000 
    175 H175        4.6664  -13.0955  -39.6471 H         1 UNK         0.0600 
    176 H176        5.6787  -15.3928  -39.8112 H         1 UNK         0.0600 
    177 H177        5.7666  -15.2240  -41.5612 H         1 UNK         0.0600 
    178 H178        6.7086  -14.1604  -40.5235 H         1 UNK         0.0600 
    179 H179        5.1452  -13.0955  -42.5456 H         1 UNK         0.3000 
    180 H180        3.3544  -10.0578  -43.0985 H         1 UNK         0.0600 
    181 H181        6.3117  -10.8123  -43.3432 H         1 UNK         0.0600 
    182 H182        5.6551   -9.4070  -42.5216 H         1 UNK         0.0600 
    183 H183        5.4896   -9.5535  -44.2646 H         1 UNK         0.0600 
    184 H184        2.8629  -11.4420  -44.6860 H         1 UNK         0.3000 
    185 H185        4.5241  -13.3421  -46.8896 H         1 UNK         0.0600 
    186 H186        4.4526  -15.3971  -45.5537 H         1 UNK         0.0600 
    187 H187        2.8912  -14.9602  -44.8730 H         1 UNK         0.0600 
    188 H188        3.0327  -15.3651  -46.5846 H         1 UNK         0.0600 
    189 H189        1.6995  -13.1873  -46.1864 H         1 UNK         0.3000 
    190 H190       -2.0157  -19.1737  -46.0329 H         1 UNK         0.3000 
    191 H191       -4.2426  -19.2173  -47.7843 H         1 UNK         0.0600 
    192 H192       -4.1474  -19.3084  -44.7238 H         1 UNK         0.0600 
    193 H193       -5.5654  -18.9223  -45.6904 H         1 UNK         0.0600 
    194 H194       -4.1697  -17.8549  -45.7192 H         1 UNK         0.0600 
    195 H195       -3.1064  -21.6649  -45.3967 H         1 UNK         0.3000 
    196 H196       -5.1752  -23.5564  -45.8148 H         1 UNK         0.0600 
    197 H197       -3.5708  -25.1554  -44.7583 H         1 UNK         0.0600 
    198 H198       -3.6474  -23.6407  -43.8709 H         1 UNK         0.0600 
    199 H199       -2.2738  -23.9778  -44.9219 H         1 UNK         0.0600 
    200 H200       -1.9950  -23.1695  -47.4474 H         1 UNK         0.3000 
    201 H201       -2.2437  -25.3744  -49.2219 H         1 UNK         0.0600 
    202 H202       -0.0906  -24.2366  -48.7730 H         1 UNK         0.0600 
    203 H203       -0.6714  -22.7635  -49.5424 H         1 UNK         0.0600 
    204 H204       -0.4378  -24.2250  -50.4946 H         1 UNK         0.0600 
    205 H205       -3.2055  -21.9245  -49.5992 H         1 UNK         0.3000 
    206 H206       -4.1920  -22.1248  -52.2521 H         1 UNK         0.0600 
    207 H207       -3.6515  -19.9693  -51.0727 H         1 UNK         0.0600 
    208 H208       -5.2710  -19.9613  -51.7543 H         1 UNK         0.0600 
    209 H209       -5.0468  -20.1976  -50.0254 H         1 UNK         0.0600 
    210 H210       -5.7944  -22.7078  -49.1114 H         1 UNK         0.3000 
    211 H211       -8.4175  -23.1784  -50.1740 H         1 UNK         0.0600 
    212 H212       -7.1383  -24.0868  -47.5415 H         1 UNK         0.0600 
    213 H213       -8.8579  -24.1209  -47.9103 H         1 UNK         0.0600 
    214 H214       -8.0167  -22.5817  -47.8002 H         1 UNK         0.0600 
    215 H215       -5.6197  -25.3131  -49.5515 H         1 UNK         0.3000 
    216 H216       -6.9762  -27.7764  -50.1594 H         1 UNK         0.0600 
    217 H217       -3.9897  -27.0961  -50.0959 H         1 UNK         0.0600 
    218 H218       -4.6711  -28.7174  -50.1344 H         1 UNK         0.0600 
    219 H219       -4.9460  -27.6856  -48.7384 H         1 UNK         0.0600 
    220 H220       -5.0647  -25.4733  -52.0962 H         1 UNK         0.3000 
    221 H221       -4.8586  -26.9882  -54.4819 H         1 UNK         0.0600 
    222 H222       -3.4499  -24.9962  -53.9612 H         1 UNK         0.0600 
    223 H223       -4.8637  -23.9481  -54.0450 H         1 UNK         0.0600 
    224 H224       -4.2828  -24.7659  -55.4880 H         1 UNK         0.0600 
    225 H225       -5.9565  -26.8038  -56.4832 H         1 UNK         0.3000 
    226 H226       -8.8240  -26.5872  -56.3545 H         1 UNK         0.0600 
    227 H227       -7.6741  -28.2136  -57.8351 H         1 UNK         0.0600 
    228 H228       -8.6721  -27.1255  -58.7860 H         1 UNK         0.0600 
    229 H229       -6.9281  -26.8987  -58.7448 H         1 UNK         0.0600 
    230 H230       -6.2332  -24.3776  -57.3183 H         1 UNK         0.3000 
    231 H231       -7.9331  -22.0937  -57.2833 H         1 UNK         0.0600 
    232 H232       -6.7020  -22.9302  -59.9836 H         1 UNK         0.0600 
    233 H233       -7.4240  -21.3608  -59.6497 H         1 UNK         0.0600 
    234 H234       -8.4268  -22.8005  -59.6441 H         1 UNK         0.0600 
    235 H235       -6.6350  -20.1783  -57.3259 H         1 UNK         0.3000 
    236 H236       -4.9700  -18.8641  -56.7607 H         1 UNK         0.0600 
    237 H237       -2.7989  -19.0887  -57.8543 H         1 UNK         0.0600 
    238 H238       -3.0293  -20.8160  -58.1073 H         1 UNK         0.0600 
    239 H239       -4.0165  -19.6478  -58.9807 H         1 UNK         0.0600 
    240 H240       -2.2212  -19.4774  -55.9972 H         1 UNK         0.3000 
    241 H241       -2.6669  -20.1175  -53.2082 H         1 UNK         0.0600 
    242 H242       -0.9906  -23.2705  -52.7960 H         1 UNK         0.3800 
    243 H243       -1.3528  -21.7754  -51.9764 H         1 UNK         0.3800 
    244 H244       -0.0314  -19.5542  -54.6470 H         1 UNK         0.0800 
    245 H245       -0.2683  -19.6187  -52.9154 H         1 UNK         0.0800 
    246 H246        1.1717  -17.4965  -54.4619 H         1 UNK         0.0800 
    247 H247        0.4233  -15.9260  -54.4773 H         1 UNK         0.0800 
@<TRIPOS>BOND
     1    1    2 1    
     2    1  127 1    
     3    1  128 1    
     4    1  129 1    
     5    2    3 2    
     6    2    4 am   BACKBONE|DICT|INTERRES
     7    4    5 1    
     8    4  130 1    
     9    5    6 1    
    10    5   65 1    
    11    5  131 1    
    12    6    7 1    
    13    6  132 1    
    14    6  133 1    
    15    7    8 1    
    16    8    9 1    
    17    8  134 1    
    18    8  135 1    
    19    9   10 ar   
    20    9   14 ar   
    21   10   11 ar   
    22   10  136 1    
    23   11   12 ar   
    24   11  126 1    
    25   12   13 ar   
    26   12  137 1    
    27   13   14 ar   
    28   13   15 1    
    29   14  138 1    
    30   15   16 1    
    31   15  139 1    
    32   15  140 1    
    33   16   17 1    
    34   17   18 1    
    35   17  141 1    
    36   17  142 1    
    37   18   19 1    
    38   18   67 1    
    39   18  143 1    
    40   19   20 am   BACKBONE|DICT|INTERRES
    41   19  144 1    
    42   20   21 2    
    43   20   22 1    
    44   22   23 1    
    45   22   24 1    
    46   22  145 1    
    47   23  146 1    
    48   23  147 1    
    49   23  148 1    
    50   24   25 am   BACKBONE|DICT|INTERRES
    51   24  149 1    
    52   25   26 2    
    53   25   27 1    
    54   27   28 1    
    55   27   29 1    
    56   27  150 1    
    57   28  151 1    
    58   28  152 1    
    59   28  153 1    
    60   29   30 am   BACKBONE|DICT|INTERRES
    61   29  154 1    
    62   30   31 2    
    63   30   32 1    
    64   32   33 1    
    65   32   34 1    
    66   32  155 1    
    67   33  156 1    
    68   33  157 1    
    69   33  158 1    
    70   34   35 am   BACKBONE|DICT|INTERRES
    71   34  159 1    
    72   35   36 2    
    73   35   37 1    
    74   37   38 1    
    75   37   39 1    
    76   37  160 1    
    77   38  161 1    
    78   38  162 1    
    79   38  163 1    
    80   39   40 am   BACKBONE|DICT|INTERRES
    81   39  164 1    
    82   40   41 2    
    83   40   42 1    
    84   42   43 1    
    85   42   44 1    
    86   42  165 1    
    87   43  166 1    
    88   43  167 1    
    89   43  168 1    
    90   44   45 am   BACKBONE|DICT|INTERRES
    91   44  169 1    
    92   45   46 2    
    93   45   47 1    
    94   47   48 1    
    95   47   49 1    
    96   47  170 1    
    97   48  171 1    
    98   48  172 1    
    99   48  173 1    
   100   49   50 am   BACKBONE|DICT|INTERRES
   101   49  174 1    
   102   50   51 2    
   103   50   52 1    
   104   52   53 1    
   105   52   54 1    
   106   52  175 1    
   107   53  176 1    
   108   53  177 1    
   109   53  178 1    
   110   54   55 am   BACKBONE|DICT|INTERRES
   111   54  179 1    
   112   55   56 2    
   113   55   57 1    
   114   57   58 1    
   115   57   59 1    
   116   57  180 1    
   117   58  181 1    
   118   58  182 1    
   119   58  183 1    
   120   59   60 am   BACKBONE|DICT|INTERRES
   121   59  184 1    
   122   60   61 2    
   123   60   62 1    
   124   62   63 1    
   125   62   64 1    
   126   62  185 1    
   127   63  186 1    
   128   63  187 1    
   129   63  188 1    
   130   64   65 am   BACKBONE|DICT|INTERRES
   131   64  189 1    
   132   65   66 2    
   133   67   68 2    
   134   67   69 am   BACKBONE|DICT|INTERRES
   135   69   70 1    
   136   69  190 1    
   137   70   71 1    
   138   70   72 1    
   139   70  191 1    
   140   71  192 1    
   141   71  193 1    
   142   71  194 1    
   143   72   73 2    
   144   72   74 am   BACKBONE|DICT|INTERRES
   145   74   75 1    
   146   74  195 1    
   147   75   76 1    
   148   75   77 1    
   149   75  196 1    
   150   76  197 1    
   151   76  198 1    
   152   76  199 1    
   153   77   78 2    
   154   77   79 am   BACKBONE|DICT|INTERRES
   155   79   80 1    
   156   79  200 1    
   157   80   81 1    
   158   80   82 1    
   159   80  201 1    
   160   81  202 1    
   161   81  203 1    
   162   81  204 1    
   163   82   83 2    
   164   82   84 am   BACKBONE|DICT|INTERRES
   165   84   85 1    
   166   84  205 1    
   167   85   86 1    
   168   85   87 1    
   169   85  206 1    
   170   86  207 1    
   171   86  208 1    
   172   86  209 1    
   173   87   88 2    
   174   87   89 am   BACKBONE|DICT|INTERRES
   175   89   90 1    
   176   89  210 1    
   177   90   91 1    
   178   90   92 1    
   179   90  211 1    
   180   91  212 1    
   181   91  213 1    
   182   91  214 1    
   183   92   93 2    
   184   92   94 am   BACKBONE|DICT|INTERRES
   185   94   95 1    
   186   94  215 1    
   187   95   96 1    
   188   95   97 1    
   189   95  216 1    
   190   96  217 1    
   191   96  218 1    
   192   96  219 1    
   193   97   98 2    
   194   97   99 am   BACKBONE|DICT|INTERRES
   195   99  100 1    
   196   99  220 1    
   197  100  101 1    
   198  100  102 1    
   199  100  221 1    
   200  101  222 1    
   201  101  223 1    
   202  101  224 1    
   203  102  103 2    
   204  102  104 am   BACKBONE|DICT|INTERRES
   205  104  105 1    
   206  104  225 1    
   207  105  106 1    
   208  105  107 1    
   209  105  226 1    
   210  106  227 1    
   211  106  228 1    
   212  106  229 1    
   213  107  108 2    
   214  107  109 am   BACKBONE|DICT|INTERRES
   215  109  110 1    
   216  109  230 1    
   217  110  111 1    
   218  110  112 1    
   219  110  231 1    
   220  111  232 1    
   221  111  233 1    
   222  111  234 1    
   223  112  113 2    
   224  112  114 am   BACKBONE|DICT|INTERRES
   225  114  115 1    
   226  114  235 1    
   227  115  116 1    
   228  115  117 1    
   229  115  236 1    
   230  116  237 1    
   231  116  238 1    
   232  116  239 1    
   233  117  118 2    
   234  117  119 am   BACKBONE|DICT|INTERRES
   235  119  120 1    
   236  119  240 1    
   237  120  121 1    
   238  120  124 1    
   239  120  241 1    
   240  121  122 am   BACKBONE|DICT|INTERRES
   241  121  123 2    
   242  122  242 1    
   243  122  243 1    
   244  124  125 1    
   245  124  244 1    
   246  124  245 1    
   247  125  126 1    
   248  126  246 1    
   249  126  247 1    
@<TRIPOS>SUBSTRUCTURE
     1 UNK         1 GROUP             0       ****    0 ROOT    
