@<TRIPOS>MOLECULE
3R540
247   249    1
SMALL
USER_CHARGES


@<TRIPOS>ATOM
      1 CA          7.2796  -16.0734  -49.9682 C.3       0 UNK        -0.1800 
      2 C           5.9610  -16.5598  -49.3853 C.2       0 UNK         0.5000 
      3 O           4.9882  -15.8055  -49.3650 O.2       0 UNK        -0.5000 
      4 N           5.9286  -17.8134  -48.9119 N.am      1 UNK        -0.5000 
      5 CA          4.7975  -18.5385  -48.3066 C.3       1 UNK         0.1400 
      6 C6          3.5455  -18.6721  -49.2143 C.3       23 UNK        -0.0398 
      7 S7          3.8899  -19.4493  -50.8334 S.3       23 UNK        -0.2404 
      8 C8          3.7670  -18.0521  -52.0004 C.3       23 UNK        -0.0205 
      9 C9          2.3337  -17.5850  -52.2099 C.ar      23 UNK        -0.0193 
     10 C10         1.5454  -18.1468  -53.2192 C.ar      23 UNK        -0.1150 
     11 C11         0.2391  -17.6952  -53.4346 C.ar      23 UNK        -0.0193 
     12 C12        -0.2889  -16.6998  -52.6064 C.ar      23 UNK        -0.1150 
     13 C13         0.4829  -16.1452  -51.5830 C.ar      23 UNK        -0.0193 
     14 C14         1.8027  -16.5665  -51.4143 C.ar      23 UNK        -0.1150 
     15 C15        -0.0997  -15.0851  -50.6614 C.3       23 UNK        -0.0205 
     16 S16        -0.2313  -15.6730  -48.9410 S.3       23 UNK        -0.2404 
     17 C17        -1.4976  -16.9832  -49.0665 C.3       23 UNK        -0.0398 
     18 CA         -0.9842  -18.3605  -48.5765 C.3       11 UNK         0.1400 
     19 N          -0.7081  -18.3847  -47.1334 N.am      11 UNK        -0.5000 
     20 C          -0.1571  -19.4147  -46.4733 C.2       10 UNK         0.5000 
     21 O           0.2616  -20.4318  -47.0263 O.2       10 UNK        -0.5000 
     22 CA         -0.1239  -19.3285  -44.9340 C.3       10 UNK         0.1400 
     23 CB          1.0548  -18.4833  -44.4412 C.3       10 UNK        -0.1800 
     24 N          -1.3644  -18.8017  -44.3674 N.am      10 UNK        -0.5000 
     25 C          -2.5500  -19.4210  -44.4309 C.2       9 UNK         0.5000 
     26 O          -2.7153  -20.5268  -44.9405 O.2       9 UNK        -0.5000 
     27 CA         -3.7646  -18.6600  -43.8758 C.3       9 UNK         0.1400 
     28 CB         -3.8810  -18.8440  -42.3556 C.3       9 UNK        -0.1800 
     29 N          -3.7092  -17.2365  -44.2044 N.am      9 UNK        -0.5000 
     30 C          -3.8558  -16.7466  -45.4437 C.2       8 UNK         0.5000 
     31 O          -4.0959  -17.4425  -46.4310 O.2       8 UNK        -0.5000 
     32 CA         -3.6533  -15.2290  -45.6118 C.3       8 UNK         0.1400 
     33 CB         -4.9466  -14.4690  -45.2825 C.3       8 UNK        -0.1800 
     34 N          -2.5571  -14.7028  -44.7939 N.am      8 UNK        -0.5000 
     35 C          -1.2727  -15.0547  -44.9447 C.2       7 UNK         0.5000 
     36 O          -0.8840  -15.8749  -45.7720 O.2       7 UNK        -0.5000 
     37 CA         -0.2594  -14.4327  -43.9702 C.3       7 UNK         0.1400 
     38 CB          0.0984  -13.0016  -44.3973 C.3       7 UNK        -0.1800 
     39 N          -0.7056  -14.4264  -42.5766 N.am      7 UNK        -0.5000 
     40 C          -1.0721  -15.5027  -41.8691 C.2       6 UNK         0.5000 
     41 O          -1.1611  -16.6359  -42.3451 O.2       6 UNK        -0.5000 
     42 CA         -1.3313  -15.2641  -40.3684 C.3       6 UNK         0.1400 
     43 CB         -1.9728  -16.4796  -39.6764 C.3       6 UNK        -0.1800 
     44 N          -0.0746  -14.9458  -39.6930 N.am      6 UNK        -0.5000 
     45 C           0.5336  -13.7515  -39.7034 C.2       5 UNK         0.5000 
     46 O           0.0335  -12.7371  -40.1923 O.2       5 UNK        -0.5000 
     47 CA          1.9563  -13.6945  -39.1123 C.3       5 UNK         0.1400 
     48 CB          1.9077  -13.3168  -37.6241 C.3       5 UNK        -0.1800 
     49 N           2.6943  -14.9531  -39.2683 N.am      5 UNK        -0.5000 
     50 C           3.0783  -15.4683  -40.4444 C.2       4 UNK         0.5000 
     51 O           2.8742  -14.9236  -41.5323 O.2       4 UNK        -0.5000 
     52 CA          3.7495  -16.8517  -40.3907 C.3       4 UNK         0.1400 
     53 CB          2.6797  -17.9546  -40.3359 C.3       4 UNK        -0.1800 
     54 N           4.5872  -17.0707  -41.5671 N.am      4 UNK        -0.5000 
     55 C           5.8314  -16.5988  -41.7233 C.2       3 UNK         0.5000 
     56 O           6.4609  -16.0174  -40.8385 O.2       3 UNK        -0.5000 
     57 CA          6.4745  -16.8046  -43.1088 C.3       3 UNK         0.1400 
     58 CB          7.2464  -18.1318  -43.1579 C.3       3 UNK        -0.1800 
     59 N           5.4786  -16.7913  -44.1809 N.am      3 UNK        -0.5000 
     60 C           4.8770  -15.6923  -44.6511 C.2       2 UNK         0.5000 
     61 O           5.1989  -14.5492  -44.3226 O.2       2 UNK        -0.5000 
     62 CA          3.7295  -15.9247  -45.6555 C.3       2 UNK         0.1400 
     63 CB          3.0556  -14.6199  -46.1140 C.3       2 UNK        -0.1800 
     64 N           4.1485  -16.6743  -46.8385 N.am      2 UNK        -0.5000 
     65 C           4.4026  -17.9854  -46.9199 C.2       1 UNK         0.5000 
     66 O           4.3516  -18.7465  -45.9532 O.2       1 UNK        -0.5000 
     67 C          -1.9697  -19.4781  -48.9803 C.2       11 UNK         0.5000 
     68 O          -1.7335  -20.1603  -49.9765 O.2       11 UNK        -0.5000 
     69 N          -3.0317  -19.6792  -48.1848 N.am      12 UNK        -0.5000 
     70 CA         -4.0005  -20.7564  -48.3850 C.3       12 UNK         0.1400 
     71 CB         -5.2231  -20.5476  -47.4806 C.3       12 UNK        -0.1800 
     72 C          -3.3895  -22.1538  -48.1789 C.2       12 UNK         0.5000 
     73 O          -3.6118  -23.0384  -49.0062 O.2       12 UNK        -0.5000 
     74 N          -2.6107  -22.3250  -47.1014 N.am      13 UNK        -0.5000 
     75 CA         -1.9091  -23.5621  -46.7477 C.3       13 UNK         0.1400 
     76 CB         -1.2508  -23.4086  -45.3696 C.3       13 UNK        -0.1800 
     77 C          -0.8700  -23.9983  -47.7955 C.2       13 UNK         0.5000 
     78 O          -0.7190  -25.1974  -48.0305 O.2       13 UNK        -0.5000 
     79 N          -0.2160  -23.0264  -48.4478 N.am      14 UNK        -0.5000 
     80 CA          0.6930  -23.2436  -49.5772 C.3       14 UNK         0.1400 
     81 CB          1.4121  -21.9297  -49.9106 C.3       14 UNK        -0.1800 
     82 C          -0.0048  -23.8199  -50.8277 C.2       14 UNK         0.5000 
     83 O           0.6515  -24.4760  -51.6366 O.2       14 UNK        -0.5000 
     84 N          -1.3230  -23.6114  -50.9360 N.am      15 UNK        -0.5000 
     85 CA         -2.2084  -24.2009  -51.9382 C.3       15 UNK         0.1400 
     86 CB         -3.1018  -23.0928  -52.5147 C.3       15 UNK        -0.1800 
     87 C          -3.0262  -25.3613  -51.3325 C.2       15 UNK         0.5000 
     88 O          -4.1892  -25.5515  -51.6913 O.2       15 UNK        -0.5000 
     89 N          -2.4143  -26.1058  -50.3983 N.am      16 UNK        -0.5000 
     90 CA         -2.9295  -27.3059  -49.7266 C.3       16 UNK         0.1400 
     91 CB         -3.0519  -28.4685  -50.7337 C.3       16 UNK        -0.1800 
     92 C          -4.2309  -27.0771  -48.9268 C.2       16 UNK         0.5000 
     93 O          -5.0176  -28.0100  -48.7603 O.2       16 UNK        -0.5000 
     94 N          -4.4392  -25.8350  -48.4647 N.am      17 UNK        -0.5000 
     95 CA         -5.6183  -25.3195  -47.7587 C.3       17 UNK         0.1400 
     96 CB         -5.9036  -26.1082  -46.4640 C.3       17 UNK        -0.1800 
     97 C          -6.8686  -25.1667  -48.6516 C.2       17 UNK         0.5000 
     98 O          -7.9298  -24.8116  -48.1368 O.2       17 UNK        -0.5000 
     99 N          -6.7329  -25.3895  -49.9678 N.am      18 UNK        -0.5000 
    100 CA        -7.7889  -25.1570  -50.9557 C.3       18 UNK         0.1400 
    101 CB        -7.5457  -26.0539  -52.1791 C.3       18 UNK        -0.1800 
    102 C         -7.8663  -23.6782  -51.3789 C.2       18 UNK         0.5000 
    103 O         -8.9173  -23.2419  -51.8505 O.2       18 UNK        -0.5000 
    104 N         -6.7584  -22.9434  -51.1944 N.am      19 UNK        -0.5000 
    105 CA        -6.5295  -21.5385  -51.5354 C.3       19 UNK         0.1400 
    106 CB        -7.4786  -20.5974  -50.7662 C.3       19 UNK        -0.1800 
    107 C         -6.5322  -21.2896  -53.0523 C.2       19 UNK         0.5000 
    108 O         -5.4604  -21.1102  -53.6304 O.2       19 UNK        -0.5000 
    109 N         -7.7228  -21.2876  -53.6677 N.am      20 UNK        -0.5000 
    110 CA        -7.9810  -21.0282  -55.0871 C.3       20 UNK         0.1400 
    111 CB        -7.5372  -22.2422  -55.9343 C.3       20 UNK        -0.1800 
    112 C         -7.3638  -19.6834  -55.5302 C.2       20 UNK         0.5000 
    113 O         -7.7538  -18.6407  -55.0003 O.2       20 UNK        -0.5000 
    114 N         -6.3797  -19.7273  -56.4386 N.am      21 UNK        -0.5000 
    115 CA        -5.6037  -18.5760  -56.9076 C.3       21 UNK         0.1400 
    116 CB        -4.6858  -19.0302  -58.0529 C.3       21 UNK        -0.1800 
    117 C         -4.7801  -17.8780  -55.8045 C.2       21 UNK         0.5000 
    118 O         -4.4802  -16.6914  -55.9432 O.2       21 UNK        -0.5000 
    119 N         -4.4456  -18.6083  -54.7330 N.am      22 UNK        -0.5000 
    120 CA        -3.7748  -18.0859  -53.5337 C.3       22 UNK         0.1400 
    121 C         -4.7595  -17.5709  -52.4429 C.2       22 UNK         0.5000 
    122 N         -6.0709  -17.5767  -52.6585 N.am      22 UNK        -0.7600 
    123 O         -4.3235  -17.1374  -51.3806 O.2       22 UNK        -0.5000 
    124 C124       -2.7578  -19.0980  -52.9407 C.3       23 UNK        -0.0398 
    125 S125       -1.5306  -19.7393  -54.1342 S.3       23 UNK        -0.2404 
    126 C126       -0.5845  -18.2510  -54.5878 C.3       23 UNK        -0.0205 
    127 H127        8.0527  -16.8406  -49.9207 H         1 UNK         0.0600 
    128 H128        7.6321  -15.2000  -49.4198 H         1 UNK         0.0600 
    129 H129        7.1448  -15.7906  -51.0122 H         1 UNK         0.0600 
    130 H130        6.7814  -18.3535  -48.9575 H         1 UNK         0.3000 
    131 H131        5.1714  -19.5489  -48.1325 H         1 UNK         0.0600 
    132 H132        2.7925  -19.2876  -48.7189 H         1 UNK         0.0800 
    133 H133        3.0748  -17.7029  -49.3518 H         1 UNK         0.0800 
    134 H134        4.3858  -17.2231  -51.6597 H         1 UNK         0.0800 
    135 H135        4.1902  -18.3638  -52.9563 H         1 UNK         0.0800 
    136 H136        1.9552  -18.9231  -53.8501 H         1 UNK         0.1150 
    137 H137       -1.2996  -16.3515  -52.7602 H         1 UNK         0.1150 
    138 H138        2.4089  -16.1024  -50.6495 H         1 UNK         0.1150 
    139 H139        0.5419  -14.2033  -50.6841 H         1 UNK         0.0800 
    140 H140       -1.0823  -14.7596  -51.0068 H         1 UNK         0.0800 
    141 H141       -1.8327  -17.0467  -50.1029 H         1 UNK         0.0800 
    142 H142       -2.3707  -16.6732  -48.4906 H         1 UNK         0.0800 
    143 H143       -0.0426  -18.5699  -49.0898 H         1 UNK         0.0600 
    144 H144       -0.9523  -17.5447  -46.6130 H         1 UNK         0.3000 
    145 H145        0.0110  -20.3416  -44.5504 H         1 UNK         0.0600 
    146 H146        1.1116  -18.4850  -43.3532 H         1 UNK         0.0600 
    147 H147        1.9980  -18.8760  -44.8188 H         1 UNK         0.0600 
    148 H148        0.9639  -17.4494  -44.7686 H         1 UNK         0.0600 
    149 H149       -1.3087  -17.9070  -43.8908 H         1 UNK         0.3000 
    150 H150       -4.6621  -19.0791  -44.3356 H         1 UNK         0.0600 
    151 H151       -4.7402  -18.3059  -41.9552 H         1 UNK         0.0600 
    152 H152       -4.0099  -19.8971  -42.1031 H         1 UNK         0.0600 
    153 H153       -2.9902  -18.4931  -41.8351 H         1 UNK         0.0600 
    154 H154       -3.4480  -16.6068  -43.4601 H         1 UNK         0.3000 
    155 H155       -3.4065  -15.0441  -46.6595 H         1 UNK         0.0600 
    156 H156       -5.2302  -14.5885  -44.2362 H         1 UNK         0.0600 
    157 H157       -5.7766  -14.8302  -45.8913 H         1 UNK         0.0600 
    158 H158       -4.8389  -13.4027  -45.4822 H         1 UNK         0.0600 
    159 H159       -2.7962  -14.0347  -44.0762 H         1 UNK         0.3000 
    160 H160        0.6494  -15.0364  -44.0144 H         1 UNK         0.0600 
    161 H161       -0.7525  -12.3264  -44.2999 H         1 UNK         0.0600 
    162 H162        0.4223  -12.9726  -45.4386 H         1 UNK         0.0600 
    163 H163        0.9137  -12.6039  -43.7924 H         1 UNK         0.0600 
    164 H164       -0.6093  -13.5512  -42.0751 H         1 UNK         0.3000 
    165 H165       -2.0195  -14.4215  -40.2739 H         1 UNK         0.0600 
    166 H166       -2.1561  -16.2799  -38.6205 H         1 UNK         0.0600 
    167 H167       -2.9342  -16.7221  -40.1302 H         1 UNK         0.0600 
    168 H168       -1.3415  -17.3666  -39.7446 H         1 UNK         0.0600 
    169 H169        0.4264  -15.7258  -39.2951 H         1 UNK         0.3000 
    170 H170        2.5031  -12.9142  -39.6458 H         1 UNK         0.0600 
    171 H171        1.3842  -12.3708  -37.4786 H         1 UNK         0.0600 
    172 H172        1.3897  -14.0728  -37.0326 H         1 UNK         0.0600 
    173 H173        2.9108  -13.1975  -37.2141 H         1 UNK         0.0600 
    174 H174        2.8974  -15.4619  -38.4196 H         1 UNK         0.3000 
    175 H175        4.3677  -16.9145  -39.4925 H         1 UNK         0.0600 
    176 H176        2.0006  -17.9003  -41.1875 H         1 UNK         0.0600 
    177 H177        3.1334  -18.9459  -40.3303 H         1 UNK         0.0600 
    178 H178        2.0757  -17.8712  -39.4317 H         1 UNK         0.0600 
    179 H179        4.1372  -17.4935  -42.3643 H         1 UNK         0.3000 
    180 H180        7.1828  -15.9902  -43.2754 H         1 UNK         0.0600 
    181 H181        6.5867  -18.9878  -43.0104 H         1 UNK         0.0600 
    182 H182        8.0110  -18.1676  -42.3808 H         1 UNK         0.0600 
    183 H183        7.7507  -18.2586  -44.1161 H         1 UNK         0.0600 
    184 H184        5.1828  -17.6880  -44.5560 H         1 UNK         0.3000 
    185 H185        2.9784  -16.5092  -45.1268 H         1 UNK         0.0600 
    186 H186        2.7361  -14.0229  -45.2595 H         1 UNK         0.0600 
    187 H187        3.7320  -14.0065  -46.7103 H         1 UNK         0.0600 
    188 H188        2.1691  -14.8258  -46.7150 H         1 UNK         0.0600 
    189 H189        4.2883  -16.1319  -47.6881 H         1 UNK         0.3000 
    190 H190       -3.1927  -19.0553  -47.4015 H         1 UNK         0.3000 
    191 H191       -4.3379  -20.6959  -49.4191 H         1 UNK         0.0600 
    192 H192       -5.7089  -19.5947  -47.6911 H         1 UNK         0.0600 
    193 H193       -5.9633  -21.3332  -47.6381 H         1 UNK         0.0600 
    194 H194       -4.9540  -20.5586  -46.4247 H         1 UNK         0.0600 
    195 H195       -2.5272  -21.5590  -46.4358 H         1 UNK         0.3000 
    196 H196       -2.6561  -24.3546  -46.6763 H         1 UNK         0.0600 
    197 H197       -0.7400  -24.3262  -45.0750 H         1 UNK         0.0600 
    198 H198       -1.9916  -23.1888  -44.6007 H         1 UNK         0.0600 
    199 H199       -0.5135  -22.6057  -45.3651 H         1 UNK         0.0600 
    200 H200       -0.3499  -22.0652  -48.1504 H         1 UNK         0.3000 
    201 H201        1.4452  -23.9696  -49.2621 H         1 UNK         0.0600 
    202 H202        1.9738  -21.5625  -49.0520 H         1 UNK         0.0600 
    203 H203        0.7143  -21.1494  -50.2140 H         1 UNK         0.0600 
    204 H204        2.1214  -22.0690  -50.7272 H         1 UNK         0.0600 
    205 H205       -1.7869  -23.0816  -50.2079 H         1 UNK         0.3000 
    206 H206       -1.6266  -24.6218  -52.7601 H         1 UNK         0.0600 
    207 H207       -2.5021  -22.3210  -52.9945 H         1 UNK         0.0600 
    208 H208       -3.7893  -23.4796  -53.2678 H         1 UNK         0.0600 
    209 H209       -3.6937  -22.6162  -51.7354 H         1 UNK         0.0600 
    210 H210       -1.4895  -25.8198  -50.1036 H         1 UNK         0.3000 
    211 H211       -2.1743  -27.5856  -48.9908 H         1 UNK         0.0600 
    212 H212       -3.8377  -28.2858  -51.4675 H         1 UNK         0.0600 
    213 H213       -3.2883  -29.4050  -50.2274 H         1 UNK         0.0600 
    214 H214       -2.1177  -28.6222  -51.2738 H         1 UNK         0.0600 
    215 H215       -3.7650  -25.1227  -48.7217 H         1 UNK         0.3000 
    216 H216       -5.3584  -24.3064  -47.4527 H         1 UNK         0.0600 
    217 H217       -6.6512  -25.5983  -45.8554 H         1 UNK         0.0600 
    218 H218       -5.0048  -26.2066  -45.8553 H         1 UNK         0.0600 
    219 H219       -6.2847  -27.1086  -46.6689 H         1 UNK         0.0600 
    220 H220       -5.8272  -25.6636  -50.3325 H         1 UNK         0.3000 
    221 H221       -8.7528  -25.4323  -50.5224 H         1 UNK         0.0600 
    222 H222       -6.6253  -25.7886  -52.6999 H         1 UNK         0.0600 
    223 H223       -7.4794  -27.1037  -51.8931 H         1 UNK         0.0600 
    224 H224       -8.3626  -25.9622  -52.8959 H         1 UNK         0.0600 
    225 H225       -5.9521  -23.4304  -50.8288 H         1 UNK         0.3000 
    226 H226       -5.5204  -21.3108  -51.1979 H         1 UNK         0.0600 
    227 H227       -7.3889  -20.7466  -49.6906 H         1 UNK         0.0600 
    228 H228       -7.2363  -19.5541  -50.9682 H         1 UNK         0.0600 
    229 H229       -8.5246  -20.7456  -51.0337 H         1 UNK         0.0600 
    230 H230       -8.5332  -21.5100  -53.1023 H         1 UNK         0.3000 
    231 H231       -9.0611  -20.9219  -55.1964 H         1 UNK         0.0600 
    232 H232       -6.4673  -22.4371  -55.8511 H         1 UNK         0.0600 
    233 H233       -7.7720  -22.0953  -56.9893 H         1 UNK         0.0600 
    234 H234       -8.0577  -23.1454  -55.6153 H         1 UNK         0.0600 
    235 H235       -6.0990  -20.6304  -56.7918 H         1 UNK         0.3000 
    236 H236       -6.3074  -17.8407  -57.3028 H         1 UNK         0.0600 
    237 H237       -5.2608  -19.4512  -58.8779 H         1 UNK         0.0600 
    238 H238       -4.1141  -18.1912  -58.4519 H         1 UNK         0.0600 
    239 H239       -3.9718  -19.7844  -57.7194 H         1 UNK         0.0600 
    240 H240       -4.7574  -19.5725  -54.6671 H         1 UNK         0.3000 
    241 H241       -3.2105  -17.1995  -53.8214 H         1 UNK         0.0600 
    242 H242       -6.4627  -17.9081  -53.5318 H         1 UNK         0.3800 
    243 H243       -6.6831  -17.2141  -51.9459 H         1 UNK         0.3800 
    244 H244       -2.2145  -18.6515  -52.1084 H         1 UNK         0.0800 
    245 H245       -3.2848  -19.9545  -52.5184 H         1 UNK         0.0800 
    246 H246        0.0803  -18.5090  -55.4134 H         1 UNK         0.0800 
    247 H247       -1.2551  -17.4874  -54.9827 H         1 UNK         0.0800 
@<TRIPOS>BOND
     1    1    2 1    
     2    1  127 1    
     3    1  128 1    
     4    1  129 1    
     5    2    3 2    
     6    2    4 am   BACKBONE|DICT|INTERRES
     7    4    5 1    
     8    4  130 1    
     9    5    6 1    
    10    5   65 1    
    11    5  131 1    
    12    6    7 1    
    13    6  132 1    
    14    6  133 1    
    15    7    8 1    
    16    8    9 1    
    17    8  134 1    
    18    8  135 1    
    19    9   10 ar   
    20    9   14 ar   
    21   10   11 ar   
    22   10  136 1    
    23   11   12 ar   
    24   11  126 1    
    25   12   13 ar   
    26   12  137 1    
    27   13   14 ar   
    28   13   15 1    
    29   14  138 1    
    30   15   16 1    
    31   15  139 1    
    32   15  140 1    
    33   16   17 1    
    34   17   18 1    
    35   17  141 1    
    36   17  142 1    
    37   18   19 1    
    38   18   67 1    
    39   18  143 1    
    40   19   20 am   BACKBONE|DICT|INTERRES
    41   19  144 1    
    42   20   21 2    
    43   20   22 1    
    44   22   23 1    
    45   22   24 1    
    46   22  145 1    
    47   23  146 1    
    48   23  147 1    
    49   23  148 1    
    50   24   25 am   BACKBONE|DICT|INTERRES
    51   24  149 1    
    52   25   26 2    
    53   25   27 1    
    54   27   28 1    
    55   27   29 1    
    56   27  150 1    
    57   28  151 1    
    58   28  152 1    
    59   28  153 1    
    60   29   30 am   BACKBONE|DICT|INTERRES
    61   29  154 1    
    62   30   31 2    
    63   30   32 1    
    64   32   33 1    
    65   32   34 1    
    66   32  155 1    
    67   33  156 1    
    68   33  157 1    
    69   33  158 1    
    70   34   35 am   BACKBONE|DICT|INTERRES
    71   34  159 1    
    72   35   36 2    
    73   35   37 1    
    74   37   38 1    
    75   37   39 1    
    76   37  160 1    
    77   38  161 1    
    78   38  162 1    
    79   38  163 1    
    80   39   40 am   BACKBONE|DICT|INTERRES
    81   39  164 1    
    82   40   41 2    
    83   40   42 1    
    84   42   43 1    
    85   42   44 1    
    86   42  165 1    
    87   43  166 1    
    88   43  167 1    
    89   43  168 1    
    90   44   45 am   BACKBONE|DICT|INTERRES
    91   44  169 1    
    92   45   46 2    
    93   45   47 1    
    94   47   48 1    
    95   47   49 1    
    96   47  170 1    
    97   48  171 1    
    98   48  172 1    
    99   48  173 1    
   100   49   50 am   BACKBONE|DICT|INTERRES
   101   49  174 1    
   102   50   51 2    
   103   50   52 1    
   104   52   53 1    
   105   52   54 1    
   106   52  175 1    
   107   53  176 1    
   108   53  177 1    
   109   53  178 1    
   110   54   55 am   BACKBONE|DICT|INTERRES
   111   54  179 1    
   112   55   56 2    
   113   55   57 1    
   114   57   58 1    
   115   57   59 1    
   116   57  180 1    
   117   58  181 1    
   118   58  182 1    
   119   58  183 1    
   120   59   60 am   BACKBONE|DICT|INTERRES
   121   59  184 1    
   122   60   61 2    
   123   60   62 1    
   124   62   63 1    
   125   62   64 1    
   126   62  185 1    
   127   63  186 1    
   128   63  187 1    
   129   63  188 1    
   130   64   65 am   BACKBONE|DICT|INTERRES
   131   64  189 1    
   132   65   66 2    
   133   67   68 2    
   134   67   69 am   BACKBONE|DICT|INTERRES
   135   69   70 1    
   136   69  190 1    
   137   70   71 1    
   138   70   72 1    
   139   70  191 1    
   140   71  192 1    
   141   71  193 1    
   142   71  194 1    
   143   72   73 2    
   144   72   74 am   BACKBONE|DICT|INTERRES
   145   74   75 1    
   146   74  195 1    
   147   75   76 1    
   148   75   77 1    
   149   75  196 1    
   150   76  197 1    
   151   76  198 1    
   152   76  199 1    
   153   77   78 2    
   154   77   79 am   BACKBONE|DICT|INTERRES
   155   79   80 1    
   156   79  200 1    
   157   80   81 1    
   158   80   82 1    
   159   80  201 1    
   160   81  202 1    
   161   81  203 1    
   162   81  204 1    
   163   82   83 2    
   164   82   84 am   BACKBONE|DICT|INTERRES
   165   84   85 1    
   166   84  205 1    
   167   85   86 1    
   168   85   87 1    
   169   85  206 1    
   170   86  207 1    
   171   86  208 1    
   172   86  209 1    
   173   87   88 2    
   174   87   89 am   BACKBONE|DICT|INTERRES
   175   89   90 1    
   176   89  210 1    
   177   90   91 1    
   178   90   92 1    
   179   90  211 1    
   180   91  212 1    
   181   91  213 1    
   182   91  214 1    
   183   92   93 2    
   184   92   94 am   BACKBONE|DICT|INTERRES
   185   94   95 1    
   186   94  215 1    
   187   95   96 1    
   188   95   97 1    
   189   95  216 1    
   190   96  217 1    
   191   96  218 1    
   192   96  219 1    
   193   97   98 2    
   194   97   99 am   BACKBONE|DICT|INTERRES
   195   99  100 1    
   196   99  220 1    
   197  100  101 1    
   198  100  102 1    
   199  100  221 1    
   200  101  222 1    
   201  101  223 1    
   202  101  224 1    
   203  102  103 2    
   204  102  104 am   BACKBONE|DICT|INTERRES
   205  104  105 1    
   206  104  225 1    
   207  105  106 1    
   208  105  107 1    
   209  105  226 1    
   210  106  227 1    
   211  106  228 1    
   212  106  229 1    
   213  107  108 2    
   214  107  109 am   BACKBONE|DICT|INTERRES
   215  109  110 1    
   216  109  230 1    
   217  110  111 1    
   218  110  112 1    
   219  110  231 1    
   220  111  232 1    
   221  111  233 1    
   222  111  234 1    
   223  112  113 2    
   224  112  114 am   BACKBONE|DICT|INTERRES
   225  114  115 1    
   226  114  235 1    
   227  115  116 1    
   228  115  117 1    
   229  115  236 1    
   230  116  237 1    
   231  116  238 1    
   232  116  239 1    
   233  117  118 2    
   234  117  119 am   BACKBONE|DICT|INTERRES
   235  119  120 1    
   236  119  240 1    
   237  120  121 1    
   238  120  124 1    
   239  120  241 1    
   240  121  122 am   BACKBONE|DICT|INTERRES
   241  121  123 2    
   242  122  242 1    
   243  122  243 1    
   244  124  125 1    
   245  124  244 1    
   246  124  245 1    
   247  125  126 1    
   248  126  246 1    
   249  126  247 1    
@<TRIPOS>SUBSTRUCTURE
     1 UNK         1 GROUP             0       ****    0 ROOT    
