@<TRIPOS>MOLECULE
3R540
247   249    1
SMALL
USER_CHARGES


@<TRIPOS>ATOM
      1 CA          0.2979  -14.9275  -49.8420 C.3       0 UNK        -0.1800 
      2 C           0.0588  -14.8940  -48.3405 C.2       0 UNK         0.5000 
      3 O           0.8961  -14.3864  -47.5951 O.2       0 UNK        -0.5000 
      4 N          -1.0944  -15.4099  -47.8945 N.am      1 UNK        -0.5000 
      5 CA         -1.5136  -15.5017  -46.4879 C.3       1 UNK         0.1400 
      6 C6         -2.7773  -16.3693  -46.2947 C.3       23 UNK        -0.0398 
      7 S7         -4.1747  -15.9377  -47.3890 S.3       23 UNK        -0.2404 
      8 C8         -4.3196  -17.4400  -48.4094 C.3       23 UNK        -0.0205 
      9 C9         -3.2242  -17.5343  -49.4602 C.ar      23 UNK        -0.0193 
     10 C10        -3.4129  -16.9406  -50.7091 C.ar      23 UNK        -0.1150 
     11 C11        -2.4498  -17.0689  -51.7136 C.ar      23 UNK        -0.0193 
     12 C12        -1.2720  -17.7739  -51.4466 C.ar      23 UNK        -0.1150 
     13 C13        -1.0519  -18.3423  -50.1870 C.ar      23 UNK        -0.0193 
     14 C14        -2.0392  -18.2313  -49.2029 C.ar      23 UNK        -0.1150 
     15 C15         0.2722  -19.0291  -49.8798 C.3       23 UNK        -0.0205 
     16 S16         0.0805  -20.8065  -49.5197 S.3       23 UNK        -0.2404 
     17 C17         0.3269  -20.8111  -47.7119 C.3       23 UNK        -0.0398 
     18 CA         -0.3431  -21.9948  -46.9756 C.3       11 UNK         0.1400 
     19 N           0.1185  -22.0805  -45.5864 N.am      11 UNK        -0.5000 
     20 C          -0.2119  -23.0418  -44.7118 C.2       10 UNK         0.5000 
     21 O          -0.9122  -24.0123  -44.9930 O.2       10 UNK        -0.5000 
     22 CA          0.2707  -22.8610  -43.2612 C.3       10 UNK         0.1400 
     23 CB          1.6933  -23.4115  -43.0896 C.3       10 UNK        -0.1800 
     24 N           0.2087  -21.4685  -42.8097 N.am      10 UNK        -0.5000 
     25 C          -0.9229  -20.7529  -42.7186 C.2       9 UNK         0.5000 
     26 O          -2.0378  -21.2101  -42.9709 O.2       9 UNK        -0.5000 
     27 CA         -0.7852  -19.2685  -42.3338 C.3       9 UNK         0.1400 
     28 CB         -0.6207  -19.1056  -40.8158 C.3       9 UNK        -0.1800 
     29 N           0.3331  -18.6209  -43.0165 N.am      9 UNK        -0.5000 
     30 C           0.4091  -18.4129  -44.3376 C.2       8 UNK         0.5000 
     31 O          -0.5018  -18.6738  -45.1235 O.2       8 UNK        -0.5000 
     32 CA          1.7550  -17.8828  -44.8704 C.3       8 UNK         0.1400 
     33 CB          1.8958  -16.3637  -44.6725 C.3       8 UNK        -0.1800 
     34 N           2.8827  -18.5450  -44.2166 N.am      8 UNK        -0.5000 
     35 C           3.2326  -19.8245  -44.3987 C.2       7 UNK         0.5000 
     36 O           2.6459  -20.5897  -45.1631 O.2       7 UNK        -0.5000 
     37 CA          4.4208  -20.3368  -43.5621 C.3       7 UNK         0.1400 
     38 CB          5.7443  -20.0834  -44.2985 C.3       7 UNK        -0.1800 
     39 N           4.4826  -19.7228  -42.2334 N.am      7 UNK        -0.5000 
     40 C           3.5964  -19.9526  -41.2540 C.2       6 UNK         0.5000 
     41 O           2.6516  -20.7340  -41.3584 O.2       6 UNK        -0.5000 
     42 CA          3.7578  -19.1185  -39.9679 C.3       6 UNK         0.1400 
     43 CB          4.8269  -19.7326  -39.0520 C.3       6 UNK        -0.1800 
     44 N           4.0822  -17.7102  -40.2265 N.am      6 UNK        -0.5000 
     45 C           3.3049  -16.8754  -40.9289 C.2       5 UNK         0.5000 
     46 O           2.2418  -17.2223  -41.4476 O.2       5 UNK        -0.5000 
     47 CA          3.8278  -15.4405  -41.1345 C.3       5 UNK         0.1400 
     48 CB          4.9911  -15.4300  -42.1398 C.3       5 UNK        -0.1800 
     49 N           2.7745  -14.5579  -41.6373 N.am      5 UNK        -0.5000 
     50 C           1.7542  -14.0849  -40.9104 C.2       4 UNK         0.5000 
     51 O           1.6641  -14.2473  -39.6919 O.2       4 UNK        -0.5000 
     52 CA          0.6311  -13.3343  -41.6636 C.3       4 UNK         0.1400 
     53 CB          0.1021  -12.1236  -40.8671 C.3       4 UNK        -0.1800 
     54 N           0.9451  -12.9421  -43.0454 N.am      4 UNK        -0.5000 
     55 C           1.8853  -12.0765  -43.4610 C.2       3 UNK         0.5000 
     56 O           2.7061  -11.5435  -42.7143 O.2       3 UNK        -0.5000 
     57 CA          1.9183  -11.7435  -44.9681 C.3       3 UNK         0.1400 
     58 CB          2.9930  -12.5812  -45.6770 C.3       3 UNK        -0.1800 
     59 N           0.6315  -11.9452  -45.6395 N.am      3 UNK        -0.5000 
     60 C          -0.4715  -11.2145  -45.4075 C.2       2 UNK         0.5000 
     61 O          -0.4854  -10.2246  -44.6749 O.2       2 UNK        -0.5000 
     62 CA         -1.7882  -11.6650  -46.0780 C.3       2 UNK         0.1400 
     63 CB         -2.1217  -10.7561  -47.2710 C.3       2 UNK        -0.1800 
     64 N          -1.7919  -13.0564  -46.5349 N.am      2 UNK        -0.5000 
     65 C          -1.6246  -14.1416  -45.7655 C.2       1 UNK         0.5000 
     66 O          -1.4906  -14.0954  -44.5416 O.2       1 UNK        -0.5000 
     67 C          -1.8827  -21.9355  -47.0739 C.2       11 UNK         0.5000 
     68 O          -2.4616  -22.6459  -47.8984 O.2       11 UNK        -0.5000 
     69 N          -2.5119  -21.1300  -46.2042 N.am      12 UNK        -0.5000 
     70 CA         -3.9659  -21.0337  -46.0768 C.3       12 UNK         0.1400 
     71 CB         -4.3377  -19.8292  -45.1971 C.3       12 UNK        -0.1800 
     72 C          -4.5873  -22.3176  -45.5017 C.2       12 UNK         0.5000 
     73 O          -5.5799  -22.8031  -46.0432 O.2       12 UNK        -0.5000 
     74 N          -3.9893  -22.8408  -44.4216 N.am      13 UNK        -0.5000 
     75 CA         -4.4563  -24.0237  -43.6958 C.3       13 UNK         0.1400 
     76 CB         -3.6457  -24.1825  -42.4008 C.3       13 UNK        -0.1800 
     77 C          -4.4034  -25.3141  -44.5330 C.2       13 UNK         0.5000 
     78 O          -5.3586  -26.0914  -44.5124 O.2       13 UNK        -0.5000 
     79 N          -3.3004  -25.5093  -45.2668 N.am      14 UNK        -0.5000 
     80 CA         -3.1062  -26.6340  -46.1830 C.3       14 UNK         0.1400 
     81 CB         -1.6011  -26.8168  -46.4355 C.3       14 UNK        -0.1800 
     82 C          -3.8443  -26.4503  -47.5220 C.2       14 UNK         0.5000 
     83 O          -4.0523  -27.4377  -48.2280 O.2       14 UNK        -0.5000 
     84 N          -4.1945  -25.1973  -47.8531 N.am      15 UNK        -0.5000 
     85 CA         -4.7401  -24.7279  -49.1300 C.3       15 UNK         0.1400 
     86 CB         -6.1661  -25.2692  -49.3581 C.3       15 UNK        -0.1800 
     87 C          -3.7700  -25.0292  -50.2915 C.2       15 UNK         0.5000 
     88 O          -4.1584  -25.6454  -51.2850 O.2       15 UNK        -0.5000 
     89 N          -2.5025  -24.6400  -50.0933 N.am      16 UNK        -0.5000 
     90 CA         -1.3707  -24.9514  -50.9645 C.3       16 UNK         0.1400 
     91 CB         -0.0659  -24.8050  -50.1590 C.3       16 UNK        -0.1800 
     92 C          -1.3982  -24.0984  -52.2463 C.2       16 UNK         0.5000 
     93 O          -2.0214  -24.4960  -53.2312 O.2       16 UNK        -0.5000 
     94 N          -0.7407  -22.9309  -52.2170 N.am      17 UNK        -0.5000 
     95 CA         -0.7660  -21.9576  -53.3124 C.3       17 UNK         0.1400 
     96 CB          0.4959  -21.0863  -53.2632 C.3       17 UNK        -0.1800 
     97 C          -2.0396  -21.0907  -53.3004 C.2       17 UNK         0.5000 
     98 O          -2.3040  -20.4061  -54.2895 O.2       17 UNK        -0.5000 
     99 N          -2.8254  -21.1701  -52.2155 N.am      18 UNK        -0.5000 
    100 CA        -4.0815  -20.4629  -51.9350 C.3       18 UNK         0.1400 
    101 CB        -4.4247  -20.6817  -50.4499 C.3       18 UNK        -0.1800 
    102 C         -5.2698  -20.8330  -52.8580 C.2       18 UNK         0.5000 
    103 O         -6.4153  -20.8753  -52.4064 O.2       18 UNK        -0.5000 
    104 N         -4.9744  -21.0937  -54.1316 N.am      19 UNK        -0.5000 
    105 CA        -5.8826  -21.4399  -55.2171 C.3       19 UNK         0.1400 
    106 CB        -6.5384  -22.8158  -54.9899 C.3       19 UNK        -0.1800 
    107 C         -5.0918  -21.4224  -56.5315 C.2       19 UNK         0.5000 
    108 O         -5.5313  -20.8064  -57.5015 O.2       19 UNK        -0.5000 
    109 N         -3.9132  -22.0612  -56.5316 N.am      20 UNK        -0.5000 
    110 CA        -3.0221  -22.1516  -57.6893 C.3       20 UNK         0.1400 
    111 CB        -1.9099  -23.1686  -57.3910 C.3       20 UNK        -0.1800 
    112 C         -2.4156  -20.7999  -58.1129 C.2       20 UNK         0.5000 
    113 O         -2.2681  -20.5567  -59.3114 O.2       20 UNK        -0.5000 
    114 N         -2.0727  -19.9530  -57.1330 N.am      21 UNK        -0.5000 
    115 CA        -1.4213  -18.6613  -57.3552 C.3       21 UNK         0.1400 
    116 CB        -0.3638  -18.4516  -56.2588 C.3       21 UNK        -0.1800 
    117 C         -2.4049  -17.4775  -57.3731 C.2       21 UNK         0.5000 
    118 O         -2.0044  -16.3842  -57.7768 O.2       21 UNK        -0.5000 
    119 N         -3.6464  -17.6817  -56.9148 N.am      22 UNK        -0.5000 
    120 CA        -4.6015  -16.5930  -56.6437 C.3       22 UNK         0.1400 
    121 C         -6.1060  -16.9562  -56.8010 C.2       22 UNK         0.5000 
    122 N         -6.4809  -18.1424  -57.2593 N.am      22 UNK        -0.7600 
    123 O         -6.9693  -16.1245  -56.5335 O.2       22 UNK        -0.5000 
    124 C124       -4.2889  -15.8668  -55.3055 C.3       23 UNK        -0.0398 
    125 S125       -4.2188  -16.9850  -53.8604 S.3       23 UNK        -0.2404 
    126 C126       -2.6749  -16.4210  -53.0727 C.3       23 UNK        -0.0205 
    127 H127        0.7305  -13.9849  -50.1769 H         1 UNK         0.0600 
    128 H128        0.9890  -15.7317  -50.0940 H         1 UNK         0.0600 
    129 H129       -0.6302  -15.0855  -50.3912 H         1 UNK         0.0600 
    130 H130       -1.7472  -15.8046  -48.5588 H         1 UNK         0.3000 
    131 H131       -0.7185  -16.0357  -45.9740 H         1 UNK         0.0600 
    132 H132       -3.1212  -16.3353  -45.2592 H         1 UNK         0.0800 
    133 H133       -2.5010  -17.4082  -46.4620 H         1 UNK         0.0800 
    134 H134       -5.2932  -17.4299  -48.9017 H         1 UNK         0.0800 
    135 H135       -4.3183  -18.3292  -47.7800 H         1 UNK         0.0800 
    136 H136       -4.3240  -16.3942  -50.9097 H         1 UNK         0.1150 
    137 H137       -0.5162  -17.8613  -52.2144 H         1 UNK         0.1150 
    138 H138       -1.8819  -18.6898  -48.2378 H         1 UNK         0.1150 
    139 H139        0.9616  -18.9180  -50.7172 H         1 UNK         0.0800 
    140 H140        0.7517  -18.5174  -49.0442 H         1 UNK         0.0800 
    141 H141        1.4039  -20.8345  -47.5409 H         1 UNK         0.0800 
    142 H142       -0.0204  -19.8653  -47.2993 H         1 UNK         0.0800 
    143 H143       -0.0240  -22.9186  -47.4616 H         1 UNK         0.0600 
    144 H144        0.7572  -21.3548  -45.2792 H         1 UNK         0.3000 
    145 H145       -0.3909  -23.4425  -42.6173 H         1 UNK         0.0600 
    146 H146        2.0220  -23.3419  -42.0526 H         1 UNK         0.0600 
    147 H147        1.7399  -24.4632  -43.3746 H         1 UNK         0.0600 
    148 H148        2.4112  -22.8741  -43.7077 H         1 UNK         0.0600 
    149 H149        1.0838  -21.0441  -42.5181 H         1 UNK         0.3000 
    150 H150       -1.7036  -18.7599  -42.6346 H         1 UNK         0.0600 
    151 H151       -1.4573  -19.5574  -40.2814 H         1 UNK         0.0600 
    152 H152       -0.5839  -18.0526  -40.5354 H         1 UNK         0.0600 
    153 H153        0.2940  -19.5773  -40.4558 H         1 UNK         0.0600 
    154 H154        1.1076  -18.3128  -42.4330 H         1 UNK         0.3000 
    155 H155        1.8116  -18.0976  -45.9398 H         1 UNK         0.0600 
    156 H156        2.9328  -16.0431  -44.7683 H         1 UNK         0.0600 
    157 H157        1.5297  -16.0396  -43.6989 H         1 UNK         0.0600 
    158 H158        1.3405  -15.8146  -45.4266 H         1 UNK         0.0600 
    159 H159        3.3796  -18.0087  -43.5224 H         1 UNK         0.3000 
    160 H160        4.3027  -21.4147  -43.4363 H         1 UNK         0.0600 
    161 H161        5.9321  -19.0179  -44.4374 H         1 UNK         0.0600 
    162 H162        5.7359  -20.5470  -45.2860 H         1 UNK         0.0600 
    163 H163        6.5873  -20.5048  -43.7505 H         1 UNK         0.0600 
    164 H164        5.2300  -19.0656  -42.0654 H         1 UNK         0.3000 
    165 H165        2.8023  -19.1453  -39.4398 H         1 UNK         0.0600 
    166 H166        5.8172  -19.7002  -39.5078 H         1 UNK         0.0600 
    167 H167        4.8785  -19.2067  -38.0985 H         1 UNK         0.0600 
    168 H168        4.6000  -20.7770  -38.8333 H         1 UNK         0.0600 
    169 H169        4.9472  -17.3664  -39.8346 H         1 UNK         0.3000 
    170 H170        4.1825  -15.0583  -40.1752 H         1 UNK         0.0600 
    171 H171        5.8315  -16.0238  -41.7786 H         1 UNK         0.0600 
    172 H172        4.6959  -15.8356  -43.1078 H         1 UNK         0.0600 
    173 H173        5.3609  -14.4171  -42.3017 H         1 UNK         0.0600 
    174 H174        2.7624  -14.3852  -42.6300 H         1 UNK         0.3000 
    175 H175       -0.1885  -14.0495  -41.7466 H         1 UNK         0.0600 
    176 H176       -0.7090  -11.6265  -41.3996 H         1 UNK         0.0600 
    177 H177       -0.2902  -12.4310  -39.8971 H         1 UNK         0.0600 
    178 H178        0.8845  -11.3867  -40.6839 H         1 UNK         0.0600 
    179 H179        0.3070  -13.3129  -43.7412 H         1 UNK         0.3000 
    180 H180        2.1885  -10.6900  -45.0653 H         1 UNK         0.0600 
    181 H181        3.0753  -12.3079  -46.7292 H         1 UNK         0.0600 
    182 H182        3.9731  -12.4279  -45.2234 H         1 UNK         0.0600 
    183 H183        2.7704  -13.6470  -45.6267 H         1 UNK         0.0600 
    184 H184        0.5738  -12.7328  -46.2761 H         1 UNK         0.3000 
    185 H185       -2.5804  -11.5612  -45.3340 H         1 UNK         0.0600 
    186 H186       -3.0925  -11.0061  -47.6992 H         1 UNK         0.0600 
    187 H187       -2.1629   -9.7093  -46.9668 H         1 UNK         0.0600 
    188 H188       -1.3734  -10.8395  -48.0603 H         1 UNK         0.0600 
    189 H189       -1.8765  -13.2007  -47.5304 H         1 UNK         0.3000 
    190 H190       -1.9586  -20.5955  -45.5469 H         1 UNK         0.3000 
    191 H191       -4.3815  -20.8713  -47.0738 H         1 UNK         0.0600 
    192 H192       -5.4184  -19.6840  -45.1766 H         1 UNK         0.0600 
    193 H193       -3.8958  -18.9096  -45.5684 H         1 UNK         0.0600 
    194 H194       -4.0077  -19.9561  -44.1664 H         1 UNK         0.0600 
    195 H195       -3.1954  -22.3478  -44.0214 H         1 UNK         0.3000 
    196 H196       -5.4989  -23.8502  -43.4216 H         1 UNK         0.0600 
    197 H197       -4.0096  -25.0264  -41.8134 H         1 UNK         0.0600 
    198 H198       -3.7213  -23.2929  -41.7752 H         1 UNK         0.0600 
    199 H199       -2.5901  -24.3579  -42.6077 H         1 UNK         0.0600 
    200 H200       -2.5300  -24.8465  -45.1942 H         1 UNK         0.3000 
    201 H201       -3.4868  -27.5431  -45.7126 H         1 UNK         0.0600 
    202 H202       -1.0592  -26.9694  -45.5020 H         1 UNK         0.0600 
    203 H203       -1.1701  -25.9480  -46.9351 H         1 UNK         0.0600 
    204 H204       -1.4125  -27.6852  -47.0679 H         1 UNK         0.0600 
    205 H205       -3.9610  -24.4646  -47.1967 H         1 UNK         0.3000 
    206 H206       -4.8106  -23.6437  -49.0481 H         1 UNK         0.0600 
    207 H207       -6.8180  -25.0194  -48.5209 H         1 UNK         0.0600 
    208 H208       -6.6073  -24.8334  -50.2552 H         1 UNK         0.0600 
    209 H209       -6.1779  -26.3524  -49.4811 H         1 UNK         0.0600 
    210 H210       -2.3064  -24.0926  -49.2606 H         1 UNK         0.3000 
    211 H211       -1.4504  -25.9960  -51.2732 H         1 UNK         0.0600 
    212 H212        0.0392  -23.8137  -49.7203 H         1 UNK         0.0600 
    213 H213        0.8068  -24.9857  -50.7879 H         1 UNK         0.0600 
    214 H214       -0.0303  -25.5284  -49.3441 H         1 UNK         0.0600 
    215 H215       -0.2475  -22.6578  -51.3778 H         1 UNK         0.3000 
    216 H216       -0.7512  -22.4964  -54.2612 H         1 UNK         0.0600 
    217 H217        0.5484  -20.4295  -54.1314 H         1 UNK         0.0600 
    218 H218        1.3996  -21.6956  -53.2625 H         1 UNK         0.0600 
    219 H219        0.5148  -20.4533  -52.3799 H         1 UNK         0.0600 
    220 H220       -2.5084  -21.7825  -51.4797 H         1 UNK         0.3000 
    221 H221       -3.8933  -19.4013  -52.0855 H         1 UNK         0.0600 
    222 H222       -4.7515  -21.7040  -50.2664 H         1 UNK         0.0600 
    223 H223       -3.5682  -20.4890  -49.8045 H         1 UNK         0.0600 
    224 H224       -5.2278  -20.0166  -50.1308 H         1 UNK         0.0600 
    225 H225       -4.0064  -20.9319  -54.4006 H         1 UNK         0.3000 
    226 H226       -6.6601  -20.6756  -55.2761 H         1 UNK         0.0600 
    227 H227       -7.1475  -23.1036  -55.8478 H         1 UNK         0.0600 
    228 H228       -5.7937  -23.5978  -54.8369 H         1 UNK         0.0600 
    229 H229       -7.1952  -22.8074  -54.1204 H         1 UNK         0.0600 
    230 H230       -3.6310  -22.5665  -55.7048 H         1 UNK         0.3000 
    231 H231       -3.6072  -22.5282  -58.5311 H         1 UNK         0.0600 
    232 H232       -1.2565  -23.2959  -58.2552 H         1 UNK         0.0600 
    233 H233       -2.3229  -24.1483  -57.1500 H         1 UNK         0.0600 
    234 H234       -1.2872  -22.8508  -56.5548 H         1 UNK         0.0600 
    235 H235       -2.2174  -20.2193  -56.1625 H         1 UNK         0.3000 
    236 H236       -0.9032  -18.6650  -58.3164 H         1 UNK         0.0600 
    237 H237       -0.8130  -18.4121  -55.2659 H         1 UNK         0.0600 
    238 H238        0.3720  -19.2554  -56.2654 H         1 UNK         0.0600 
    239 H239        0.1779  -17.5169  -56.4092 H         1 UNK         0.0600 
    240 H240       -3.9041  -18.6004  -56.5892 H         1 UNK         0.3000 
    241 H241       -4.4658  -15.8515  -57.4334 H         1 UNK         0.0600 
    242 H242       -7.4673  -18.3195  -57.3620 H         1 UNK         0.3800 
    243 H243       -5.8320  -18.8774  -57.5137 H         1 UNK         0.3800 
    244 H244       -5.0167  -15.0797  -55.1027 H         1 UNK         0.0800 
    245 H245       -3.3329  -15.3509  -55.4017 H         1 UNK         0.0800 
    246 H246       -1.8405  -16.6290  -53.7442 H         1 UNK         0.0800 
    247 H247       -2.7100  -15.3389  -52.9397 H         1 UNK         0.0800 
@<TRIPOS>BOND
     1    1    2 1    
     2    1  127 1    
     3    1  128 1    
     4    1  129 1    
     5    2    3 2    
     6    2    4 am   BACKBONE|DICT|INTERRES
     7    4    5 1    
     8    4  130 1    
     9    5    6 1    
    10    5   65 1    
    11    5  131 1    
    12    6    7 1    
    13    6  132 1    
    14    6  133 1    
    15    7    8 1    
    16    8    9 1    
    17    8  134 1    
    18    8  135 1    
    19    9   10 ar   
    20    9   14 ar   
    21   10   11 ar   
    22   10  136 1    
    23   11   12 ar   
    24   11  126 1    
    25   12   13 ar   
    26   12  137 1    
    27   13   14 ar   
    28   13   15 1    
    29   14  138 1    
    30   15   16 1    
    31   15  139 1    
    32   15  140 1    
    33   16   17 1    
    34   17   18 1    
    35   17  141 1    
    36   17  142 1    
    37   18   19 1    
    38   18   67 1    
    39   18  143 1    
    40   19   20 am   BACKBONE|DICT|INTERRES
    41   19  144 1    
    42   20   21 2    
    43   20   22 1    
    44   22   23 1    
    45   22   24 1    
    46   22  145 1    
    47   23  146 1    
    48   23  147 1    
    49   23  148 1    
    50   24   25 am   BACKBONE|DICT|INTERRES
    51   24  149 1    
    52   25   26 2    
    53   25   27 1    
    54   27   28 1    
    55   27   29 1    
    56   27  150 1    
    57   28  151 1    
    58   28  152 1    
    59   28  153 1    
    60   29   30 am   BACKBONE|DICT|INTERRES
    61   29  154 1    
    62   30   31 2    
    63   30   32 1    
    64   32   33 1    
    65   32   34 1    
    66   32  155 1    
    67   33  156 1    
    68   33  157 1    
    69   33  158 1    
    70   34   35 am   BACKBONE|DICT|INTERRES
    71   34  159 1    
    72   35   36 2    
    73   35   37 1    
    74   37   38 1    
    75   37   39 1    
    76   37  160 1    
    77   38  161 1    
    78   38  162 1    
    79   38  163 1    
    80   39   40 am   BACKBONE|DICT|INTERRES
    81   39  164 1    
    82   40   41 2    
    83   40   42 1    
    84   42   43 1    
    85   42   44 1    
    86   42  165 1    
    87   43  166 1    
    88   43  167 1    
    89   43  168 1    
    90   44   45 am   BACKBONE|DICT|INTERRES
    91   44  169 1    
    92   45   46 2    
    93   45   47 1    
    94   47   48 1    
    95   47   49 1    
    96   47  170 1    
    97   48  171 1    
    98   48  172 1    
    99   48  173 1    
   100   49   50 am   BACKBONE|DICT|INTERRES
   101   49  174 1    
   102   50   51 2    
   103   50   52 1    
   104   52   53 1    
   105   52   54 1    
   106   52  175 1    
   107   53  176 1    
   108   53  177 1    
   109   53  178 1    
   110   54   55 am   BACKBONE|DICT|INTERRES
   111   54  179 1    
   112   55   56 2    
   113   55   57 1    
   114   57   58 1    
   115   57   59 1    
   116   57  180 1    
   117   58  181 1    
   118   58  182 1    
   119   58  183 1    
   120   59   60 am   BACKBONE|DICT|INTERRES
   121   59  184 1    
   122   60   61 2    
   123   60   62 1    
   124   62   63 1    
   125   62   64 1    
   126   62  185 1    
   127   63  186 1    
   128   63  187 1    
   129   63  188 1    
   130   64   65 am   BACKBONE|DICT|INTERRES
   131   64  189 1    
   132   65   66 2    
   133   67   68 2    
   134   67   69 am   BACKBONE|DICT|INTERRES
   135   69   70 1    
   136   69  190 1    
   137   70   71 1    
   138   70   72 1    
   139   70  191 1    
   140   71  192 1    
   141   71  193 1    
   142   71  194 1    
   143   72   73 2    
   144   72   74 am   BACKBONE|DICT|INTERRES
   145   74   75 1    
   146   74  195 1    
   147   75   76 1    
   148   75   77 1    
   149   75  196 1    
   150   76  197 1    
   151   76  198 1    
   152   76  199 1    
   153   77   78 2    
   154   77   79 am   BACKBONE|DICT|INTERRES
   155   79   80 1    
   156   79  200 1    
   157   80   81 1    
   158   80   82 1    
   159   80  201 1    
   160   81  202 1    
   161   81  203 1    
   162   81  204 1    
   163   82   83 2    
   164   82   84 am   BACKBONE|DICT|INTERRES
   165   84   85 1    
   166   84  205 1    
   167   85   86 1    
   168   85   87 1    
   169   85  206 1    
   170   86  207 1    
   171   86  208 1    
   172   86  209 1    
   173   87   88 2    
   174   87   89 am   BACKBONE|DICT|INTERRES
   175   89   90 1    
   176   89  210 1    
   177   90   91 1    
   178   90   92 1    
   179   90  211 1    
   180   91  212 1    
   181   91  213 1    
   182   91  214 1    
   183   92   93 2    
   184   92   94 am   BACKBONE|DICT|INTERRES
   185   94   95 1    
   186   94  215 1    
   187   95   96 1    
   188   95   97 1    
   189   95  216 1    
   190   96  217 1    
   191   96  218 1    
   192   96  219 1    
   193   97   98 2    
   194   97   99 am   BACKBONE|DICT|INTERRES
   195   99  100 1    
   196   99  220 1    
   197  100  101 1    
   198  100  102 1    
   199  100  221 1    
   200  101  222 1    
   201  101  223 1    
   202  101  224 1    
   203  102  103 2    
   204  102  104 am   BACKBONE|DICT|INTERRES
   205  104  105 1    
   206  104  225 1    
   207  105  106 1    
   208  105  107 1    
   209  105  226 1    
   210  106  227 1    
   211  106  228 1    
   212  106  229 1    
   213  107  108 2    
   214  107  109 am   BACKBONE|DICT|INTERRES
   215  109  110 1    
   216  109  230 1    
   217  110  111 1    
   218  110  112 1    
   219  110  231 1    
   220  111  232 1    
   221  111  233 1    
   222  111  234 1    
   223  112  113 2    
   224  112  114 am   BACKBONE|DICT|INTERRES
   225  114  115 1    
   226  114  235 1    
   227  115  116 1    
   228  115  117 1    
   229  115  236 1    
   230  116  237 1    
   231  116  238 1    
   232  116  239 1    
   233  117  118 2    
   234  117  119 am   BACKBONE|DICT|INTERRES
   235  119  120 1    
   236  119  240 1    
   237  120  121 1    
   238  120  124 1    
   239  120  241 1    
   240  121  122 am   BACKBONE|DICT|INTERRES
   241  121  123 2    
   242  122  242 1    
   243  122  243 1    
   244  124  125 1    
   245  124  244 1    
   246  124  245 1    
   247  125  126 1    
   248  126  246 1    
   249  126  247 1    
@<TRIPOS>SUBSTRUCTURE
     1 UNK         1 GROUP             0       ****    0 ROOT    
