@<TRIPOS>MOLECULE
3R540
247   249    1
SMALL
USER_CHARGES


@<TRIPOS>ATOM
      1 CA          2.7209   -8.6199  -47.7218 C.3       0 UNK        -0.1800 
      2 C           3.2830   -9.9925  -48.0654 C.2       0 UNK         0.5000 
      3 O           4.5016  -10.1577  -48.1248 O.2       0 UNK        -0.5000 
      4 N           2.4012  -10.9710  -48.3023 N.am      1 UNK        -0.5000 
      5 CA          2.7540  -12.3701  -48.5561 C.3       1 UNK         0.1400 
      6 C6          1.5951  -13.1109  -49.2695 C.3       23 UNK        -0.0398 
      7 S7          2.1515  -14.5991  -50.1685 S.3       23 UNK        -0.2404 
      8 C8          1.1935  -15.8893  -49.3199 C.3       23 UNK        -0.0205 
      9 C9          1.5450  -17.2745  -49.8357 C.ar      23 UNK        -0.0193 
     10 C10         0.9816  -17.7534  -51.0225 C.ar      23 UNK        -0.1150 
     11 C11         1.3138  -19.0243  -51.5031 C.ar      23 UNK        -0.0193 
     12 C12         2.2112  -19.8184  -50.7822 C.ar      23 UNK        -0.1150 
     13 C13         2.7758  -19.3517  -49.5916 C.ar      23 UNK        -0.0193 
     14 C14         2.4394  -18.0787  -49.1255 C.ar      23 UNK        -0.1150 
     15 C15         3.7692  -20.2079  -48.8193 C.3       23 UNK        -0.0205 
     16 S16         2.9919  -21.6631  -48.0513 S.3       23 UNK        -0.2404 
     17 C17         1.8585  -20.8986  -46.8406 C.3       23 UNK        -0.0398 
     18 CA          0.7098  -21.8521  -46.4372 C.3       11 UNK         0.1400 
     19 N           0.0666  -21.4391  -45.1883 N.am      11 UNK        -0.5000 
     20 C          -0.8020  -22.1926  -44.4993 C.2       10 UNK         0.5000 
     21 O          -1.1341  -23.3301  -44.8315 O.2       10 UNK        -0.5000 
     22 CA         -1.4419  -21.5537  -43.2546 C.3       10 UNK         0.1400 
     23 CB         -0.4620  -21.5557  -42.0720 C.3       10 UNK        -0.1800 
     24 N          -1.9192  -20.1932  -43.5032 N.am      10 UNK        -0.5000 
     25 C          -2.8833  -19.8796  -44.3812 C.2       9 UNK         0.5000 
     26 O          -3.4956  -20.7107  -45.0515 O.2       9 UNK        -0.5000 
     27 CA         -3.1879  -18.3843  -44.5767 C.3       9 UNK         0.1400 
     28 CB         -4.0715  -17.8536  -43.4381 C.3       9 UNK        -0.1800 
     29 N          -1.9794  -17.5673  -44.6849 N.am      9 UNK        -0.5000 
     30 C          -1.0532  -17.6985  -45.6457 C.2       8 UNK         0.5000 
     31 O          -1.1208  -18.5141  -46.5628 O.2       8 UNK        -0.5000 
     32 CA          0.1898  -16.8044  -45.5313 C.3       8 UNK         0.1400 
     33 CB         -0.1429  -15.3568  -45.9226 C.3       8 UNK        -0.1800 
     34 N           0.7714  -16.8388  -44.1908 N.am      8 UNK        -0.5000 
     35 C           1.2472  -17.9397  -43.5910 C.2       7 UNK         0.5000 
     36 O           1.3075  -19.0451  -44.1290 O.2       7 UNK        -0.5000 
     37 CA          1.6774  -17.7895  -42.1227 C.3       7 UNK         0.1400 
     38 CB          3.1065  -17.2331  -42.0191 C.3       7 UNK        -0.1800 
     39 N           0.7538  -16.9378  -41.3721 N.am      7 UNK        -0.5000 
     40 C          -0.5077  -17.2767  -41.0671 C.2       6 UNK         0.5000 
     41 O          -1.0136  -18.3613  -41.3544 O.2       6 UNK        -0.5000 
     42 CA         -1.3579  -16.2060  -40.3593 C.3       6 UNK         0.1400 
     43 CB         -1.0663  -16.1902  -38.8514 C.3       6 UNK        -0.1800 
     44 N          -1.1417  -14.8675  -40.9103 N.am      6 UNK        -0.5000 
     45 C          -1.4979  -14.4927  -42.1473 C.2       5 UNK         0.5000 
     46 O          -2.0958  -15.2246  -42.9353 O.2       5 UNK        -0.5000 
     47 CA         -1.0711  -13.0804  -42.5951 C.3       5 UNK         0.1400 
     48 CB         -2.1422  -12.0482  -42.2136 C.3       5 UNK        -0.1800 
     49 N           0.2251  -12.6600  -42.0517 N.am      5 UNK        -0.5000 
     50 C           1.3835  -13.2937  -42.2755 C.2       4 UNK         0.5000 
     51 O           1.4821  -14.3163  -42.9599 O.2       4 UNK        -0.5000 
     52 CA          2.6230  -12.7324  -41.5664 C.3       4 UNK         0.1400 
     53 CB          2.5774  -13.0694  -40.0624 C.3       4 UNK        -0.1800 
     54 N           3.8015  -13.3305  -42.1809 N.am      4 UNK        -0.5000 
     55 C           5.0746  -12.9569  -42.0146 C.2       3 UNK         0.5000 
     56 O           5.4244  -12.0064  -41.3138 O.2       3 UNK        -0.5000 
     57 CA          6.1429  -13.7932  -42.7470 C.3       3 UNK         0.1400 
     58 CB          6.7283  -14.8529  -41.8004 C.3       3 UNK        -0.1800 
     59 N           5.6214  -14.4646  -43.9402 N.am      3 UNK        -0.5000 
     60 C           5.3799  -13.8558  -45.1087 C.2       2 UNK         0.5000 
     61 O           5.6632  -12.6752  -45.3255 O.2       2 UNK        -0.5000 
     62 CA          4.7549  -14.7295  -46.2215 C.3       2 UNK         0.1400 
     63 CB          3.7274  -15.7437  -45.6732 C.3       2 UNK        -0.1800 
     64 N           4.1663  -13.9478  -47.3168 N.am      2 UNK        -0.5000 
     65 C           3.1598  -13.0645  -47.2373 C.2       1 UNK         0.5000 
     66 O           2.5451  -12.8010  -46.2007 O.2       1 UNK        -0.5000 
     67 C          -0.3168  -22.0456  -47.5733 C.2       11 UNK         0.5000 
     68 O          -0.2643  -23.0615  -48.2661 O.2       11 UNK        -0.5000 
     69 N          -1.2655  -21.1073  -47.7066 N.am      12 UNK        -0.5000 
     70 CA         -2.3554  -21.1679  -48.6791 C.3       12 UNK         0.1400 
     71 CB         -3.1621  -19.8606  -48.6437 C.3       12 UNK        -0.1800 
     72 C          -3.2807  -22.3782  -48.4759 C.2       12 UNK         0.5000 
     73 O          -3.6693  -23.0016  -49.4600 O.2       12 UNK        -0.5000 
     74 N          -3.5951  -22.7005  -47.2137 N.am      13 UNK        -0.5000 
     75 CA         -4.3879  -23.8695  -46.8339 C.3       13 UNK         0.1400 
     76 CB         -4.8240  -23.7326  -45.3673 C.3       13 UNK        -0.1800 
     77 C          -3.6460  -25.2014  -47.0559 C.2       13 UNK         0.5000 
     78 O          -4.2839  -26.1931  -47.4109 O.2       13 UNK        -0.5000 
     79 N          -2.3241  -25.2082  -46.8328 N.am      14 UNK        -0.5000 
     80 CA         -1.4555  -26.3677  -47.0418 C.3       14 UNK         0.1400 
     81 CB         -0.1172  -26.1400  -46.3222 C.3       14 UNK        -0.1800 
     82 C          -1.2235  -26.6834  -48.5315 C.2       14 UNK         0.5000 
     83 O          -1.1075  -27.8567  -48.8900 O.2       14 UNK        -0.5000 
     84 N          -1.1509  -25.6391  -49.3666 N.am      15 UNK        -0.5000 
     85 CA         -1.0038  -25.7280  -50.8179 C.3       15 UNK         0.1400 
     86 CB         -0.7287  -24.3203  -51.3730 C.3       15 UNK        -0.1800 
     87 C          -2.2421  -26.3353  -51.5049 C.2       15 UNK         0.5000 
     88 O          -3.3609  -26.2118  -51.0040 O.2       15 UNK        -0.5000 
     89 N          -2.0292  -26.9304  -52.6863 N.am      16 UNK        -0.5000 
     90 CA         -3.0914  -27.4665  -53.5468 C.3       16 UNK         0.1400 
     91 CB         -2.4541  -28.3196  -54.6542 C.3       16 UNK        -0.1800 
     92 C          -3.9898  -26.3706  -54.1592 C.2       16 UNK         0.5000 
     93 O          -5.1263  -26.6515  -54.5394 O.2       16 UNK        -0.5000 
     94 N          -3.4709  -25.1373  -54.2193 N.am      17 UNK        -0.5000 
     95 CA         -4.1414  -23.9383  -54.7201 C.3       17 UNK         0.1400 
     96 CB         -3.0674  -22.9659  -55.2341 C.3       17 UNK        -0.1800 
     97 C          -5.0720  -23.2654  -53.6864 C.2       17 UNK         0.5000 
     98 O          -5.4992  -22.1323  -53.9167 O.2       17 UNK        -0.5000 
     99 N          -5.3910  -23.9533  -52.5784 N.am      18 UNK        -0.5000 
    100 CA        -6.2732  -23.4952  -51.4973 C.3       18 UNK         0.1400 
    101 CB        -6.4160  -24.6098  -50.4489 C.3       18 UNK        -0.1800 
    102 C         -7.6695  -23.0441  -51.9658 C.2       18 UNK         0.5000 
    103 O         -8.2141  -22.0880  -51.4139 O.2       18 UNK        -0.5000 
    104 N         -8.1969  -23.6970  -53.0113 N.am      19 UNK        -0.5000 
    105 CA        -9.4645  -23.3598  -53.6668 C.3       19 UNK         0.1400 
    106 CB        -9.8034  -24.4605  -54.6835 C.3       19 UNK        -0.1800 
    107 C         -9.4660  -21.9760  -54.3517 C.2       19 UNK         0.5000 
    108 O        -10.5358  -21.3937  -54.5328 O.2       19 UNK        -0.5000 
    109 N         -8.2754  -21.4723  -54.7005 N.am      20 UNK        -0.5000 
    110 CA        -8.0382  -20.1449  -55.2665 C.3       20 UNK         0.1400 
    111 CB        -7.1683  -20.3087  -56.5255 C.3       20 UNK        -0.1800 
    112 C         -7.3589  -19.2097  -54.2444 C.2       20 UNK         0.5000 
    113 O         -6.8670  -18.1494  -54.6347 O.2       20 UNK        -0.5000 
    114 N         -7.2923  -19.6280  -52.9685 N.am      21 UNK        -0.5000 
    115 CA        -6.6132  -18.9673  -51.8458 C.3       21 UNK         0.1400 
    116 CB        -7.3718  -17.6884  -51.4369 C.3       21 UNK        -0.1800 
    117 C         -5.1095  -18.7160  -52.1013 C.2       21 UNK         0.5000 
    118 O         -4.5538  -17.7337  -51.6077 O.2       21 UNK        -0.5000 
    119 N         -4.4851  -19.6043  -52.8862 N.am      22 UNK        -0.5000 
    120 CA        -3.1118  -19.4959  -53.4010 C.3       22 UNK         0.1400 
    121 C         -2.9016  -18.3860  -54.4784 C.2       22 UNK         0.5000 
    122 N         -3.9471  -17.7829  -55.0337 N.am      22 UNK        -0.7600 
    123 O         -1.7716  -18.0815  -54.8479 O.2       22 UNK        -0.5000 
    124 C124       -2.0424  -19.4770  -52.2685 C.3       23 UNK        -0.0398 
    125 S125       -0.6753  -20.6488  -52.5656 S.3       23 UNK        -0.2404 
    126 C126        0.7381  -19.5304  -52.8179 C.3       23 UNK        -0.0205 
    127 H127        1.6306   -8.6168  -47.7187 H         1 UNK         0.0600 
    128 H128        3.0607   -7.8821  -48.4487 H         1 UNK         0.0600 
    129 H129        3.0643   -8.3109  -46.7345 H         1 UNK         0.0600 
    130 H130        1.4150  -10.7794  -48.1995 H         1 UNK         0.3000 
    131 H131        3.6176  -12.3683  -49.2255 H         1 UNK         0.0600 
    132 H132        1.1451  -12.4560  -50.0171 H         1 UNK         0.0800 
    133 H133        0.7917  -13.3551  -48.5716 H         1 UNK         0.0800 
    134 H134        0.1262  -15.7046  -49.4516 H         1 UNK         0.0800 
    135 H135        1.3963  -15.8279  -48.2513 H         1 UNK         0.0800 
    136 H136        0.2979  -17.1278  -51.5789 H         1 UNK         0.1150 
    137 H137        2.4729  -20.8012  -51.1491 H         1 UNK         0.1150 
    138 H138        2.8811  -17.7120  -48.2111 H         1 UNK         0.1150 
    139 H139        4.5506  -20.5461  -49.5011 H         1 UNK         0.0800 
    140 H140        4.2713  -19.6230  -48.0469 H         1 UNK         0.0800 
    141 H141        1.4600  -19.9566  -47.2196 H         1 UNK         0.0800 
    142 H142        2.4564  -20.6431  -45.9650 H         1 UNK         0.0800 
    143 H143        1.1518  -22.8309  -46.2377 H         1 UNK         0.0600 
    144 H144        0.3110  -20.5175  -44.8348 H         1 UNK         0.3000 
    145 H145       -2.3056  -22.1622  -42.9784 H         1 UNK         0.0600 
    146 H146       -0.9405  -21.1878  -41.1642 H         1 UNK         0.0600 
    147 H147        0.4085  -20.9295  -42.2678 H         1 UNK         0.0600 
    148 H148       -0.1023  -22.5641  -41.8642 H         1 UNK         0.0600 
    149 H149       -1.4906  -19.4529  -42.9562 H         1 UNK         0.3000 
    150 H150       -3.7414  -18.2792  -45.5118 H         1 UNK         0.0600 
    151 H151       -4.9840  -18.4434  -43.3435 H         1 UNK         0.0600 
    152 H152       -4.3690  -16.8208  -43.6200 H         1 UNK         0.0600 
    153 H153       -3.5556  -17.8878  -42.4780 H         1 UNK         0.0600 
    154 H154       -1.8602  -16.8412  -43.9841 H         1 UNK         0.3000 
    155 H155        0.9378  -17.1877  -46.2276 H         1 UNK         0.0600 
    156 H156       -0.5691  -15.3089  -46.9249 H         1 UNK         0.0600 
    157 H157        0.7473  -14.7304  -45.9134 H         1 UNK         0.0600 
    158 H158       -0.8684  -14.9103  -45.2454 H         1 UNK         0.0600 
    159 H159        0.8113  -15.9574  -43.6866 H         1 UNK         0.3000 
    160 H160        1.6680  -18.7824  -41.6684 H         1 UNK         0.0600 
    161 H161        3.1943  -16.2463  -42.4709 H         1 UNK         0.0600 
    162 H162        3.8147  -17.8882  -42.5279 H         1 UNK         0.0600 
    163 H163        3.4256  -17.1550  -40.9797 H         1 UNK         0.0600 
    164 H164        1.0713  -16.0053  -41.1553 H         1 UNK         0.3000 
    165 H165       -2.4088  -16.4674  -40.5013 H         1 UNK         0.0600 
    166 H166       -1.7192  -15.4891  -38.3313 H         1 UNK         0.0600 
    167 H167       -1.2328  -17.1747  -38.4121 H         1 UNK         0.0600 
    168 H168       -0.0341  -15.9071  -38.6415 H         1 UNK         0.0600 
    169 H169       -0.6588  -14.2021  -40.3254 H         1 UNK         0.3000 
    170 H170       -0.9835  -13.0922  -43.6830 H         1 UNK         0.0600 
    171 H171       -2.2541  -11.9636  -41.1320 H         1 UNK         0.0600 
    172 H172       -1.8960  -11.0609  -42.6048 H         1 UNK         0.0600 
    173 H173       -3.1145  -12.3252  -42.6237 H         1 UNK         0.0600 
    174 H174        0.2219  -11.8339  -41.4709 H         1 UNK         0.3000 
    175 H175        2.6519  -11.6508  -41.7114 H         1 UNK         0.0600 
    176 H176        2.5696  -14.1470  -39.8934 H         1 UNK         0.0600 
    177 H177        3.4364  -12.6568  -39.5336 H         1 UNK         0.0600 
    178 H178        1.6861  -12.6553  -39.5897 H         1 UNK         0.0600 
    179 H179        3.5811  -14.0815  -42.8221 H         1 UNK         0.3000 
    180 H180        6.9487  -13.1186  -43.0444 H         1 UNK         0.0600 
    181 H181        7.5281  -15.4149  -42.2829 H         1 UNK         0.0600 
    182 H182        5.9687  -15.5633  -41.4709 H         1 UNK         0.0600 
    183 H183        7.1516  -14.3886  -40.9086 H         1 UNK         0.0600 
    184 H184        5.4015  -15.4449  -43.8457 H         1 UNK         0.3000 
    185 H185        5.5760  -15.2939  -46.6655 H         1 UNK         0.0600 
    186 H186        2.9710  -15.2537  -45.0607 H         1 UNK         0.0600 
    187 H187        3.2138  -16.2593  -46.4819 H         1 UNK         0.0600 
    188 H188        4.2031  -16.5104  -45.0614 H         1 UNK         0.0600 
    189 H189        4.6134  -14.0717  -48.2142 H         1 UNK         0.3000 
    190 H190       -1.2298  -20.2742  -47.1227 H         1 UNK         0.3000 
    191 H191       -1.9003  -21.2696  -49.6656 H         1 UNK         0.0600 
    192 H192       -2.5394  -19.0057  -48.9083 H         1 UNK         0.0600 
    193 H193       -3.5828  -19.6747  -47.6554 H         1 UNK         0.0600 
    194 H194       -3.9913  -19.8911  -49.3514 H         1 UNK         0.0600 
    195 H195       -3.2841  -22.0957  -46.4592 H         1 UNK         0.3000 
    196 H196       -5.2864  -23.8844  -47.4544 H         1 UNK         0.0600 
    197 H197       -5.4249  -22.8355  -45.2174 H         1 UNK         0.0600 
    198 H198       -3.9656  -23.6753  -44.6968 H         1 UNK         0.0600 
    199 H199       -5.4288  -24.5855  -45.0570 H         1 UNK         0.0600 
    200 H200       -1.8831  -24.3666  -46.4782 H         1 UNK         0.3000 
    201 H201       -1.9357  -27.2384  -46.5903 H         1 UNK         0.0600 
    202 H202       -0.2650  -25.9936  -45.2522 H         1 UNK         0.0600 
    203 H203        0.4050  -25.2652  -46.7106 H         1 UNK         0.0600 
    204 H204        0.5438  -26.9989  -46.4448 H         1 UNK         0.0600 
    205 H205       -1.2083  -24.7043  -48.9761 H         1 UNK         0.3000 
    206 H206       -0.1414  -26.3631  -51.0297 H         1 UNK         0.0600 
    207 H207       -1.5611  -23.6424  -51.1785 H         1 UNK         0.0600 
    208 H208        0.1644  -23.8851  -50.9240 H         1 UNK         0.0600 
    209 H209       -0.5685  -24.3418  -52.4514 H         1 UNK         0.0600 
    210 H210       -1.0858  -26.9995  -53.0410 H         1 UNK         0.3000 
    211 H211       -3.7294  -28.1129  -52.9404 H         1 UNK         0.0600 
    212 H212       -1.7918  -27.7283  -55.2878 H         1 UNK         0.0600 
    213 H213       -3.2178  -28.7588  -55.2975 H         1 UNK         0.0600 
    214 H214       -1.8736  -29.1416  -54.2347 H         1 UNK         0.0600 
    215 H215       -2.5349  -25.0071  -53.8665 H         1 UNK         0.3000 
    216 H216       -4.7700  -24.2178  -55.5679 H         1 UNK         0.0600 
    217 H217       -3.5156  -22.0707  -55.6672 H         1 UNK         0.0600 
    218 H218       -2.4619  -23.4272  -56.0144 H         1 UNK         0.0600 
    219 H219       -2.3960  -22.6528  -54.4339 H         1 UNK         0.0600 
    220 H220       -4.9642  -24.8593  -52.4435 H         1 UNK         0.3000 
    221 H221       -5.7943  -22.6338  -51.0287 H         1 UNK         0.0600 
    222 H222       -7.0522  -24.2914  -49.6221 H         1 UNK         0.0600 
    223 H223       -6.8556  -25.5116  -50.8765 H         1 UNK         0.0600 
    224 H224       -5.4512  -24.8814  -50.0221 H         1 UNK         0.0600 
    225 H225       -7.6738  -24.4655  -53.4057 H         1 UNK         0.3000 
    226 H226      -10.2438  -23.3463  -52.9020 H         1 UNK         0.0600 
    227 H227       -9.8871  -25.4336  -54.1990 H         1 UNK         0.0600 
    228 H228      -10.7570  -24.2604  -55.1738 H         1 UNK         0.0600 
    229 H229       -9.0432  -24.5362  -55.4621 H         1 UNK         0.0600 
    230 H230       -7.4375  -22.0002  -54.4806 H         1 UNK         0.3000 
    231 H231       -8.9797  -19.6753  -55.5574 H         1 UNK         0.0600 
    232 H232       -7.0123  -19.3521  -57.0255 H         1 UNK         0.0600 
    233 H233       -7.6414  -20.9755  -57.2465 H         1 UNK         0.0600 
    234 H234       -6.1862  -20.7181  -56.2848 H         1 UNK         0.0600 
    235 H235       -7.7251  -20.5150  -52.7391 H         1 UNK         0.3000 
    236 H236       -6.6629  -19.6636  -51.0075 H         1 UNK         0.0600 
    237 H237       -7.3162  -16.9211  -52.2097 H         1 UNK         0.0600 
    238 H238       -8.4244  -17.8987  -51.2478 H         1 UNK         0.0600 
    239 H239       -6.9585  -17.2624  -50.5220 H         1 UNK         0.0600 
    240 H240       -5.0175  -20.3909  -53.2480 H         1 UNK         0.3000 
    241 H241       -2.9882  -20.4200  -53.9611 H         1 UNK         0.0600 
    242 H242       -3.7876  -17.0776  -55.7350 H         1 UNK         0.3800 
    243 H243       -4.8990  -18.0013  -54.7580 H         1 UNK         0.3800 
    244 H244       -2.4933  -19.7800  -51.3272 H         1 UNK         0.0800 
    245 H245       -1.6648  -18.4699  -52.0887 H         1 UNK         0.0800 
    246 H246        0.4457  -18.6971  -53.4580 H         1 UNK         0.0800 
    247 H247        1.5130  -20.0697  -53.3645 H         1 UNK         0.0800 
@<TRIPOS>BOND
     1    1    2 1    
     2    1  127 1    
     3    1  128 1    
     4    1  129 1    
     5    2    3 2    
     6    2    4 am   BACKBONE|DICT|INTERRES
     7    4    5 1    
     8    4  130 1    
     9    5    6 1    
    10    5   65 1    
    11    5  131 1    
    12    6    7 1    
    13    6  132 1    
    14    6  133 1    
    15    7    8 1    
    16    8    9 1    
    17    8  134 1    
    18    8  135 1    
    19    9   10 ar   
    20    9   14 ar   
    21   10   11 ar   
    22   10  136 1    
    23   11   12 ar   
    24   11  126 1    
    25   12   13 ar   
    26   12  137 1    
    27   13   14 ar   
    28   13   15 1    
    29   14  138 1    
    30   15   16 1    
    31   15  139 1    
    32   15  140 1    
    33   16   17 1    
    34   17   18 1    
    35   17  141 1    
    36   17  142 1    
    37   18   19 1    
    38   18   67 1    
    39   18  143 1    
    40   19   20 am   BACKBONE|DICT|INTERRES
    41   19  144 1    
    42   20   21 2    
    43   20   22 1    
    44   22   23 1    
    45   22   24 1    
    46   22  145 1    
    47   23  146 1    
    48   23  147 1    
    49   23  148 1    
    50   24   25 am   BACKBONE|DICT|INTERRES
    51   24  149 1    
    52   25   26 2    
    53   25   27 1    
    54   27   28 1    
    55   27   29 1    
    56   27  150 1    
    57   28  151 1    
    58   28  152 1    
    59   28  153 1    
    60   29   30 am   BACKBONE|DICT|INTERRES
    61   29  154 1    
    62   30   31 2    
    63   30   32 1    
    64   32   33 1    
    65   32   34 1    
    66   32  155 1    
    67   33  156 1    
    68   33  157 1    
    69   33  158 1    
    70   34   35 am   BACKBONE|DICT|INTERRES
    71   34  159 1    
    72   35   36 2    
    73   35   37 1    
    74   37   38 1    
    75   37   39 1    
    76   37  160 1    
    77   38  161 1    
    78   38  162 1    
    79   38  163 1    
    80   39   40 am   BACKBONE|DICT|INTERRES
    81   39  164 1    
    82   40   41 2    
    83   40   42 1    
    84   42   43 1    
    85   42   44 1    
    86   42  165 1    
    87   43  166 1    
    88   43  167 1    
    89   43  168 1    
    90   44   45 am   BACKBONE|DICT|INTERRES
    91   44  169 1    
    92   45   46 2    
    93   45   47 1    
    94   47   48 1    
    95   47   49 1    
    96   47  170 1    
    97   48  171 1    
    98   48  172 1    
    99   48  173 1    
   100   49   50 am   BACKBONE|DICT|INTERRES
   101   49  174 1    
   102   50   51 2    
   103   50   52 1    
   104   52   53 1    
   105   52   54 1    
   106   52  175 1    
   107   53  176 1    
   108   53  177 1    
   109   53  178 1    
   110   54   55 am   BACKBONE|DICT|INTERRES
   111   54  179 1    
   112   55   56 2    
   113   55   57 1    
   114   57   58 1    
   115   57   59 1    
   116   57  180 1    
   117   58  181 1    
   118   58  182 1    
   119   58  183 1    
   120   59   60 am   BACKBONE|DICT|INTERRES
   121   59  184 1    
   122   60   61 2    
   123   60   62 1    
   124   62   63 1    
   125   62   64 1    
   126   62  185 1    
   127   63  186 1    
   128   63  187 1    
   129   63  188 1    
   130   64   65 am   BACKBONE|DICT|INTERRES
   131   64  189 1    
   132   65   66 2    
   133   67   68 2    
   134   67   69 am   BACKBONE|DICT|INTERRES
   135   69   70 1    
   136   69  190 1    
   137   70   71 1    
   138   70   72 1    
   139   70  191 1    
   140   71  192 1    
   141   71  193 1    
   142   71  194 1    
   143   72   73 2    
   144   72   74 am   BACKBONE|DICT|INTERRES
   145   74   75 1    
   146   74  195 1    
   147   75   76 1    
   148   75   77 1    
   149   75  196 1    
   150   76  197 1    
   151   76  198 1    
   152   76  199 1    
   153   77   78 2    
   154   77   79 am   BACKBONE|DICT|INTERRES
   155   79   80 1    
   156   79  200 1    
   157   80   81 1    
   158   80   82 1    
   159   80  201 1    
   160   81  202 1    
   161   81  203 1    
   162   81  204 1    
   163   82   83 2    
   164   82   84 am   BACKBONE|DICT|INTERRES
   165   84   85 1    
   166   84  205 1    
   167   85   86 1    
   168   85   87 1    
   169   85  206 1    
   170   86  207 1    
   171   86  208 1    
   172   86  209 1    
   173   87   88 2    
   174   87   89 am   BACKBONE|DICT|INTERRES
   175   89   90 1    
   176   89  210 1    
   177   90   91 1    
   178   90   92 1    
   179   90  211 1    
   180   91  212 1    
   181   91  213 1    
   182   91  214 1    
   183   92   93 2    
   184   92   94 am   BACKBONE|DICT|INTERRES
   185   94   95 1    
   186   94  215 1    
   187   95   96 1    
   188   95   97 1    
   189   95  216 1    
   190   96  217 1    
   191   96  218 1    
   192   96  219 1    
   193   97   98 2    
   194   97   99 am   BACKBONE|DICT|INTERRES
   195   99  100 1    
   196   99  220 1    
   197  100  101 1    
   198  100  102 1    
   199  100  221 1    
   200  101  222 1    
   201  101  223 1    
   202  101  224 1    
   203  102  103 2    
   204  102  104 am   BACKBONE|DICT|INTERRES
   205  104  105 1    
   206  104  225 1    
   207  105  106 1    
   208  105  107 1    
   209  105  226 1    
   210  106  227 1    
   211  106  228 1    
   212  106  229 1    
   213  107  108 2    
   214  107  109 am   BACKBONE|DICT|INTERRES
   215  109  110 1    
   216  109  230 1    
   217  110  111 1    
   218  110  112 1    
   219  110  231 1    
   220  111  232 1    
   221  111  233 1    
   222  111  234 1    
   223  112  113 2    
   224  112  114 am   BACKBONE|DICT|INTERRES
   225  114  115 1    
   226  114  235 1    
   227  115  116 1    
   228  115  117 1    
   229  115  236 1    
   230  116  237 1    
   231  116  238 1    
   232  116  239 1    
   233  117  118 2    
   234  117  119 am   BACKBONE|DICT|INTERRES
   235  119  120 1    
   236  119  240 1    
   237  120  121 1    
   238  120  124 1    
   239  120  241 1    
   240  121  122 am   BACKBONE|DICT|INTERRES
   241  121  123 2    
   242  122  242 1    
   243  122  243 1    
   244  124  125 1    
   245  124  244 1    
   246  124  245 1    
   247  125  126 1    
   248  126  246 1    
   249  126  247 1    
@<TRIPOS>SUBSTRUCTURE
     1 UNK         1 GROUP             0       ****    0 ROOT    
