@<TRIPOS>MOLECULE
3R540
247   249    1
SMALL
USER_CHARGES


@<TRIPOS>ATOM
      1 CA          0.8355   -9.1691  -47.9543 C.3       0 UNK        -0.1800 
      2 C           0.8978  -10.2685  -49.0059 C.2       0 UNK         0.5000 
      3 O           1.3016  -10.0095  -50.1402 O.2       0 UNK        -0.5000 
      4 N           0.4895  -11.4872  -48.6340 N.am      1 UNK        -0.5000 
      5 CA          0.5355  -12.6904  -49.4701 C.3       1 UNK         0.1400 
      6 C6         -0.6044  -13.6737  -49.0892 C.3       23 UNK        -0.0398 
      7 S7         -0.4111  -14.4256  -47.4338 S.3       23 UNK        -0.2404 
      8 C8         -1.7102  -15.6991  -47.4226 C.3       23 UNK        -0.0205 
      9 C9         -1.5588  -16.7037  -48.5558 C.ar      23 UNK        -0.0193 
     10 C10        -2.4485  -16.6784  -49.6320 C.ar      23 UNK        -0.1150 
     11 C11        -2.3169  -17.5897  -50.6806 C.ar      23 UNK        -0.0193 
     12 C12        -1.3162  -18.5625  -50.6225 C.ar      23 UNK        -0.1150 
     13 C13        -0.4191  -18.6114  -49.5495 C.ar      23 UNK        -0.0193 
     14 C14        -0.5342  -17.6547  -48.5302 C.ar      23 UNK        -0.1150 
     15 C15         0.6429  -19.7145  -49.5708 C.3       23 UNK        -0.0205 
     16 S16         1.8829  -19.7385  -48.2255 S.3       23 UNK        -0.2404 
     17 C17         0.9427  -20.1354  -46.7089 C.3       23 UNK        -0.0398 
     18 CA          0.5103  -21.6141  -46.5632 C.3       11 UNK         0.1400 
     19 N           0.5135  -22.0360  -45.1614 N.am      11 UNK        -0.5000 
     20 C           0.2380  -23.2673  -44.7101 C.2       10 UNK         0.5000 
     21 O           0.0214  -24.2388  -45.4345 O.2       10 UNK        -0.5000 
     22 CA          0.1266  -23.4163  -43.1838 C.3       10 UNK         0.1400 
     23 CB          1.5136  -23.5711  -42.5415 C.3       10 UNK        -0.1800 
     24 N          -0.5740  -22.2818  -42.5788 N.am      10 UNK        -0.5000 
     25 C          -1.8789  -22.0244  -42.7461 C.2       9 UNK         0.5000 
     26 O          -2.6380  -22.7371  -43.4024 O.2       9 UNK        -0.5000 
     27 CA         -2.4179  -20.7357  -42.1003 C.3       9 UNK         0.1400 
     28 CB         -2.7184  -20.9593  -40.6108 C.3       9 UNK        -0.1800 
     29 N          -1.5066  -19.5998  -42.2471 N.am      9 UNK        -0.5000 
     30 C          -1.2150  -19.0095  -43.4147 C.2       8 UNK         0.5000 
     31 O          -1.6687  -19.3722  -44.4991 O.2       8 UNK        -0.5000 
     32 CA         -0.2180  -17.8378  -43.3650 C.3       8 UNK         0.1400 
     33 CB         -0.9334  -16.5626  -42.8891 C.3       8 UNK        -0.1800 
     34 N           0.9540  -18.0758  -42.5161 N.am      8 UNK        -0.5000 
     35 C           1.7687  -19.1409  -42.5541 C.2       7 UNK         0.5000 
     36 O           1.5872  -20.1099  -43.2915 O.2       7 UNK        -0.5000 
     37 CA          2.9907  -19.1377  -41.6145 C.3       7 UNK         0.1400 
     38 CB          4.3004  -19.3389  -42.3944 C.3       7 UNK        -0.1800 
     39 N           3.1081  -17.9195  -40.8106 N.am      7 UNK        -0.5000 
     40 C           2.5165  -17.7085  -39.6311 C.2       6 UNK         0.5000 
     41 O           1.7348  -18.5043  -39.1102 O.2       6 UNK        -0.5000 
     42 CA          2.8524  -16.3887  -38.9104 C.3       6 UNK         0.1400 
     43 CB          4.3264  -16.3549  -38.4603 C.3       6 UNK        -0.1800 
     44 N           2.4941  -15.1697  -39.6490 N.am      6 UNK        -0.5000 
     45 C           2.9850  -14.7009  -40.8049 C.2       5 UNK         0.5000 
     46 O           3.8181  -15.2868  -41.5027 O.2       5 UNK        -0.5000 
     47 CA          2.4726  -13.3178  -41.2291 C.3       5 UNK         0.1400 
     48 CB          3.2464  -12.1988  -40.5102 C.3       5 UNK        -0.1800 
     49 N           2.6197  -13.1665  -42.6715 N.am      5 UNK        -0.5000 
     50 C           1.8277  -12.4230  -43.4518 C.2       4 UNK         0.5000 
     51 O           0.9203  -11.7137  -43.0143 O.2       4 UNK        -0.5000 
     52 CA          2.0716  -12.4631  -44.9764 C.3       4 UNK         0.1400 
     53 CB          2.7518  -11.1673  -45.4454 C.3       4 UNK        -0.1800 
     54 N           2.8472  -13.6030  -45.4775 N.am      4 UNK        -0.5000 
     55 C           2.5129  -14.8933  -45.3497 C.2       3 UNK         0.5000 
     56 O           1.5524  -15.2923  -44.6944 O.2       3 UNK        -0.5000 
     57 CA          3.3539  -15.8839  -46.1612 C.3       3 UNK         0.1400 
     58 CB          3.1110  -17.3429  -45.7482 C.3       3 UNK        -0.1800 
     59 N           2.9929  -15.7056  -47.5618 N.am      3 UNK        -0.5000 
     60 C           3.8395  -15.7356  -48.5964 C.2       2 UNK         0.5000 
     61 O           5.0382  -15.9982  -48.4911 O.2       2 UNK        -0.5000 
     62 CA          3.2592  -15.3961  -49.9871 C.3       2 UNK         0.1400 
     63 CB          2.9653  -16.6843  -50.7711 C.3       2 UNK        -0.1800 
     64 N           2.0390  -14.5817  -49.9534 N.am      2 UNK        -0.5000 
     65 C           1.9463  -13.3366  -49.4622 C.2       1 UNK         0.5000 
     66 O           2.9139  -12.7256  -49.0004 O.2       1 UNK        -0.5000 
     67 C          -0.8691  -21.8546  -47.2036 C.2       11 UNK         0.5000 
     68 O          -0.9507  -22.5368  -48.2229 O.2       11 UNK        -0.5000 
     69 N          -1.9291  -21.3349  -46.5657 N.am      12 UNK        -0.5000 
     70 CA         -3.3167  -21.4909  -46.9959 C.3       12 UNK         0.1400 
     71 CB         -4.2456  -20.6858  -46.0768 C.3       12 UNK        -0.1800 
     72 C          -3.7599  -22.9604  -47.0686 C.2       12 UNK         0.5000 
     73 O          -4.3890  -23.3415  -48.0541 O.2       12 UNK        -0.5000 
     74 N          -3.3942  -23.7642  -46.0598 N.am      13 UNK        -0.5000 
     75 CA         -3.6478  -25.2051  -46.0165 C.3       13 UNK         0.1400 
     76 CB         -3.2276  -25.7683  -44.6507 C.3       13 UNK        -0.1800 
     77 C          -2.9575  -25.9656  -47.1636 C.2       13 UNK         0.5000 
     78 O          -3.6115  -26.7603  -47.8407 O.2       13 UNK        -0.5000 
     79 N          -1.6693  -25.6724  -47.3965 N.am      14 UNK        -0.5000 
     80 CA         -0.8783  -26.2208  -48.5025 C.3       14 UNK         0.1400 
     81 CB          0.5913  -25.8061  -48.3358 C.3       14 UNK        -0.1800 
     82 C          -1.4101  -25.8011  -49.8869 C.2       14 UNK         0.5000 
     83 O          -1.3831  -26.6026  -50.8210 O.2       14 UNK        -0.5000 
     84 N          -1.9258  -24.5695  -49.9769 N.am      15 UNK        -0.5000 
     85 CA         -2.5662  -23.9865  -51.1540 C.3       15 UNK         0.1400 
     86 CB         -2.3767  -22.4605  -51.1125 C.3       15 UNK        -0.1800 
     87 C          -4.0532  -24.3757  -51.3160 C.2       15 UNK         0.5000 
     88 O          -4.7483  -23.7435  -52.1123 O.2       15 UNK        -0.5000 
     89 N          -4.5219  -25.3948  -50.5789 N.am      16 UNK        -0.5000 
     90 CA         -5.8637  -25.9857  -50.6348 C.3       16 UNK         0.1400 
     91 CB         -6.0974  -26.6727  -51.9973 C.3       16 UNK        -0.1800 
     92 C          -6.9702  -24.9763  -50.2692 C.2       16 UNK         0.5000 
     93 O          -7.8899  -24.7447  -51.0548 O.2       16 UNK        -0.5000 
     94 N          -6.8285  -24.3789  -49.0791 N.am      17 UNK        -0.5000 
     95 CA         -7.6443  -23.2969  -48.5177 C.3       17 UNK         0.1400 
     96 CB         -9.1218  -23.7139  -48.3564 C.3       17 UNK        -0.1800 
     97 C          -7.4513  -21.9772  -49.2913 C.2       17 UNK         0.5000 
     98 O          -8.4195  -21.2625  -49.5556 O.2       17 UNK        -0.5000 
     99 N          -6.1847  -21.6915  -49.6331 N.am      18 UNK        -0.5000 
    100 CA        -5.6957  -20.5063  -50.3495 C.3       18 UNK         0.1400 
    101 CB        -5.8934  -19.2432  -49.4847 C.3       18 UNK        -0.1800 
    102 C         -6.2663  -20.3572  -51.7788 C.2       18 UNK         0.5000 
    103 O         -6.3527  -19.2403  -52.2921 O.2       18 UNK        -0.5000 
    104 N         -6.6500  -21.4829  -52.3945 N.am      19 UNK        -0.5000 
    105 CA        -7.2062  -21.5491  -53.7434 C.3       19 UNK         0.1400 
    106 CB        -8.0778  -22.8082  -53.8636 C.3       19 UNK        -0.1800 
    107 C         -6.1084  -21.5493  -54.8196 C.2       19 UNK         0.5000 
    108 O         -6.2881  -20.9302  -55.8690 O.2       19 UNK        -0.5000 
    109 N         -5.0004  -22.2487  -54.5463 N.am      20 UNK        -0.5000 
    110 CA        -3.8202  -22.3064  -55.4047 C.3       20 UNK         0.1400 
    111 CB        -3.0772  -23.6231  -55.1312 C.3       20 UNK        -0.1800 
    112 C         -2.8952  -21.0999  -55.1633 C.2       20 UNK         0.5000 
    113 O         -3.0388  -20.3958  -54.1607 O.2       20 UNK        -0.5000 
    114 N         -1.9447  -20.9032  -56.0875 N.am      21 UNK        -0.5000 
    115 CA        -0.9033  -19.8657  -56.1339 C.3       21 UNK         0.1400 
    116 CB         0.0077  -19.9140  -54.8901 C.3       21 UNK        -0.1800 
    117 C         -1.4412  -18.4429  -56.3816 C.2       21 UNK         0.5000 
    118 O         -0.9590  -17.7627  -57.2887 O.2       21 UNK        -0.5000 
    119 N         -2.4251  -18.0238  -55.5832 N.am      22 UNK        -0.5000 
    120 CA        -3.1367  -16.7459  -55.7024 C.3       22 UNK         0.1400 
    121 C         -4.1062  -16.7122  -56.9169 C.2       22 UNK         0.5000 
    122 N         -4.3759  -15.5349  -57.4650 N.am      22 UNK        -0.7600 
    123 O         -4.6423  -17.7302  -57.3490 O.2       22 UNK        -0.5000 
    124 C124       -3.8803  -16.3936  -54.3908 C.3       23 UNK        -0.0398 
    125 S125       -2.7234  -16.1652  -52.9978 S.3       23 UNK        -0.2404 
    126 C126       -3.2411  -17.5049  -51.8839 C.3       23 UNK        -0.0205 
    127 H127        0.2294   -8.3378  -48.3144 H         1 UNK         0.0600 
    128 H128        1.8376   -8.7962  -47.7428 H         1 UNK         0.0600 
    129 H129        0.4012   -9.5257  -47.0199 H         1 UNK         0.0600 
    130 H130        0.1842  -11.6397  -47.6842 H         1 UNK         0.3000 
    131 H131        0.3537  -12.3879  -50.5036 H         1 UNK         0.0600 
    132 H132       -1.5634  -13.1546  -49.1177 H         1 UNK         0.0800 
    133 H133       -0.6827  -14.4592  -49.8409 H         1 UNK         0.0800 
    134 H134       -2.6856  -15.2122  -47.4642 H         1 UNK         0.0800 
    135 H135       -1.6739  -16.2281  -46.4689 H         1 UNK         0.0800 
    136 H136       -3.2293  -15.9318  -49.6698 H         1 UNK         0.1150 
    137 H137       -1.2256  -19.2782  -51.4282 H         1 UNK         0.1150 
    138 H138        0.1655  -17.6284  -47.7101 H         1 UNK         0.1150 
    139 H139        0.1505  -20.6836  -49.6240 H         1 UNK         0.0800 
    140 H140        1.1963  -19.6207  -50.5062 H         1 UNK         0.0800 
    141 H141        0.1044  -19.4548  -46.5701 H         1 UNK         0.0800 
    142 H142        1.6299  -19.8942  -45.8986 H         1 UNK         0.0800 
    143 H143        1.2357  -22.2462  -47.0795 H         1 UNK         0.0600 
    144 H144        0.7196  -21.3149  -44.4747 H         1 UNK         0.3000 
    145 H145       -0.4473  -24.3219  -42.9765 H         1 UNK         0.0600 
    146 H146        1.4341  -23.7291  -41.4659 H         1 UNK         0.0600 
    147 H147        2.1390  -22.6932  -42.7062 H         1 UNK         0.0600 
    148 H148        2.0402  -24.4306  -42.9581 H         1 UNK         0.0600 
    149 H149       -0.0078  -21.6117  -42.0795 H         1 UNK         0.3000 
    150 H150       -3.3549  -20.4826  -42.6009 H         1 UNK         0.0600 
    151 H151       -3.4082  -21.7931  -40.4730 H         1 UNK         0.0600 
    152 H152       -3.1822  -20.0787  -40.1659 H         1 UNK         0.0600 
    153 H153       -1.8135  -21.1845  -40.0449 H         1 UNK         0.0600 
    154 H154       -1.0734  -19.2464  -41.4064 H         1 UNK         0.3000 
    155 H155        0.1451  -17.6704  -44.3805 H         1 UNK         0.0600 
    156 H156       -0.2623  -15.7043  -42.8820 H         1 UNK         0.0600 
    157 H157       -1.3340  -16.6759  -41.8811 H         1 UNK         0.0600 
    158 H158       -1.7660  -16.3150  -43.5490 H         1 UNK         0.0600 
    159 H159        1.2023  -17.3308  -41.8835 H         1 UNK         0.3000 
    160 H160        2.8695  -19.9944  -40.9483 H         1 UNK         0.0600 
    161 H161        4.5354  -18.4794  -43.0212 H         1 UNK         0.0600 
    162 H162        4.2504  -20.2169  -43.0400 H         1 UNK         0.0600 
    163 H163        5.1385  -19.4887  -41.7137 H         1 UNK         0.0600 
    164 H164        3.6687  -17.1624  -41.1939 H         1 UNK         0.3000 
    165 H165        2.2434  -16.3703  -38.0051 H         1 UNK         0.0600 
    166 H166        4.5320  -15.4710  -37.8567 H         1 UNK         0.0600 
    167 H167        4.5672  -17.2268  -37.8509 H         1 UNK         0.0600 
    168 H168        5.0157  -16.3489  -39.3051 H         1 UNK         0.0600 
    169 H169        1.7973  -14.6029  -39.1853 H         1 UNK         0.3000 
    170 H170        1.4147  -13.2559  -40.9644 H         1 UNK         0.0600 
    171 H171        4.3086  -12.2246  -40.7570 H         1 UNK         0.0600 
    172 H172        2.8637  -11.2151  -40.7829 H         1 UNK         0.0600 
    173 H173        3.1579  -12.2912  -39.4271 H         1 UNK         0.0600 
    174 H174        3.3096  -13.7736  -43.0942 H         1 UNK         0.3000 
    175 H175        1.0881  -12.5163  -45.4470 H         1 UNK         0.0600 
    176 H176        3.7524  -11.0658  -45.0236 H         1 UNK         0.0600 
    177 H177        2.8410  -11.1381  -46.5315 H         1 UNK         0.0600 
    178 H178        2.1779  -10.2900  -45.1441 H         1 UNK         0.0600 
    179 H179        3.6352  -13.3722  -46.0657 H         1 UNK         0.3000 
    180 H180        4.4059  -15.6411  -45.9976 H         1 UNK         0.0600 
    181 H181        2.0741  -17.6278  -45.9195 H         1 UNK         0.0600 
    182 H182        3.3187  -17.4853  -44.6891 H         1 UNK         0.0600 
    183 H183        3.7489  -18.0272  -46.3072 H         1 UNK         0.0600 
    184 H184        2.0304  -15.4477  -47.7339 H         1 UNK         0.3000 
    185 H185        4.0213  -14.8313  -50.5276 H         1 UNK         0.0600 
    186 H186        2.6501  -16.4652  -51.7913 H         1 UNK         0.0600 
    187 H187        3.8513  -17.3174  -50.8338 H         1 UNK         0.0600 
    188 H188        2.1785  -17.2687  -50.2942 H         1 UNK         0.0600 
    189 H189        1.2073  -15.0278  -50.3112 H         1 UNK         0.3000 
    190 H190       -1.7791  -20.7613  -45.7388 H         1 UNK         0.3000 
    191 H191       -3.3940  -21.0726  -48.0012 H         1 UNK         0.0600 
    192 H192       -4.0052  -19.6230  -46.1099 H         1 UNK         0.0600 
    193 H193       -4.1692  -21.0137  -45.0398 H         1 UNK         0.0600 
    194 H194       -5.2877  -20.7936  -46.3807 H         1 UNK         0.0600 
    195 H195       -2.9157  -23.3623  -45.2592 H         1 UNK         0.3000 
    196 H196       -4.7244  -25.3529  -46.1240 H         1 UNK         0.0600 
    197 H197       -3.7859  -25.2959  -43.8423 H         1 UNK         0.0600 
    198 H198       -2.1661  -25.6121  -44.4583 H         1 UNK         0.0600 
    199 H199       -3.4183  -26.8407  -44.5943 H         1 UNK         0.0600 
    200 H200       -1.1945  -25.0154  -46.7833 H         1 UNK         0.3000 
    201 H201       -0.9335  -27.3097  -48.4435 H         1 UNK         0.0600 
    202 H202        0.9977  -26.1682  -47.3913 H         1 UNK         0.0600 
    203 H203        0.7084  -24.7220  -48.3551 H         1 UNK         0.0600 
    204 H204        1.2077  -26.2183  -49.1356 H         1 UNK         0.0600 
    205 H205       -1.8386  -23.9560  -49.1708 H         1 UNK         0.3000 
    206 H206       -2.0505  -24.3599  -52.0396 H         1 UNK         0.0600 
    207 H207       -1.3192  -22.1975  -51.1290 H         1 UNK         0.0600 
    208 H208       -2.8085  -22.0329  -50.2089 H         1 UNK         0.0600 
    209 H209       -2.8415  -21.9707  -51.9683 H         1 UNK         0.0600 
    210 H210       -3.8931  -25.8147  -49.9063 H         1 UNK         0.3000 
    211 H211       -5.8890  -26.7620  -49.8686 H         1 UNK         0.0600 
    212 H212       -6.1142  -25.9559  -52.8190 H         1 UNK         0.0600 
    213 H213       -7.0509  -27.2018  -52.0075 H         1 UNK         0.0600 
    214 H214       -5.3177  -27.4046  -52.2076 H         1 UNK         0.0600 
    215 H215       -5.9702  -24.5607  -48.5705 H         1 UNK         0.3000 
    216 H216       -7.2508  -23.1157  -47.5164 H         1 UNK         0.0600 
    217 H217       -9.6759  -22.9637  -47.7913 H         1 UNK         0.0600 
    218 H218       -9.2091  -24.6565  -47.8162 H         1 UNK         0.0600 
    219 H219       -9.6230  -23.8288  -49.3176 H         1 UNK         0.0600 
    220 H220       -5.4748  -22.3575  -49.3431 H         1 UNK         0.3000 
    221 H221       -4.6228  -20.6437  -50.4765 H         1 UNK         0.0600 
    222 H222       -6.9483  -18.9973  -49.3620 H         1 UNK         0.0600 
    223 H223       -5.4613  -19.3720  -48.4931 H         1 UNK         0.0600 
    224 H224       -5.4098  -18.3760  -49.9299 H         1 UNK         0.0600 
    225 H225       -6.4866  -22.3674  -51.9298 H         1 UNK         0.3000 
    226 H226       -7.8440  -20.6783  -53.9093 H         1 UNK         0.0600 
    227 H227       -8.8869  -22.7982  -53.1329 H         1 UNK         0.0600 
    228 H228       -8.5312  -22.8777  -54.8531 H         1 UNK         0.0600 
    229 H229       -7.4957  -23.7169  -53.7026 H         1 UNK         0.0600 
    230 H230       -4.9263  -22.7123  -53.6438 H         1 UNK         0.3000 
    231 H231       -4.1376  -22.2981  -56.4496 H         1 UNK         0.0600 
    232 H232       -2.2584  -23.7681  -55.8365 H         1 UNK         0.0600 
    233 H233       -3.7425  -24.4817  -55.2251 H         1 UNK         0.0600 
    234 H234       -2.6503  -23.6375  -54.1301 H         1 UNK         0.0600 
    235 H235       -1.9364  -21.5298  -56.8803 H         1 UNK         0.3000 
    236 H236       -0.2823  -20.1172  -56.9952 H         1 UNK         0.0600 
    237 H237       -0.5228  -19.6368  -53.9788 H         1 UNK         0.0600 
    238 H238        0.4247  -20.9105  -54.7450 H         1 UNK         0.0600 
    239 H239        0.8448  -19.2232  -54.9974 H         1 UNK         0.0600 
    240 H240       -2.7746  -18.6802  -54.8910 H         1 UNK         0.3000 
    241 H241       -2.3837  -15.9741  -55.8757 H         1 UNK         0.0600 
    242 H242       -5.0120  -15.4939  -58.2466 H         1 UNK         0.3800 
    243 H243       -3.9527  -14.6831  -57.1293 H         1 UNK         0.3800 
    244 H244       -4.6167  -17.1625  -54.1484 H         1 UNK         0.0800 
    245 H245       -4.4389  -15.4629  -54.5037 H         1 UNK         0.0800 
    246 H246       -3.2535  -18.4525  -52.4229 H         1 UNK         0.0800 
    247 H247       -4.2645  -17.3162  -51.5608 H         1 UNK         0.0800 
@<TRIPOS>BOND
     1    1    2 1    
     2    1  127 1    
     3    1  128 1    
     4    1  129 1    
     5    2    3 2    
     6    2    4 am   BACKBONE|DICT|INTERRES
     7    4    5 1    
     8    4  130 1    
     9    5    6 1    
    10    5   65 1    
    11    5  131 1    
    12    6    7 1    
    13    6  132 1    
    14    6  133 1    
    15    7    8 1    
    16    8    9 1    
    17    8  134 1    
    18    8  135 1    
    19    9   10 ar   
    20    9   14 ar   
    21   10   11 ar   
    22   10  136 1    
    23   11   12 ar   
    24   11  126 1    
    25   12   13 ar   
    26   12  137 1    
    27   13   14 ar   
    28   13   15 1    
    29   14  138 1    
    30   15   16 1    
    31   15  139 1    
    32   15  140 1    
    33   16   17 1    
    34   17   18 1    
    35   17  141 1    
    36   17  142 1    
    37   18   19 1    
    38   18   67 1    
    39   18  143 1    
    40   19   20 am   BACKBONE|DICT|INTERRES
    41   19  144 1    
    42   20   21 2    
    43   20   22 1    
    44   22   23 1    
    45   22   24 1    
    46   22  145 1    
    47   23  146 1    
    48   23  147 1    
    49   23  148 1    
    50   24   25 am   BACKBONE|DICT|INTERRES
    51   24  149 1    
    52   25   26 2    
    53   25   27 1    
    54   27   28 1    
    55   27   29 1    
    56   27  150 1    
    57   28  151 1    
    58   28  152 1    
    59   28  153 1    
    60   29   30 am   BACKBONE|DICT|INTERRES
    61   29  154 1    
    62   30   31 2    
    63   30   32 1    
    64   32   33 1    
    65   32   34 1    
    66   32  155 1    
    67   33  156 1    
    68   33  157 1    
    69   33  158 1    
    70   34   35 am   BACKBONE|DICT|INTERRES
    71   34  159 1    
    72   35   36 2    
    73   35   37 1    
    74   37   38 1    
    75   37   39 1    
    76   37  160 1    
    77   38  161 1    
    78   38  162 1    
    79   38  163 1    
    80   39   40 am   BACKBONE|DICT|INTERRES
    81   39  164 1    
    82   40   41 2    
    83   40   42 1    
    84   42   43 1    
    85   42   44 1    
    86   42  165 1    
    87   43  166 1    
    88   43  167 1    
    89   43  168 1    
    90   44   45 am   BACKBONE|DICT|INTERRES
    91   44  169 1    
    92   45   46 2    
    93   45   47 1    
    94   47   48 1    
    95   47   49 1    
    96   47  170 1    
    97   48  171 1    
    98   48  172 1    
    99   48  173 1    
   100   49   50 am   BACKBONE|DICT|INTERRES
   101   49  174 1    
   102   50   51 2    
   103   50   52 1    
   104   52   53 1    
   105   52   54 1    
   106   52  175 1    
   107   53  176 1    
   108   53  177 1    
   109   53  178 1    
   110   54   55 am   BACKBONE|DICT|INTERRES
   111   54  179 1    
   112   55   56 2    
   113   55   57 1    
   114   57   58 1    
   115   57   59 1    
   116   57  180 1    
   117   58  181 1    
   118   58  182 1    
   119   58  183 1    
   120   59   60 am   BACKBONE|DICT|INTERRES
   121   59  184 1    
   122   60   61 2    
   123   60   62 1    
   124   62   63 1    
   125   62   64 1    
   126   62  185 1    
   127   63  186 1    
   128   63  187 1    
   129   63  188 1    
   130   64   65 am   BACKBONE|DICT|INTERRES
   131   64  189 1    
   132   65   66 2    
   133   67   68 2    
   134   67   69 am   BACKBONE|DICT|INTERRES
   135   69   70 1    
   136   69  190 1    
   137   70   71 1    
   138   70   72 1    
   139   70  191 1    
   140   71  192 1    
   141   71  193 1    
   142   71  194 1    
   143   72   73 2    
   144   72   74 am   BACKBONE|DICT|INTERRES
   145   74   75 1    
   146   74  195 1    
   147   75   76 1    
   148   75   77 1    
   149   75  196 1    
   150   76  197 1    
   151   76  198 1    
   152   76  199 1    
   153   77   78 2    
   154   77   79 am   BACKBONE|DICT|INTERRES
   155   79   80 1    
   156   79  200 1    
   157   80   81 1    
   158   80   82 1    
   159   80  201 1    
   160   81  202 1    
   161   81  203 1    
   162   81  204 1    
   163   82   83 2    
   164   82   84 am   BACKBONE|DICT|INTERRES
   165   84   85 1    
   166   84  205 1    
   167   85   86 1    
   168   85   87 1    
   169   85  206 1    
   170   86  207 1    
   171   86  208 1    
   172   86  209 1    
   173   87   88 2    
   174   87   89 am   BACKBONE|DICT|INTERRES
   175   89   90 1    
   176   89  210 1    
   177   90   91 1    
   178   90   92 1    
   179   90  211 1    
   180   91  212 1    
   181   91  213 1    
   182   91  214 1    
   183   92   93 2    
   184   92   94 am   BACKBONE|DICT|INTERRES
   185   94   95 1    
   186   94  215 1    
   187   95   96 1    
   188   95   97 1    
   189   95  216 1    
   190   96  217 1    
   191   96  218 1    
   192   96  219 1    
   193   97   98 2    
   194   97   99 am   BACKBONE|DICT|INTERRES
   195   99  100 1    
   196   99  220 1    
   197  100  101 1    
   198  100  102 1    
   199  100  221 1    
   200  101  222 1    
   201  101  223 1    
   202  101  224 1    
   203  102  103 2    
   204  102  104 am   BACKBONE|DICT|INTERRES
   205  104  105 1    
   206  104  225 1    
   207  105  106 1    
   208  105  107 1    
   209  105  226 1    
   210  106  227 1    
   211  106  228 1    
   212  106  229 1    
   213  107  108 2    
   214  107  109 am   BACKBONE|DICT|INTERRES
   215  109  110 1    
   216  109  230 1    
   217  110  111 1    
   218  110  112 1    
   219  110  231 1    
   220  111  232 1    
   221  111  233 1    
   222  111  234 1    
   223  112  113 2    
   224  112  114 am   BACKBONE|DICT|INTERRES
   225  114  115 1    
   226  114  235 1    
   227  115  116 1    
   228  115  117 1    
   229  115  236 1    
   230  116  237 1    
   231  116  238 1    
   232  116  239 1    
   233  117  118 2    
   234  117  119 am   BACKBONE|DICT|INTERRES
   235  119  120 1    
   236  119  240 1    
   237  120  121 1    
   238  120  124 1    
   239  120  241 1    
   240  121  122 am   BACKBONE|DICT|INTERRES
   241  121  123 2    
   242  122  242 1    
   243  122  243 1    
   244  124  125 1    
   245  124  244 1    
   246  124  245 1    
   247  125  126 1    
   248  126  246 1    
   249  126  247 1    
@<TRIPOS>SUBSTRUCTURE
     1 UNK         1 GROUP             0       ****    0 ROOT    
