@<TRIPOS>MOLECULE
3R540
247   249    1
SMALL
USER_CHARGES


@<TRIPOS>ATOM
      1 CA         -3.7113   -8.1875  -49.9620 C.3       0 UNK        -0.1800 
      2 C          -3.0915   -9.3887  -49.2614 C.2       0 UNK         0.5000 
      3 O          -1.8754   -9.4271  -49.0728 O.2       0 UNK        -0.5000 
      4 N          -3.9202  -10.3701  -48.8839 N.am      1 UNK        -0.5000 
      5 CA         -3.5186  -11.5646  -48.1362 C.3       1 UNK         0.1400 
      6 C6         -4.6242  -12.6487  -48.1848 C.3       23 UNK        -0.0398 
      7 S7         -3.9820  -14.3029  -47.7643 S.3       23 UNK        -0.2404 
      8 C8         -4.3868  -15.2521  -49.2623 C.3       23 UNK        -0.0205 
      9 C9         -3.7210  -16.6157  -49.2135 C.ar      23 UNK        -0.0193 
     10 C10        -2.5339  -16.8415  -49.9155 C.ar      23 UNK        -0.1150 
     11 C11        -1.8739  -18.0756  -49.8313 C.ar      23 UNK        -0.0193 
     12 C12        -2.4273  -19.0768  -49.0272 C.ar      23 UNK        -0.1150 
     13 C13        -3.6116  -18.8636  -48.3172 C.ar      23 UNK        -0.0193 
     14 C14        -4.2649  -17.6350  -48.4283 C.ar      23 UNK        -0.1150 
     15 C15        -4.1599  -19.9496  -47.4052 C.3       23 UNK        -0.0205 
     16 S16        -3.7675  -19.5600  -45.6686 S.3       23 UNK        -0.2404 
     17 C17        -3.8198  -21.1535  -44.7758 C.3       23 UNK        -0.0398 
     18 CA         -3.2074  -22.3871  -45.4875 C.3       11 UNK         0.1400 
     19 N          -1.8684  -22.1537  -46.0471 N.am      11 UNK        -0.5000 
     20 C          -1.2246  -23.0325  -46.8319 C.2       10 UNK         0.5000 
     21 O          -1.7166  -24.0980  -47.1967 O.2       10 UNK        -0.5000 
     22 CA          0.2297  -22.7149  -47.2200 C.3       10 UNK         0.1400 
     23 CB          0.3115  -21.8589  -48.4918 C.3       10 UNK        -0.1800 
     24 N           0.9498  -22.0616  -46.1300 N.am      10 UNK        -0.5000 
     25 C           1.4203  -22.7034  -45.0521 C.2       9 UNK         0.5000 
     26 O           1.3608  -23.9239  -44.9043 O.2       9 UNK        -0.5000 
     27 CA          2.0272  -21.8335  -43.9354 C.3       9 UNK         0.1400 
     28 CB          3.5179  -21.5739  -44.1983 C.3       9 UNK        -0.1800 
     29 N           1.3335  -20.5549  -43.7759 N.am      9 UNK        -0.5000 
     30 C           0.0768  -20.4285  -43.3264 C.2       8 UNK         0.5000 
     31 O          -0.6182  -21.3789  -42.9682 O.2       8 UNK        -0.5000 
     32 CA         -0.5257  -19.0107  -43.3195 C.3       8 UNK         0.1400 
     33 CB         -0.2550  -18.3144  -41.9775 C.3       8 UNK        -0.1800 
     34 N          -0.0556  -18.1489  -44.4061 N.am      8 UNK        -0.5000 
     35 C          -0.1517  -18.4204  -45.7158 C.2       7 UNK         0.5000 
     36 O          -0.5645  -19.4865  -46.1685 O.2       7 UNK        -0.5000 
     37 CA          0.3581  -17.3318  -46.6733 C.3       7 UNK         0.1400 
     38 CB         -0.7094  -16.2439  -46.8573 C.3       7 UNK        -0.1800 
     39 N           1.6028  -16.7094  -46.2205 N.am      7 UNK        -0.5000 
     40 C           2.7651  -17.3491  -46.0176 C.2       6 UNK         0.5000 
     41 O           2.9079  -18.5630  -46.1711 O.2       6 UNK        -0.5000 
     42 CA          3.9517  -16.4970  -45.5222 C.3       6 UNK         0.1400 
     43 CB          5.3141  -17.0027  -46.0406 C.3       6 UNK        -0.1800 
     44 N           3.7747  -15.0595  -45.7614 N.am      6 UNK        -0.5000 
     45 C           3.7843  -14.4048  -46.9349 C.2       5 UNK         0.5000 
     46 O           4.0084  -14.9477  -48.0168 O.2       5 UNK        -0.5000 
     47 CA          3.4572  -12.8946  -46.9086 C.3       5 UNK         0.1400 
     48 CB          2.2973  -12.5676  -47.8653 C.3       5 UNK        -0.1800 
     49 N           3.1106  -12.4137  -45.5685 N.am      5 UNK        -0.5000 
     50 C           3.9983  -12.0312  -44.6379 C.2       4 UNK         0.5000 
     51 O           5.2102  -11.9627  -44.8432 O.2       4 UNK        -0.5000 
     52 CA          3.4537  -11.7028  -43.2312 C.3       4 UNK         0.1400 
     53 CB          3.3182  -10.1830  -43.0520 C.3       4 UNK        -0.1800 
     54 N           2.1633  -12.3286  -42.9316 N.am      4 UNK        -0.5000 
     55 C           1.9247  -13.6468  -42.8627 C.2       3 UNK         0.5000 
     56 O           2.7953  -14.5061  -42.9966 O.2       3 UNK        -0.5000 
     57 CA          0.4543  -14.0768  -42.6845 C.3       3 UNK         0.1400 
     58 CB          0.1498  -14.3694  -41.2083 C.3       3 UNK        -0.1800 
     59 N          -0.5034  -13.0881  -43.1937 N.am      3 UNK        -0.5000 
     60 C          -0.6085  -12.7304  -44.4803 C.2       2 UNK         0.5000 
     61 O           0.0799  -13.2160  -45.3817 O.2       2 UNK        -0.5000 
     62 CA         -1.5867  -11.5951  -44.7992 C.3       2 UNK         0.1400 
     63 CB         -0.8916  -10.2302  -44.6341 C.3       2 UNK        -0.1800 
     64 N          -2.0600  -11.7586  -46.1684 N.am      2 UNK        -0.5000 
     65 C          -3.1584  -11.1944  -46.6802 C.2       1 UNK         0.5000 
     66 O          -3.8934  -10.4300  -46.0486 O.2       1 UNK        -0.5000 
     67 C          -3.2231  -23.6060  -44.5392 C.2       11 UNK         0.5000 
     68 O          -4.1398  -24.4263  -44.6136 O.2       11 UNK        -0.5000 
     69 N          -2.1853  -23.7229  -43.6970 N.am      12 UNK        -0.5000 
     70 CA         -1.9635  -24.8473  -42.7861 C.3       12 UNK         0.1400 
     71 CB         -0.7895  -24.5186  -41.8521 C.3       12 UNK        -0.1800 
     72 C          -1.7184  -26.1855  -43.5096 C.2       12 UNK         0.5000 
     73 O          -2.0823  -27.2349  -42.9776 O.2       12 UNK        -0.5000 
     74 N          -1.1550  -26.1348  -44.7240 N.am      13 UNK        -0.5000 
     75 CA         -0.9138  -27.2791  -45.6055 C.3       13 UNK         0.1400 
     76 CB          0.2614  -26.9463  -46.5429 C.3       13 UNK        -0.1800 
     77 C          -2.1882  -27.7063  -46.3696 C.2       13 UNK         0.5000 
     78 O          -2.1477  -27.8866  -47.5878 O.2       13 UNK        -0.5000 
     79 N          -3.2951  -27.8683  -45.6287 N.am      14 UNK        -0.5000 
     80 CA         -4.6308  -28.2706  -46.0816 C.3       14 UNK         0.1400 
     81 CB         -4.6265  -29.7484  -46.5254 C.3       14 UNK        -0.1800 
     82 C          -5.2086  -27.3196  -47.1501 C.2       14 UNK         0.5000 
     83 O          -5.6278  -27.7665  -48.2198 O.2       14 UNK        -0.5000 
     84 N          -5.1844  -26.0134  -46.8488 N.am      15 UNK        -0.5000 
     85 CA         -5.6324  -24.8701  -47.6562 C.3       15 UNK         0.1400 
     86 CB         -7.1214  -24.9824  -48.0360 C.3       15 UNK        -0.1800 
     87 C          -4.7671  -24.5717  -48.8959 C.2       15 UNK         0.5000 
     88 O          -4.5705  -23.3980  -49.2107 O.2       15 UNK        -0.5000 
     89 N          -4.2972  -25.6199  -49.5876 N.am      16 UNK        -0.5000 
     90 CA         -3.4181  -25.6113  -50.7650 C.3       16 UNK         0.1400 
     91 CB         -2.0062  -25.1356  -50.3677 C.3       16 UNK        -0.1800 
     92 C          -3.9868  -24.8314  -51.9731 C.2       16 UNK         0.5000 
     93 O          -3.2213  -24.3342  -52.7988 O.2       16 UNK        -0.5000 
     94 N          -5.3236  -24.7304  -52.0447 N.am      17 UNK        -0.5000 
     95 CA         -6.1020  -23.9077  -52.9798 C.3       17 UNK         0.1400 
     96 CB         -5.9446  -24.4050  -54.4324 C.3       17 UNK        -0.1800 
     97 C          -5.8522  -22.3895  -52.8149 C.2       17 UNK         0.5000 
     98 O          -6.0221  -21.6282  -53.7696 O.2       17 UNK        -0.5000 
     99 N          -5.4836  -21.9783  -51.5916 N.am      18 UNK        -0.5000 
    100 CA        -5.2219  -20.6115  -51.1451 C.3       18 UNK         0.1400 
    101 CB        -6.5406  -19.8133  -51.0433 C.3       18 UNK        -0.1800 
    102 C         -4.1203  -19.9291  -51.9789 C.2       18 UNK         0.5000 
    103 O         -3.0118  -20.4608  -52.0565 O.2       18 UNK        -0.5000 
    104 N         -4.4367  -18.7773  -52.5880 N.am      19 UNK        -0.5000 
    105 CA        -3.5224  -17.9150  -53.3420 C.3       19 UNK         0.1400 
    106 CB        -4.2912  -16.6803  -53.8332 C.3       19 UNK        -0.1800 
    107 C         -2.7861  -18.5987  -54.5093 C.2       19 UNK         0.5000 
    108 O         -1.7158  -18.1313  -54.8966 O.2       19 UNK        -0.5000 
    109 N         -3.3191  -19.7195  -55.0146 N.am      20 UNK        -0.5000 
    110 CA        -2.6680  -20.5824  -56.0033 C.3       20 UNK         0.1400 
    111 CB        -3.6279  -21.7214  -56.3734 C.3       20 UNK        -0.1800 
    112 C         -1.3110  -21.1556  -55.5369 C.2       20 UNK         0.5000 
    113 O         -0.4720  -21.4732  -56.3807 O.2       20 UNK        -0.5000 
    114 N         -1.1086  -21.2602  -54.2158 N.am      21 UNK        -0.5000 
    115 CA         0.1288  -21.7331  -53.5993 C.3       21 UNK         0.1400 
    116 CB        -0.2041  -22.3316  -52.2247 C.3       21 UNK        -0.1800 
    117 C          1.2148  -20.6474  -53.4588 C.2       21 UNK         0.5000 
    118 O          2.3397  -20.9969  -53.0969 O.2       21 UNK        -0.5000 
    119 N          0.8915  -19.3697  -53.7103 N.am      22 UNK        -0.5000 
    120 CA         1.8169  -18.2424  -53.4911 C.3       22 UNK         0.1400 
    121 C          1.7622  -17.1036  -54.5484 C.2       22 UNK         0.5000 
    122 N          0.7501  -17.0091  -55.3990 N.am      22 UNK        -0.7600 
    123 O          2.6871  -16.2988  -54.6235 O.2       22 UNK        -0.5000 
    124 C124        1.7626  -17.7152  -52.0321 C.3       23 UNK        -0.0398 
    125 S125        0.1464  -17.0137  -51.5431 S.3       23 UNK        -0.2404 
    126 C126       -0.5661  -18.3835  -50.5666 C.3       23 UNK        -0.0205 
    127 H127       -3.2807   -8.0696  -50.9564 H         1 UNK         0.0600 
    128 H128       -3.5133   -7.2787  -49.3935 H         1 UNK         0.0600 
    129 H129       -4.7912   -8.2929  -50.0694 H         1 UNK         0.0600 
    130 H130       -4.9124  -10.2614  -49.0375 H         1 UNK         0.3000 
    131 H131       -2.6268  -11.9626  -48.6265 H         1 UNK         0.0600 
    132 H132       -5.0573  -12.6903  -49.1852 H         1 UNK         0.0800 
    133 H133       -5.4516  -12.4055  -47.5154 H         1 UNK         0.0800 
    134 H134       -5.4686  -15.3669  -49.3441 H         1 UNK         0.0800 
    135 H135       -4.0604  -14.7032  -50.1471 H         1 UNK         0.0800 
    136 H136       -2.1266  -16.0384  -50.5105 H         1 UNK         0.1150 
    137 H137       -1.9312  -20.0318  -48.9471 H         1 UNK         0.1150 
    138 H138       -5.1720  -17.4567  -47.8681 H         1 UNK         0.1150 
    139 H139       -5.2407  -20.0342  -47.5260 H         1 UNK         0.0800 
    140 H140       -3.7382  -20.9082  -47.7031 H         1 UNK         0.0800 
    141 H141       -4.8643  -21.3533  -44.5301 H         1 UNK         0.0800 
    142 H142       -3.3189  -20.9865  -43.8206 H         1 UNK         0.0800 
    143 H143       -3.8569  -22.6428  -46.3238 H         1 UNK         0.0600 
    144 H144       -1.4293  -21.2604  -45.8448 H         1 UNK         0.3000 
    145 H145        0.7172  -23.6674  -47.4394 H         1 UNK         0.0600 
    146 H146        1.3216  -21.8644  -48.9013 H         1 UNK         0.0600 
    147 H147       -0.3558  -22.2424  -49.2637 H         1 UNK         0.0600 
    148 H148        0.0418  -20.8221  -48.3026 H         1 UNK         0.0600 
    149 H149        0.9656  -21.0495  -46.1434 H         1 UNK         0.3000 
    150 H150        1.9376  -22.3868  -42.9980 H         1 UNK         0.0600 
    151 H151        4.0670  -22.5123  -44.2864 H         1 UNK         0.0600 
    152 H152        3.9702  -21.0080  -43.3838 H         1 UNK         0.0600 
    153 H153        3.6730  -21.0153  -45.1222 H         1 UNK         0.0600 
    154 H154        1.8189  -19.7299  -44.0988 H         1 UNK         0.3000 
    155 H155       -1.6056  -19.1177  -43.4354 H         1 UNK         0.0600 
    156 H156       -0.6044  -18.9242  -41.1432 H         1 UNK         0.0600 
    157 H157       -0.7744  -17.3579  -41.9175 H         1 UNK         0.0600 
    158 H158        0.8094  -18.1296  -41.8266 H         1 UNK         0.0600 
    159 H159        0.3337  -17.2588  -44.1378 H         1 UNK         0.3000 
    160 H160        0.5473  -17.8006  -47.6402 H         1 UNK         0.0600 
    161 H161       -0.8808  -15.6848  -45.9374 H         1 UNK         0.0600 
    162 H162       -1.6647  -16.6816  -47.1465 H         1 UNK         0.0600 
    163 H163       -0.4264  -15.5353  -47.6359 H         1 UNK         0.0600 
    164 H164        1.5786  -15.7109  -46.0742 H         1 UNK         0.3000 
    165 H165        3.9602  -16.6131  -44.4377 H         1 UNK         0.0600 
    166 H166        5.3541  -17.0246  -47.1297 H         1 UNK         0.0600 
    167 H167        6.1302  -16.3735  -45.6854 H         1 UNK         0.0600 
    168 H168        5.5116  -18.0164  -45.6903 H         1 UNK         0.0600 
    169 H169        3.5644  -14.5254  -44.9257 H         1 UNK         0.3000 
    170 H170        4.3433  -12.3636  -47.2621 H         1 UNK         0.0600 
    171 H171        2.5711  -12.7844  -48.8985 H         1 UNK         0.0600 
    172 H172        1.4066  -13.1534  -47.6375 H         1 UNK         0.0600 
    173 H173        2.0275  -11.5125  -47.8172 H         1 UNK         0.0600 
    174 H174        2.1297  -12.4674  -45.3212 H         1 UNK         0.3000 
    175 H175        4.1805  -12.0727  -42.5051 H         1 UNK         0.0600 
    176 H176        2.5824   -9.7613  -43.7383 H         1 UNK         0.0600 
    177 H177        3.0144   -9.9304  -42.0360 H         1 UNK         0.0600 
    178 H178        4.2680   -9.6804  -43.2396 H         1 UNK         0.0600 
    179 H179        1.3825  -11.7023  -42.8058 H         1 UNK         0.3000 
    180 H180        0.3143  -14.9999  -43.2507 H         1 UNK         0.0600 
    181 H181        0.2559  -13.4770  -40.5903 H         1 UNK         0.0600 
    182 H182        0.8282  -15.1264  -40.8123 H         1 UNK         0.0600 
    183 H183       -0.8648  -14.7477  -41.0821 H         1 UNK         0.0600 
    184 H184       -1.0941  -12.6397  -42.5078 H         1 UNK         0.3000 
    185 H185       -2.4360  -11.6635  -44.1161 H         1 UNK         0.0600 
    186 H186       -0.5171  -10.0988  -43.6183 H         1 UNK         0.0600 
    187 H187       -0.0443  -10.1279  -45.3137 H         1 UNK         0.0600 
    188 H188       -1.5776   -9.4065  -44.8316 H         1 UNK         0.0600 
    189 H189       -1.5098  -12.4063  -46.7196 H         1 UNK         0.3000 
    190 H190       -1.5040  -22.9700  -43.6536 H         1 UNK         0.3000 
    191 H191       -2.8619  -24.9640  -42.1768 H         1 UNK         0.0600 
    192 H192        0.1334  -24.3551  -42.4095 H         1 UNK         0.0600 
    193 H193       -0.9904  -23.6208  -41.2672 H         1 UNK         0.0600 
    194 H194       -0.6092  -25.3315  -41.1476 H         1 UNK         0.0600 
    195 H195       -0.9220  -25.2279  -45.1047 H         1 UNK         0.3000 
    196 H196       -0.6107  -28.1315  -44.9942 H         1 UNK         0.0600 
    197 H197        1.1467  -26.6534  -45.9782 H         1 UNK         0.0600 
    198 H198        0.0157  -26.1325  -47.2250 H         1 UNK         0.0600 
    199 H199        0.5348  -27.8104  -47.1493 H         1 UNK         0.0600 
    200 H200       -3.2013  -27.6958  -44.6335 H         1 UNK         0.3000 
    201 H201       -5.2879  -28.1904  -45.2145 H         1 UNK         0.0600 
    202 H202       -5.6347  -30.0855  -46.7694 H         1 UNK         0.0600 
    203 H203       -4.2515  -30.3964  -45.7334 H         1 UNK         0.0600 
    204 H204       -4.0067  -29.9057  -47.4087 H         1 UNK         0.0600 
    205 H205       -4.7649  -25.7434  -45.9634 H         1 UNK         0.3000 
    206 H206       -5.5439  -24.0038  -47.0017 H         1 UNK         0.0600 
    207 H207       -7.7425  -25.1352  -47.1534 H         1 UNK         0.0600 
    208 H208       -7.3101  -25.8047  -48.7263 H         1 UNK         0.0600 
    209 H209       -7.4664  -24.0683  -48.5210 H         1 UNK         0.0600 
    210 H210       -4.5693  -26.5387  -49.2488 H         1 UNK         0.3000 
    211 H211       -3.3366  -26.6499  -51.0876 H         1 UNK         0.0600 
    212 H212       -1.6280  -25.6977  -49.5134 H         1 UNK         0.0600 
    213 H213       -1.2980  -25.2764  -51.1844 H         1 UNK         0.0600 
    214 H214       -1.9992  -24.0782  -50.1009 H         1 UNK         0.0600 
    215 H215       -5.8573  -25.1909  -51.3213 H         1 UNK         0.3000 
    216 H216       -7.1470  -24.0562  -52.7048 H         1 UNK         0.0600 
    217 H217       -6.5982  -23.8549  -55.1102 H         1 UNK         0.0600 
    218 H218       -4.9250  -24.2896  -54.7975 H         1 UNK         0.0600 
    219 H219       -6.2091  -25.4590  -54.5153 H         1 UNK         0.0600 
    220 H220       -5.2828  -22.6849  -50.8903 H         1 UNK         0.3000 
    221 H221       -4.8168  -20.7048  -50.1383 H         1 UNK         0.0600 
    222 H222       -7.0223  -19.6867  -52.0135 H         1 UNK         0.0600 
    223 H223       -7.2493  -20.3208  -50.3888 H         1 UNK         0.0600 
    224 H224       -6.3706  -18.8232  -50.6177 H         1 UNK         0.0600 
    225 H225       -5.3815  -18.4373  -52.4868 H         1 UNK         0.3000 
    226 H226       -2.7521  -17.5780  -52.6478 H         1 UNK         0.0600 
    227 H227       -4.7128  -16.1208  -52.9978 H         1 UNK         0.0600 
    228 H228       -3.6336  -16.0008  -54.3772 H         1 UNK         0.0600 
    229 H229       -5.1070  -16.9556  -54.5026 H         1 UNK         0.0600 
    230 H230       -4.1846  -20.0600  -54.6168 H         1 UNK         0.3000 
    231 H231       -2.4824  -19.9824  -56.8963 H         1 UNK         0.0600 
    232 H232       -3.1986  -22.3626  -57.1443 H         1 UNK         0.0600 
    233 H233       -4.5733  -21.3371  -56.7568 H         1 UNK         0.0600 
    234 H234       -3.8457  -22.3473  -55.5081 H         1 UNK         0.0600 
    235 H235       -1.8498  -20.9845  -53.5767 H         1 UNK         0.3000 
    236 H236        0.5478  -22.5308  -54.2160 H         1 UNK         0.0600 
    237 H237       -0.9253  -23.1411  -52.3181 H         1 UNK         0.0600 
    238 H238        0.6841  -22.7434  -51.7441 H         1 UNK         0.0600 
    239 H239       -0.6268  -21.5857  -51.5527 H         1 UNK         0.0600 
    240 H240       -0.0420  -19.1367  -54.0236 H         1 UNK         0.3000 
    241 H241        2.8284  -18.6294  -53.6296 H         1 UNK         0.0600 
    242 H242        0.7616  -16.2695  -56.0825 H         1 UNK         0.3800 
    243 H243       -0.0961  -17.5649  -55.2917 H         1 UNK         0.3800 
    244 H244        2.0318  -18.5168  -51.3435 H         1 UNK         0.0800 
    245 H245        2.5211  -16.9451  -51.8827 H         1 UNK         0.0800 
    246 H246       -0.7368  -19.2249  -51.2374 H         1 UNK         0.0800 
    247 H247        0.1721  -18.7125  -49.8349 H         1 UNK         0.0800 
@<TRIPOS>BOND
     1    1    2 1    
     2    1  127 1    
     3    1  128 1    
     4    1  129 1    
     5    2    3 2    
     6    2    4 am   BACKBONE|DICT|INTERRES
     7    4    5 1    
     8    4  130 1    
     9    5    6 1    
    10    5   65 1    
    11    5  131 1    
    12    6    7 1    
    13    6  132 1    
    14    6  133 1    
    15    7    8 1    
    16    8    9 1    
    17    8  134 1    
    18    8  135 1    
    19    9   10 ar   
    20    9   14 ar   
    21   10   11 ar   
    22   10  136 1    
    23   11   12 ar   
    24   11  126 1    
    25   12   13 ar   
    26   12  137 1    
    27   13   14 ar   
    28   13   15 1    
    29   14  138 1    
    30   15   16 1    
    31   15  139 1    
    32   15  140 1    
    33   16   17 1    
    34   17   18 1    
    35   17  141 1    
    36   17  142 1    
    37   18   19 1    
    38   18   67 1    
    39   18  143 1    
    40   19   20 am   BACKBONE|DICT|INTERRES
    41   19  144 1    
    42   20   21 2    
    43   20   22 1    
    44   22   23 1    
    45   22   24 1    
    46   22  145 1    
    47   23  146 1    
    48   23  147 1    
    49   23  148 1    
    50   24   25 am   BACKBONE|DICT|INTERRES
    51   24  149 1    
    52   25   26 2    
    53   25   27 1    
    54   27   28 1    
    55   27   29 1    
    56   27  150 1    
    57   28  151 1    
    58   28  152 1    
    59   28  153 1    
    60   29   30 am   BACKBONE|DICT|INTERRES
    61   29  154 1    
    62   30   31 2    
    63   30   32 1    
    64   32   33 1    
    65   32   34 1    
    66   32  155 1    
    67   33  156 1    
    68   33  157 1    
    69   33  158 1    
    70   34   35 am   BACKBONE|DICT|INTERRES
    71   34  159 1    
    72   35   36 2    
    73   35   37 1    
    74   37   38 1    
    75   37   39 1    
    76   37  160 1    
    77   38  161 1    
    78   38  162 1    
    79   38  163 1    
    80   39   40 am   BACKBONE|DICT|INTERRES
    81   39  164 1    
    82   40   41 2    
    83   40   42 1    
    84   42   43 1    
    85   42   44 1    
    86   42  165 1    
    87   43  166 1    
    88   43  167 1    
    89   43  168 1    
    90   44   45 am   BACKBONE|DICT|INTERRES
    91   44  169 1    
    92   45   46 2    
    93   45   47 1    
    94   47   48 1    
    95   47   49 1    
    96   47  170 1    
    97   48  171 1    
    98   48  172 1    
    99   48  173 1    
   100   49   50 am   BACKBONE|DICT|INTERRES
   101   49  174 1    
   102   50   51 2    
   103   50   52 1    
   104   52   53 1    
   105   52   54 1    
   106   52  175 1    
   107   53  176 1    
   108   53  177 1    
   109   53  178 1    
   110   54   55 am   BACKBONE|DICT|INTERRES
   111   54  179 1    
   112   55   56 2    
   113   55   57 1    
   114   57   58 1    
   115   57   59 1    
   116   57  180 1    
   117   58  181 1    
   118   58  182 1    
   119   58  183 1    
   120   59   60 am   BACKBONE|DICT|INTERRES
   121   59  184 1    
   122   60   61 2    
   123   60   62 1    
   124   62   63 1    
   125   62   64 1    
   126   62  185 1    
   127   63  186 1    
   128   63  187 1    
   129   63  188 1    
   130   64   65 am   BACKBONE|DICT|INTERRES
   131   64  189 1    
   132   65   66 2    
   133   67   68 2    
   134   67   69 am   BACKBONE|DICT|INTERRES
   135   69   70 1    
   136   69  190 1    
   137   70   71 1    
   138   70   72 1    
   139   70  191 1    
   140   71  192 1    
   141   71  193 1    
   142   71  194 1    
   143   72   73 2    
   144   72   74 am   BACKBONE|DICT|INTERRES
   145   74   75 1    
   146   74  195 1    
   147   75   76 1    
   148   75   77 1    
   149   75  196 1    
   150   76  197 1    
   151   76  198 1    
   152   76  199 1    
   153   77   78 2    
   154   77   79 am   BACKBONE|DICT|INTERRES
   155   79   80 1    
   156   79  200 1    
   157   80   81 1    
   158   80   82 1    
   159   80  201 1    
   160   81  202 1    
   161   81  203 1    
   162   81  204 1    
   163   82   83 2    
   164   82   84 am   BACKBONE|DICT|INTERRES
   165   84   85 1    
   166   84  205 1    
   167   85   86 1    
   168   85   87 1    
   169   85  206 1    
   170   86  207 1    
   171   86  208 1    
   172   86  209 1    
   173   87   88 2    
   174   87   89 am   BACKBONE|DICT|INTERRES
   175   89   90 1    
   176   89  210 1    
   177   90   91 1    
   178   90   92 1    
   179   90  211 1    
   180   91  212 1    
   181   91  213 1    
   182   91  214 1    
   183   92   93 2    
   184   92   94 am   BACKBONE|DICT|INTERRES
   185   94   95 1    
   186   94  215 1    
   187   95   96 1    
   188   95   97 1    
   189   95  216 1    
   190   96  217 1    
   191   96  218 1    
   192   96  219 1    
   193   97   98 2    
   194   97   99 am   BACKBONE|DICT|INTERRES
   195   99  100 1    
   196   99  220 1    
   197  100  101 1    
   198  100  102 1    
   199  100  221 1    
   200  101  222 1    
   201  101  223 1    
   202  101  224 1    
   203  102  103 2    
   204  102  104 am   BACKBONE|DICT|INTERRES
   205  104  105 1    
   206  104  225 1    
   207  105  106 1    
   208  105  107 1    
   209  105  226 1    
   210  106  227 1    
   211  106  228 1    
   212  106  229 1    
   213  107  108 2    
   214  107  109 am   BACKBONE|DICT|INTERRES
   215  109  110 1    
   216  109  230 1    
   217  110  111 1    
   218  110  112 1    
   219  110  231 1    
   220  111  232 1    
   221  111  233 1    
   222  111  234 1    
   223  112  113 2    
   224  112  114 am   BACKBONE|DICT|INTERRES
   225  114  115 1    
   226  114  235 1    
   227  115  116 1    
   228  115  117 1    
   229  115  236 1    
   230  116  237 1    
   231  116  238 1    
   232  116  239 1    
   233  117  118 2    
   234  117  119 am   BACKBONE|DICT|INTERRES
   235  119  120 1    
   236  119  240 1    
   237  120  121 1    
   238  120  124 1    
   239  120  241 1    
   240  121  122 am   BACKBONE|DICT|INTERRES
   241  121  123 2    
   242  122  242 1    
   243  122  243 1    
   244  124  125 1    
   245  124  244 1    
   246  124  245 1    
   247  125  126 1    
   248  126  246 1    
   249  126  247 1    
@<TRIPOS>SUBSTRUCTURE
     1 UNK         1 GROUP             0       ****    0 ROOT    
