@<TRIPOS>MOLECULE
3R540
247   249    1
SMALL
USER_CHARGES


@<TRIPOS>ATOM
      1 CA         -2.6299  -16.6524  -47.5218 C.3       0 UNK        -0.1800 
      2 C          -2.4792  -15.1628  -47.8000 C.2       0 UNK         0.5000 
      3 O          -3.4737  -14.4770  -48.0347 O.2       0 UNK        -0.5000 
      4 N          -1.2412  -14.6642  -47.7754 N.am      1 UNK        -0.5000 
      5 CA         -0.8719  -13.2621  -47.9697 C.3       1 UNK         0.1400 
      6 C6         -1.0404  -12.7610  -49.4357 C.3       23 UNK        -0.0398 
      7 S7         -0.0135  -13.6500  -50.6602 S.3       23 UNK        -0.2404 
      8 C8         -1.2532  -14.6742  -51.5136 C.3       23 UNK        -0.0205 
      9 C9         -0.6713  -16.0309  -51.8689 C.ar      23 UNK        -0.0193 
     10 C10        -0.1935  -16.2979  -53.1555 C.ar      23 UNK        -0.1150 
     11 C11         0.3620  -17.5459  -53.4619 C.ar      23 UNK        -0.0193 
     12 C12         0.4302  -18.5292  -52.4688 C.ar      23 UNK        -0.1150 
     13 C13        -0.0552  -18.2724  -51.1837 C.ar      23 UNK        -0.0193 
     14 C14        -0.6031  -17.0236  -50.8910 C.ar      23 UNK        -0.1150 
     15 C15        -0.0068  -19.3398  -50.1081 C.3       23 UNK        -0.0205 
     16 S16         1.6069  -19.3849  -49.2663 S.3       23 UNK        -0.2404 
     17 C17         1.1145  -19.5673  -47.5175 C.3       23 UNK        -0.0398 
     18 CA          0.7405  -21.0189  -47.1209 C.3       11 UNK         0.1400 
     19 N           0.8815  -21.2554  -45.6835 N.am      11 UNK        -0.5000 
     20 C           0.7280  -22.4436  -45.0800 C.2       10 UNK         0.5000 
     21 O           0.5268  -23.5005  -45.6802 O.2       10 UNK        -0.5000 
     22 CA          0.7418  -22.4373  -43.5407 C.3       10 UNK         0.1400 
     23 CB          2.1800  -22.3973  -43.0038 C.3       10 UNK        -0.1800 
     24 N          -0.0305  -21.3258  -42.9801 N.am      10 UNK        -0.5000 
     25 C          -1.3523  -21.1679  -43.1458 C.2       9 UNK         0.5000 
     26 O          -2.0655  -21.9714  -43.7467 O.2       9 UNK        -0.5000 
     27 CA         -1.9806  -19.8806  -42.5840 C.3       9 UNK         0.1400 
     28 CB         -2.2204  -20.0087  -41.0726 C.3       9 UNK        -0.1800 
     29 N          -1.1807  -18.6868  -42.8620 N.am      9 UNK        -0.5000 
     30 C          -0.9205  -18.2121  -44.0891 C.2       8 UNK         0.5000 
     31 O          -1.3545  -18.7168  -45.1232 O.2       8 UNK        -0.5000 
     32 CA          0.0335  -17.0081  -44.1867 C.3       8 UNK         0.1400 
     33 CB         -0.6920  -15.6982  -43.8473 C.3       8 UNK        -0.1800 
     34 N           1.2103  -17.1613  -43.3323 N.am      8 UNK        -0.5000 
     35 C           2.1131  -18.1453  -43.4522 C.2       7 UNK         0.5000 
     36 O           2.0763  -19.0075  -44.3294 O.2       7 UNK        -0.5000 
     37 CA          3.2077  -18.2127  -42.3763 C.3       7 UNK         0.1400 
     38 CB          4.3334  -17.2117  -42.6728 C.3       7 UNK        -0.1800 
     39 N           2.6638  -17.9740  -41.0398 N.am      7 UNK        -0.5000 
     40 C           1.8610  -18.8300  -40.3913 C.2       6 UNK         0.5000 
     41 O           1.5218  -19.9246  -40.8411 O.2       6 UNK        -0.5000 
     42 CA          1.3151  -18.3671  -39.0284 C.3       6 UNK         0.1400 
     43 CB          2.3477  -18.6120  -37.9180 C.3       6 UNK        -0.1800 
     44 N           0.9256  -16.9563  -39.0284 N.am      6 UNK        -0.5000 
     45 C          -0.0937  -16.4556  -39.7402 C.2       5 UNK         0.5000 
     46 O          -0.8308  -17.1365  -40.4511 O.2       5 UNK        -0.5000 
     47 CA         -0.2974  -14.9309  -39.6846 C.3       5 UNK         0.1400 
     48 CB         -1.1755  -14.5479  -38.4840 C.3       5 UNK        -0.1800 
     49 N           0.9531  -14.1666  -39.6368 N.am      5 UNK        -0.5000 
     50 C           1.9070  -14.1987  -40.5771 C.2       4 UNK         0.5000 
     51 O           1.8644  -14.9392  -41.5605 O.2       4 UNK        -0.5000 
     52 CA          3.1015  -13.2511  -40.3648 C.3       4 UNK         0.1400 
     53 CB          4.4214  -14.0214  -40.1638 C.3       4 UNK        -0.1800 
     54 N           3.1907  -12.2449  -41.4290 N.am      4 UNK        -0.5000 
     55 C           3.5408  -12.4040  -42.7138 C.2       3 UNK         0.5000 
     56 O           3.9877  -13.4425  -43.2072 O.2       3 UNK        -0.5000 
     57 CA          3.3866  -11.1556  -43.5944 C.3       3 UNK         0.1400 
     58 CB          4.5638  -10.1858  -43.3940 C.3       3 UNK        -0.1800 
     59 N           3.3307  -11.5572  -44.9961 N.am      3 UNK        -0.5000 
     60 C           2.5108  -11.0455  -45.9188 C.2       2 UNK         0.5000 
     61 O           1.7126  -10.1338  -45.6897 O.2       2 UNK        -0.5000 
     62 CA          2.5923  -11.6170  -47.3502 C.3       2 UNK         0.1400 
     63 CB          3.6508  -12.7280  -47.5479 C.3       2 UNK        -0.1800 
     64 N           1.2727  -12.0424  -47.8277 N.am      2 UNK        -0.5000 
     65 C           0.5269  -13.0486  -47.3482 C.2       1 UNK         0.5000 
     66 O           0.8991  -13.8010  -46.4435 O.2       1 UNK        -0.5000 
     67 C          -0.6749  -21.3872  -47.6044 C.2       11 UNK         0.5000 
     68 O          -0.8046  -22.1506  -48.5592 O.2       11 UNK        -0.5000 
     69 N          -1.7068  -20.8592  -46.9292 N.am      12 UNK        -0.5000 
     70 CA         -3.1147  -21.1032  -47.2393 C.3       12 UNK         0.1400 
     71 CB         -4.0122  -20.2728  -46.3113 C.3       12 UNK        -0.1800 
     72 C          -3.4974  -22.5892  -47.1745 C.2       12 UNK         0.5000 
     73 O          -4.1945  -23.0626  -48.0705 O.2       12 UNK        -0.5000 
     74 N          -3.0065  -23.3007  -46.1509 N.am      13 UNK        -0.5000 
     75 CA         -3.1776  -24.7434  -45.9843 C.3       13 UNK         0.1400 
     76 CB         -2.6204  -25.1748  -44.6194 C.3       13 UNK        -0.1800 
     77 C          -2.5322  -25.5524  -47.1241 C.2       13 UNK         0.5000 
     78 O          -3.1794  -26.4454  -47.6730 O.2       13 UNK        -0.5000 
     79 N          -1.2906  -25.1993  -47.4890 N.am      14 UNK        -0.5000 
     80 CA         -0.5529  -25.7984  -48.6048 C.3       14 UNK         0.1400 
     81 CB          0.8993  -25.2977  -48.5853 C.3       14 UNK        -0.1800 
     82 C          -1.2085  -25.5245  -49.9728 C.2       14 UNK         0.5000 
     83 O          -1.2390  -26.4123  -50.8249 O.2       14 UNK        -0.5000 
     84 N          -1.7564  -24.3149  -50.1364 N.am      15 UNK        -0.5000 
     85 CA         -2.4770  -23.8466  -51.3193 C.3       15 UNK         0.1400 
     86 CB         -2.2729  -22.3278  -51.4461 C.3       15 UNK        -0.1800 
     87 C          -3.9733  -24.2256  -51.3288 C.2       15 UNK         0.5000 
     88 O          -4.7293  -23.6261  -52.0920 O.2       15 UNK        -0.5000 
     89 N          -4.3842  -25.1970  -50.4986 N.am      16 UNK        -0.5000 
     90 CA         -5.7241  -25.7932  -50.4297 C.3       16 UNK         0.1400 
     91 CB         -5.9994  -26.6302  -51.6966 C.3       16 UNK        -0.1800 
     92 C          -6.8333  -24.7596  -50.1398 C.2       16 UNK         0.5000 
     93 O          -7.7853  -24.6304  -50.9116 O.2       16 UNK        -0.5000 
     94 N          -6.6609  -24.0359  -49.0265 N.am      17 UNK        -0.5000 
     95 CA         -7.4701  -22.9094  -48.5514 C.3       17 UNK         0.1400 
     96 CB         -8.9505  -23.2977  -48.3476 C.3       17 UNK        -0.1800 
     97 C          -7.2660  -21.6509  -49.4183 C.2       17 UNK         0.5000 
     98 O          -8.2285  -20.9464  -49.7272 O.2       17 UNK        -0.5000 
     99 N          -5.9956  -21.3929  -49.7658 N.am      18 UNK        -0.5000 
    100 CA        -5.4921  -20.2409  -50.5216 C.3       18 UNK         0.1400 
    101 CB        -5.5973  -18.9528  -49.6775 C.3       18 UNK        -0.1800 
    102 C         -6.1300  -20.1000  -51.9192 C.2       18 UNK         0.5000 
    103 O         -6.6263  -19.0268  -52.2703 O.2       18 UNK        -0.5000 
    104 N         -6.1081  -21.1906  -52.6966 N.am      19 UNK        -0.5000 
    105 CA        -6.5424  -21.2115  -54.0924 C.3       19 UNK         0.1400 
    106 CB        -6.6241  -22.6691  -54.5725 C.3       19 UNK        -0.1800 
    107 C         -5.5886  -20.4052  -54.9944 C.2       19 UNK         0.5000 
    108 O         -4.3919  -20.3144  -54.7068 O.2       19 UNK        -0.5000 
    109 N         -6.1276  -19.8783  -56.1022 N.am      20 UNK        -0.5000 
    110 CA        -5.4151  -19.0538  -57.0878 C.3       20 UNK         0.1400 
    111 CB        -6.4320  -18.5073  -58.1021 C.3       20 UNK        -0.1800 
    112 C         -4.2597  -19.7732  -57.8162 C.2       20 UNK         0.5000 
    113 O         -3.3957  -19.1079  -58.3879 O.2       20 UNK        -0.5000 
    114 N         -4.2563  -21.1118  -57.7710 N.am      21 UNK        -0.5000 
    115 CA        -3.1789  -21.9714  -58.2590 C.3       21 UNK         0.1400 
    116 CB        -3.7157  -23.4072  -58.3727 C.3       21 UNK        -0.1800 
    117 C         -1.9114  -21.9387  -57.3770 C.2       21 UNK         0.5000 
    118 O         -0.8597  -22.3810  -57.8426 O.2       21 UNK        -0.5000 
    119 N         -2.0254  -21.4320  -56.1388 N.am      22 UNK        -0.5000 
    120 CA        -0.9685  -21.3834  -55.1126 C.3       22 UNK         0.1400 
    121 C         -0.5483  -22.7996  -54.6015 C.2       22 UNK         0.5000 
    122 N          0.5318  -22.9185  -53.8391 N.am      22 UNK        -0.7600 
    123 O         -1.2182  -23.8017  -54.8429 O.2       22 UNK        -0.5000 
    124 C124        0.2394  -20.4911  -55.5295 C.3       23 UNK        -0.0398 
    125 S125       -0.2354  -18.7635  -55.8973 S.3       23 UNK        -0.2404 
    126 C126        0.9179  -17.8113  -54.8546 C.3       23 UNK        -0.0205 
    127 H127       -3.1837  -16.8051  -46.5956 H         1 UNK         0.0600 
    128 H128       -1.6635  -17.1472  -47.4235 H         1 UNK         0.0600 
    129 H129       -3.1762  -17.1354  -48.3319 H         1 UNK         0.0600 
    130 H130       -0.4578  -15.2486  -47.5145 H         1 UNK         0.3000 
    131 H131       -1.5443  -12.6675  -47.3479 H         1 UNK         0.0600 
    132 H132       -2.0891  -12.8290  -49.7258 H         1 UNK         0.0800 
    133 H133       -0.8114  -11.6972  -49.5059 H         1 UNK         0.0800 
    134 H134       -2.1303  -14.8216  -50.8820 H         1 UNK         0.0800 
    135 H135       -1.6004  -14.1536  -52.4072 H         1 UNK         0.0800 
    136 H136       -0.2417  -15.5292  -53.9140 H         1 UNK         0.1150 
    137 H137        0.8662  -19.4923  -52.6873 H         1 UNK         0.1150 
    138 H138       -0.9680  -16.8176  -49.8960 H         1 UNK         0.1150 
    139 H139       -0.8104  -19.1627  -49.3922 H         1 UNK         0.0800 
    140 H140       -0.1997  -20.3173  -50.5481 H         1 UNK         0.0800 
    141 H141        0.3237  -18.8565  -47.2728 H         1 UNK         0.0800 
    142 H142        1.9799  -19.2471  -46.9369 H         1 UNK         0.0800 
    143 H143        1.4416  -21.6970  -47.6123 H         1 UNK         0.0600 
    144 H144        1.0914  -20.4425  -45.1100 H         1 UNK         0.3000 
    145 H145        0.2799  -23.3671  -43.2023 H         1 UNK         0.0600 
    146 H146        2.1962  -22.4761  -41.9167 H         1 UNK         0.0600 
    147 H147        2.7675  -23.2268  -43.3991 H         1 UNK         0.0600 
    148 H148        2.6889  -21.4733  -43.2789 H         1 UNK         0.0600 
    149 H149        0.4836  -20.6435  -42.4323 H         1 UNK         0.3000 
    150 H150       -2.9499  -19.7480  -43.0683 H         1 UNK         0.0600 
    151 H151       -2.8158  -20.8935  -40.8441 H         1 UNK         0.0600 
    152 H152       -2.7613  -19.1450  -40.6858 H         1 UNK         0.0600 
    153 H153       -1.2832  -20.0905  -40.5212 H         1 UNK         0.0600 
    154 H154       -0.8256  -18.1832  -42.0536 H         1 UNK         0.3000 
    155 H155        0.3827  -16.9421  -45.2192 H         1 UNK         0.0600 
    156 H156       -1.0754  -15.7011  -42.8272 H         1 UNK         0.0600 
    157 H157       -0.0256  -14.8415  -43.9516 H         1 UNK         0.0600 
    158 H158       -1.5372  -15.5364  -44.5174 H         1 UNK         0.0600 
    159 H159        1.3480  -16.4602  -42.6087 H         1 UNK         0.3000 
    160 H160        3.6363  -19.2170  -42.3942 H         1 UNK         0.0600 
    161 H161        5.1122  -17.2520  -41.9112 H         1 UNK         0.0600 
    162 H162        3.9613  -16.1884  -42.7216 H         1 UNK         0.0600 
    163 H163        4.8034  -17.4312  -43.6321 H         1 UNK         0.0600 
    164 H164        2.8384  -17.0665  -40.6343 H         1 UNK         0.3000 
    165 H165        0.4278  -18.9639  -38.8062 H         1 UNK         0.0600 
    166 H166        1.9399  -18.3613  -36.9385 H         1 UNK         0.0600 
    167 H167        2.6443  -19.6613  -37.8864 H         1 UNK         0.0600 
    168 H168        3.2512  -18.0197  -38.0678 H         1 UNK         0.0600 
    169 H169        1.4827  -16.3245  -38.4726 H         1 UNK         0.3000 
    170 H170       -0.8243  -14.6393  -40.5953 H         1 UNK         0.0600 
    171 H171       -0.6867  -14.7787  -37.5367 H         1 UNK         0.0600 
    172 H172       -1.4112  -13.4836  -38.4906 H         1 UNK         0.0600 
    173 H173       -2.1228  -15.0887  -38.5050 H         1 UNK         0.0600 
    174 H174        1.0605  -13.5386  -38.8532 H         1 UNK         0.3000 
    175 H175        2.9236  -12.6870  -39.4479 H         1 UNK         0.0600 
    176 H176        5.2555  -13.3379  -40.0052 H         1 UNK         0.0600 
    177 H177        4.6662  -14.6545  -41.0156 H         1 UNK         0.0600 
    178 H178        4.3609  -14.6696  -39.2889 H         1 UNK         0.0600 
    179 H179        2.8504  -11.3323  -41.1595 H         1 UNK         0.3000 
    180 H180        2.4569  -10.6584  -43.3090 H         1 UNK         0.0600 
    181 H181        5.5151  -10.6504  -43.6567 H         1 UNK         0.0600 
    182 H182        4.6330   -9.8582  -42.3561 H         1 UNK         0.0600 
    183 H183        4.4468   -9.2929  -44.0083 H         1 UNK         0.0600 
    184 H184        3.8910  -12.3686  -45.2232 H         1 UNK         0.3000 
    185 H185        2.8856  -10.7803  -47.9857 H         1 UNK         0.0600 
    186 H186        4.6526  -12.3585  -47.3256 H         1 UNK         0.0600 
    187 H187        3.4701  -13.5957  -46.9129 H         1 UNK         0.0600 
    188 H188        3.6613  -13.0740  -48.5816 H         1 UNK         0.0600 
    189 H189        0.8828  -11.4674  -48.5603 H         1 UNK         0.3000 
    190 H190       -1.5207  -20.2110  -46.1662 H         1 UNK         0.3000 
    191 H191       -3.2815  -20.7657  -48.2635 H         1 UNK         0.0600 
    192 H192       -3.8103  -19.2076  -46.4170 H         1 UNK         0.0600 
    193 H193       -5.0664  -20.4288  -46.5439 H         1 UNK         0.0600 
    194 H194       -3.8643  -20.5378  -45.2645 H         1 UNK         0.0600 
    195 H195       -2.4814  -22.8168  -45.4271 H         1 UNK         0.3000 
    196 H196       -4.2491  -24.9533  -45.9943 H         1 UNK         0.0600 
    197 H197       -2.7451  -26.2475  -44.4668 H         1 UNK         0.0600 
    198 H198       -3.1387  -24.6675  -43.8055 H         1 UNK         0.0600 
    199 H199       -1.5574  -24.9499  -44.5279 H         1 UNK         0.0600 
    200 H200       -0.8211  -24.4571  -46.9804 H         1 UNK         0.3000 
    201 H201       -0.5408  -26.8798  -48.4543 H         1 UNK         0.0600 
    202 H202        1.3907  -25.5519  -47.6460 H         1 UNK         0.0600 
    203 H203        0.9551  -24.2157  -48.7079 H         1 UNK         0.0600 
    204 H204        1.4797  -25.7502  -49.3902 H         1 UNK         0.0600 
    205 H205       -1.6246  -23.6284  -49.3973 H         1 UNK         0.3000 
    206 H206       -2.0390  -24.3128  -52.2036 H         1 UNK         0.0600 
    207 H207       -1.2171  -22.0962  -51.5777 H         1 UNK         0.0600 
    208 H208       -2.8004  -21.9160  -52.3075 H         1 UNK         0.0600 
    209 H209       -2.6206  -21.8049  -50.5563 H         1 UNK         0.0600 
    210 H210       -3.7013  -25.5879  -49.8632 H         1 UNK         0.3000 
    211 H211       -5.7116  -26.4782  -49.5807 H         1 UNK         0.0600 
    212 H212       -6.0426  -26.0092  -52.5922 H         1 UNK         0.0600 
    213 H213       -6.9513  -27.1565  -51.6174 H         1 UNK         0.0600 
    214 H214       -5.2248  -27.3820  -51.8476 H         1 UNK         0.0600 
    215 H215       -5.7817  -24.1516  -48.5320 H         1 UNK         0.3000 
    216 H216       -7.0710  -22.6568  -47.5679 H         1 UNK         0.0600 
    217 H217       -9.4898  -22.5043  -47.8290 H         1 UNK         0.0600 
    218 H218       -9.0427  -24.2004  -47.7440 H         1 UNK         0.0600 
    219 H219       -9.4640  -23.4703  -49.2935 H         1 UNK         0.0600 
    220 H220       -5.2968  -22.0591  -49.4553 H         1 UNK         0.3000 
    221 H221       -4.4327  -20.4221  -50.6961 H         1 UNK         0.0600 
    222 H222       -6.6346  -18.6840  -49.4759 H         1 UNK         0.0600 
    223 H223       -5.0891  -19.0612  -48.7208 H         1 UNK         0.0600 
    224 H224       -5.1350  -18.1097  -50.1922 H         1 UNK         0.0600 
    225 H225       -5.6596  -22.0398  -52.3588 H         1 UNK         0.3000 
    226 H226       -7.5395  -20.7693  -54.1452 H         1 UNK         0.0600 
    227 H227       -7.2605  -23.2657  -53.9180 H         1 UNK         0.0600 
    228 H228       -7.0430  -22.7290  -55.5776 H         1 UNK         0.0600 
    229 H229       -5.6402  -23.1395  -54.5990 H         1 UNK         0.0600 
    230 H230       -7.1131  -20.0177  -56.2747 H         1 UNK         0.3000 
    231 H231       -4.9769  -18.2082  -56.5535 H         1 UNK         0.0600 
    232 H232       -6.9237  -19.3115  -58.6509 H         1 UNK         0.0600 
    233 H233       -5.9467  -17.8598  -58.8337 H         1 UNK         0.0600 
    234 H234       -7.2031  -17.9148  -57.6092 H         1 UNK         0.0600 
    235 H235       -5.0141  -21.5693  -57.2872 H         1 UNK         0.3000 
    236 H236       -2.8929  -21.6320  -59.2567 H         1 UNK         0.0600 
    237 H237       -4.5736  -23.4572  -59.0434 H         1 UNK         0.0600 
    238 H238       -2.9541  -24.0791  -58.7709 H         1 UNK         0.0600 
    239 H239       -4.0225  -23.7988  -57.4018 H         1 UNK         0.0600 
    240 H240       -2.9307  -21.0929  -55.8309 H         1 UNK         0.3000 
    241 H241       -1.4394  -20.9105  -54.2501 H         1 UNK         0.0600 
    242 H242        1.1092  -22.1325  -53.5913 H         1 UNK         0.3800 
    243 H243        0.7842  -23.8359  -53.5071 H         1 UNK         0.3800 
    244 H244        0.9973  -20.4801  -54.7484 H         1 UNK         0.0800 
    245 H245        0.7386  -20.9024  -56.4073 H         1 UNK         0.0800 
    246 H246        1.1231  -16.8638  -55.3551 H         1 UNK         0.0800 
    247 H247        1.8803  -18.3203  -54.7859 H         1 UNK         0.0800 
@<TRIPOS>BOND
     1    1    2 1    
     2    1  127 1    
     3    1  128 1    
     4    1  129 1    
     5    2    3 2    
     6    2    4 am   BACKBONE|DICT|INTERRES
     7    4    5 1    
     8    4  130 1    
     9    5    6 1    
    10    5   65 1    
    11    5  131 1    
    12    6    7 1    
    13    6  132 1    
    14    6  133 1    
    15    7    8 1    
    16    8    9 1    
    17    8  134 1    
    18    8  135 1    
    19    9   10 ar   
    20    9   14 ar   
    21   10   11 ar   
    22   10  136 1    
    23   11   12 ar   
    24   11  126 1    
    25   12   13 ar   
    26   12  137 1    
    27   13   14 ar   
    28   13   15 1    
    29   14  138 1    
    30   15   16 1    
    31   15  139 1    
    32   15  140 1    
    33   16   17 1    
    34   17   18 1    
    35   17  141 1    
    36   17  142 1    
    37   18   19 1    
    38   18   67 1    
    39   18  143 1    
    40   19   20 am   BACKBONE|DICT|INTERRES
    41   19  144 1    
    42   20   21 2    
    43   20   22 1    
    44   22   23 1    
    45   22   24 1    
    46   22  145 1    
    47   23  146 1    
    48   23  147 1    
    49   23  148 1    
    50   24   25 am   BACKBONE|DICT|INTERRES
    51   24  149 1    
    52   25   26 2    
    53   25   27 1    
    54   27   28 1    
    55   27   29 1    
    56   27  150 1    
    57   28  151 1    
    58   28  152 1    
    59   28  153 1    
    60   29   30 am   BACKBONE|DICT|INTERRES
    61   29  154 1    
    62   30   31 2    
    63   30   32 1    
    64   32   33 1    
    65   32   34 1    
    66   32  155 1    
    67   33  156 1    
    68   33  157 1    
    69   33  158 1    
    70   34   35 am   BACKBONE|DICT|INTERRES
    71   34  159 1    
    72   35   36 2    
    73   35   37 1    
    74   37   38 1    
    75   37   39 1    
    76   37  160 1    
    77   38  161 1    
    78   38  162 1    
    79   38  163 1    
    80   39   40 am   BACKBONE|DICT|INTERRES
    81   39  164 1    
    82   40   41 2    
    83   40   42 1    
    84   42   43 1    
    85   42   44 1    
    86   42  165 1    
    87   43  166 1    
    88   43  167 1    
    89   43  168 1    
    90   44   45 am   BACKBONE|DICT|INTERRES
    91   44  169 1    
    92   45   46 2    
    93   45   47 1    
    94   47   48 1    
    95   47   49 1    
    96   47  170 1    
    97   48  171 1    
    98   48  172 1    
    99   48  173 1    
   100   49   50 am   BACKBONE|DICT|INTERRES
   101   49  174 1    
   102   50   51 2    
   103   50   52 1    
   104   52   53 1    
   105   52   54 1    
   106   52  175 1    
   107   53  176 1    
   108   53  177 1    
   109   53  178 1    
   110   54   55 am   BACKBONE|DICT|INTERRES
   111   54  179 1    
   112   55   56 2    
   113   55   57 1    
   114   57   58 1    
   115   57   59 1    
   116   57  180 1    
   117   58  181 1    
   118   58  182 1    
   119   58  183 1    
   120   59   60 am   BACKBONE|DICT|INTERRES
   121   59  184 1    
   122   60   61 2    
   123   60   62 1    
   124   62   63 1    
   125   62   64 1    
   126   62  185 1    
   127   63  186 1    
   128   63  187 1    
   129   63  188 1    
   130   64   65 am   BACKBONE|DICT|INTERRES
   131   64  189 1    
   132   65   66 2    
   133   67   68 2    
   134   67   69 am   BACKBONE|DICT|INTERRES
   135   69   70 1    
   136   69  190 1    
   137   70   71 1    
   138   70   72 1    
   139   70  191 1    
   140   71  192 1    
   141   71  193 1    
   142   71  194 1    
   143   72   73 2    
   144   72   74 am   BACKBONE|DICT|INTERRES
   145   74   75 1    
   146   74  195 1    
   147   75   76 1    
   148   75   77 1    
   149   75  196 1    
   150   76  197 1    
   151   76  198 1    
   152   76  199 1    
   153   77   78 2    
   154   77   79 am   BACKBONE|DICT|INTERRES
   155   79   80 1    
   156   79  200 1    
   157   80   81 1    
   158   80   82 1    
   159   80  201 1    
   160   81  202 1    
   161   81  203 1    
   162   81  204 1    
   163   82   83 2    
   164   82   84 am   BACKBONE|DICT|INTERRES
   165   84   85 1    
   166   84  205 1    
   167   85   86 1    
   168   85   87 1    
   169   85  206 1    
   170   86  207 1    
   171   86  208 1    
   172   86  209 1    
   173   87   88 2    
   174   87   89 am   BACKBONE|DICT|INTERRES
   175   89   90 1    
   176   89  210 1    
   177   90   91 1    
   178   90   92 1    
   179   90  211 1    
   180   91  212 1    
   181   91  213 1    
   182   91  214 1    
   183   92   93 2    
   184   92   94 am   BACKBONE|DICT|INTERRES
   185   94   95 1    
   186   94  215 1    
   187   95   96 1    
   188   95   97 1    
   189   95  216 1    
   190   96  217 1    
   191   96  218 1    
   192   96  219 1    
   193   97   98 2    
   194   97   99 am   BACKBONE|DICT|INTERRES
   195   99  100 1    
   196   99  220 1    
   197  100  101 1    
   198  100  102 1    
   199  100  221 1    
   200  101  222 1    
   201  101  223 1    
   202  101  224 1    
   203  102  103 2    
   204  102  104 am   BACKBONE|DICT|INTERRES
   205  104  105 1    
   206  104  225 1    
   207  105  106 1    
   208  105  107 1    
   209  105  226 1    
   210  106  227 1    
   211  106  228 1    
   212  106  229 1    
   213  107  108 2    
   214  107  109 am   BACKBONE|DICT|INTERRES
   215  109  110 1    
   216  109  230 1    
   217  110  111 1    
   218  110  112 1    
   219  110  231 1    
   220  111  232 1    
   221  111  233 1    
   222  111  234 1    
   223  112  113 2    
   224  112  114 am   BACKBONE|DICT|INTERRES
   225  114  115 1    
   226  114  235 1    
   227  115  116 1    
   228  115  117 1    
   229  115  236 1    
   230  116  237 1    
   231  116  238 1    
   232  116  239 1    
   233  117  118 2    
   234  117  119 am   BACKBONE|DICT|INTERRES
   235  119  120 1    
   236  119  240 1    
   237  120  121 1    
   238  120  124 1    
   239  120  241 1    
   240  121  122 am   BACKBONE|DICT|INTERRES
   241  121  123 2    
   242  122  242 1    
   243  122  243 1    
   244  124  125 1    
   245  124  244 1    
   246  124  245 1    
   247  125  126 1    
   248  126  246 1    
   249  126  247 1    
@<TRIPOS>SUBSTRUCTURE
     1 UNK         1 GROUP             0       ****    0 ROOT    
