@<TRIPOS>MOLECULE
3R540
247   249    1
SMALL
USER_CHARGES


@<TRIPOS>ATOM
      1 CA         -6.3246  -14.8720  -48.0795 C.3       0 UNK        -0.1800 
      2 C          -5.1570  -13.8999  -48.1433 C.2       0 UNK         0.5000 
      3 O          -5.3194  -12.7245  -47.8139 O.2       0 UNK        -0.5000 
      4 N          -3.9819  -14.3871  -48.5598 N.am      1 UNK        -0.5000 
      5 CA         -2.7058  -13.6680  -48.5026 C.3       1 UNK         0.1400 
      6 C6         -1.6233  -14.3223  -49.4014 C.3       23 UNK        -0.0398 
      7 S7         -1.4737  -16.1379  -49.2508 S.3       23 UNK        -0.2404 
      8 C8          0.1866  -16.3811  -49.9573 C.3       23 UNK        -0.0205 
      9 C9          0.7419  -17.7672  -49.6654 C.ar      23 UNK        -0.0193 
     10 C10         1.1129  -18.6164  -50.7117 C.ar      23 UNK        -0.1150 
     11 C11         1.6471  -19.8802  -50.4449 C.ar      23 UNK        -0.0193 
     12 C12         1.8429  -20.2789  -49.1219 C.ar      23 UNK        -0.1150 
     13 C13         1.4585  -19.4488  -48.0674 C.ar      23 UNK        -0.0193 
     14 C14         0.9126  -18.1936  -48.3448 C.ar      23 UNK        -0.1150 
     15 C15         1.6327  -19.9051  -46.6302 C.3       23 UNK        -0.0205 
     16 S16         0.1855  -20.8359  -46.0318 S.3       23 UNK        -0.2404 
     17 C17         0.3513  -22.4527  -46.8648 C.3       23 UNK        -0.0398 
     18 CA          1.5150  -23.3094  -46.3054 C.3       11 UNK         0.1400 
     19 N           1.3464  -23.5469  -44.8723 N.am      11 UNK        -0.5000 
     20 C           2.2626  -24.0289  -44.0280 C.2       10 UNK         0.5000 
     21 O           3.3975  -24.3683  -44.3690 O.2       10 UNK        -0.5000 
     22 CA          1.8407  -24.0695  -42.5419 C.3       10 UNK         0.1400 
     23 CB          2.8789  -24.7711  -41.6478 C.3       10 UNK        -0.1800 
     24 N           1.6073  -22.7183  -42.0222 N.am      10 UNK        -0.5000 
     25 C           0.5331  -21.9598  -42.2804 C.2       9 UNK         0.5000 
     26 O          -0.4396  -22.3704  -42.9194 O.2       9 UNK        -0.5000 
     27 CA          0.5916  -20.5037  -41.7692 C.3       9 UNK         0.1400 
     28 CB          1.7938  -19.7551  -42.3724 C.3       9 UNK        -0.1800 
     29 N          -0.6241  -19.7463  -42.0734 N.am      9 UNK        -0.5000 
     30 C          -1.8002  -19.9014  -41.4478 C.2       8 UNK         0.5000 
     31 O          -1.9643  -20.6721  -40.5001 O.2       8 UNK        -0.5000 
     32 CA         -2.9926  -19.0407  -41.9204 C.3       8 UNK         0.1400 
     33 CB         -3.3567  -17.9945  -40.8542 C.3       8 UNK        -0.1800 
     34 N          -2.7547  -18.3439  -43.1842 N.am      8 UNK        -0.5000 
     35 C          -2.7986  -18.9028  -44.4008 C.2       7 UNK         0.5000 
     36 O          -3.1303  -20.0707  -44.5981 O.2       7 UNK        -0.5000 
     37 CA         -2.4183  -18.0052  -45.5994 C.3       7 UNK         0.1400 
     38 CB         -3.6806  -17.6084  -46.3823 C.3       7 UNK        -0.1800 
     39 N          -1.6770  -16.7887  -45.2387 N.am      7 UNK        -0.5000 
     40 C          -0.4697  -16.7607  -44.6591 C.2       6 UNK         0.5000 
     41 O           0.1493  -17.7679  -44.3176 O.2       6 UNK        -0.5000 
     42 CA          0.1239  -15.3787  -44.3459 C.3       6 UNK         0.1400 
     43 CB          0.1460  -15.1222  -42.8315 C.3       6 UNK        -0.1800 
     44 N           1.4762  -15.2536  -44.8792 N.am      6 UNK        -0.5000 
     45 C           1.7486  -15.0904  -46.1786 C.2       5 UNK         0.5000 
     46 O           0.8844  -14.9336  -47.0382 O.2       5 UNK        -0.5000 
     47 CA          3.2337  -15.0335  -46.5554 C.3       5 UNK         0.1400 
     48 CB          3.4801  -15.0681  -48.0748 C.3       5 UNK        -0.1800 
     49 N           3.7788  -13.7998  -46.0050 N.am      5 UNK        -0.5000 
     50 C           4.8946  -13.7054  -45.2745 C.2       4 UNK         0.5000 
     51 O           5.6435  -14.6555  -45.0430 O.2       4 UNK        -0.5000 
     52 CA          5.2352  -12.3195  -44.6905 C.3       4 UNK         0.1400 
     53 CB          6.3240  -11.6361  -45.5325 C.3       4 UNK        -0.1800 
     54 N           4.0898  -11.4113  -44.5745 N.am      4 UNK        -0.5000 
     55 C           3.0283  -11.5944  -43.7772 C.2       3 UNK         0.5000 
     56 O           2.8742  -12.5874  -43.0646 O.2       3 UNK        -0.5000 
     57 CA          1.9615  -10.4814  -43.7468 C.3       3 UNK         0.1400 
     58 CB          2.3310   -9.2132  -44.5515 C.3       3 UNK        -0.1800 
     59 N           0.6395  -10.9789  -44.1366 N.am      3 UNK        -0.5000 
     60 C           0.2719  -11.4711  -45.3284 C.2       2 UNK         0.5000 
     61 O           1.0374  -11.6074  -46.2864 O.2       2 UNK        -0.5000 
     62 CA         -1.2171  -11.8409  -45.4585 C.3       2 UNK         0.1400 
     63 CB         -2.1216  -10.6184  -45.2110 C.3       2 UNK        -0.1800 
     64 N          -1.5245  -12.3670  -46.7887 N.am      2 UNK        -0.5000 
     65 C          -2.2565  -13.4596  -47.0357 C.2       1 UNK         0.5000 
     66 O          -2.6230  -14.2493  -46.1589 O.2       1 UNK        -0.5000 
     67 C           1.6753  -24.6188  -47.1066 C.2       11 UNK         0.5000 
     68 O           1.2238  -25.6795  -46.6671 O.2       11 UNK        -0.5000 
     69 N           2.3058  -24.5070  -48.2859 N.am      12 UNK        -0.5000 
     70 CA          2.5919  -25.6113  -49.2098 C.3       12 UNK         0.1400 
     71 CB          3.4873  -25.0876  -50.3436 C.3       12 UNK        -0.1800 
     72 C           1.3367  -26.2934  -49.7903 C.2       12 UNK         0.5000 
     73 O           1.3961  -27.4711  -50.1462 O.2       12 UNK        -0.5000 
     74 N           0.2288  -25.5500  -49.8525 N.am      13 UNK        -0.5000 
     75 CA         -1.1096  -26.0362  -50.1537 C.3       13 UNK         0.1400 
     76 CB         -1.5322  -25.5201  -51.5358 C.3       13 UNK        -0.1800 
     77 C          -2.0457  -25.5102  -49.0580 C.2       13 UNK         0.5000 
     78 O          -1.7992  -24.4239  -48.5254 O.2       13 UNK        -0.5000 
     79 N          -3.1009  -26.2763  -48.7513 N.am      14 UNK        -0.5000 
     80 CA         -4.0754  -26.0138  -47.6873 C.3       14 UNK         0.1400 
     81 CB         -5.1395  -27.1223  -47.6959 C.3       14 UNK        -0.1800 
     82 C          -4.7313  -24.6271  -47.8114 C.2       14 UNK         0.5000 
     83 O          -5.4152  -24.3664  -48.8032 O.2       14 UNK        -0.5000 
     84 N          -4.4598  -23.7534  -46.8316 N.am      15 UNK        -0.5000 
     85 CA         -4.8725  -22.3452  -46.7700 C.3       15 UNK         0.1400 
     86 CB         -6.3911  -22.2393  -46.5184 C.3       15 UNK        -0.1800 
     87 C          -4.4066  -21.5235  -47.9931 C.2       15 UNK         0.5000 
     88 O          -5.1531  -20.6769  -48.4868 O.2       15 UNK        -0.5000 
     89 N          -3.2011  -21.8364  -48.4939 N.am      16 UNK        -0.5000 
     90 CA         -2.5982  -21.3203  -49.7262 C.3       16 UNK         0.1400 
     91 CB         -2.3092  -19.8106  -49.6113 C.3       16 UNK        -0.1800 
     92 C          -3.4326  -21.6909  -50.9710 C.2       16 UNK         0.5000 
     93 O          -3.6656  -20.8461  -51.8376 O.2       16 UNK        -0.5000 
     94 N          -3.8873  -22.9521  -51.0135 N.am      17 UNK        -0.5000 
     95 CA         -4.8111  -23.5398  -51.9924 C.3       17 UNK         0.1400 
     96 CB         -4.1813  -23.6120  -53.3995 C.3       17 UNK        -0.1800 
     97 C          -6.1844  -22.8403  -51.9772 C.2       17 UNK         0.5000 
     98 O          -6.7190  -22.4975  -53.0319 O.2       17 UNK        -0.5000 
     99 N          -6.7120  -22.6315  -50.7625 N.am      18 UNK        -0.5000 
    100 CA        -7.9410  -21.8992  -50.4455 C.3       18 UNK         0.1400 
    101 CB        -9.1810  -22.6802  -50.9281 C.3       18 UNK        -0.1800 
    102 C         -7.8973  -20.4427  -50.9546 C.2       18 UNK         0.5000 
    103 O         -8.7754  -20.0197  -51.7093 O.2       18 UNK        -0.5000 
    104 N         -6.8586  -19.7126  -50.5220 N.am      19 UNK        -0.5000 
    105 CA        -6.5755  -18.3058  -50.8209 C.3       19 UNK         0.1400 
    106 CB        -7.6662  -17.3938  -50.2199 C.3       19 UNK        -0.1800 
    107 C         -6.3197  -18.0290  -52.3185 C.2       19 UNK         0.5000 
    108 O         -6.7545  -16.9988  -52.8370 O.2       19 UNK        -0.5000 
    109 N         -5.6015  -18.9421  -52.9838 N.am      20 UNK        -0.5000 
    110 CA        -5.2247  -18.8472  -54.3975 C.3       20 UNK         0.1400 
    111 CB        -5.7322  -20.0987  -55.1317 C.3       20 UNK        -0.1800 
    112 C         -3.7036  -18.6718  -54.5736 C.2       20 UNK         0.5000 
    113 O         -3.1992  -18.8489  -55.6839 O.2       20 UNK        -0.5000 
    114 N         -2.9918  -18.3618  -53.4782 N.am      21 UNK        -0.5000 
    115 CA        -1.5359  -18.2021  -53.3757 C.3       21 UNK         0.1400 
    116 CB        -1.0826  -16.9076  -54.0800 C.3       21 UNK        -0.1800 
    117 C         -0.7569  -19.4526  -53.8442 C.2       21 UNK         0.5000 
    118 O          0.2916  -19.3308  -54.4792 O.2       21 UNK        -0.5000 
    119 N         -1.3133  -20.6306  -53.5360 N.am      22 UNK        -0.5000 
    120 CA        -0.8613  -21.9651  -53.9672 C.3       22 UNK         0.1400 
    121 C         -1.0854  -22.2692  -55.4810 C.2       22 UNK         0.5000 
    122 N         -1.7990  -21.4435  -56.2386 N.am      22 UNK        -0.7600 
    123 O         -0.6321  -23.2964  -55.9780 O.2       22 UNK        -0.5000 
    124 C124        0.5710  -22.3440  -53.4938 C.3       23 UNK        -0.0398 
    125 S125        0.7871  -22.1808  -51.6879 S.3       23 UNK        -0.2404 
    126 C126        1.9997  -20.8244  -51.5802 C.3       23 UNK        -0.0205 
    127 H127       -6.0153  -15.8869  -48.3295 H         1 UNK         0.0600 
    128 H128       -7.1081  -14.5641  -48.7714 H         1 UNK         0.0600 
    129 H129       -6.7439  -14.8872  -47.0736 H         1 UNK         0.0600 
    130 H130       -3.9007  -15.3649  -48.7970 H         1 UNK         0.3000 
    131 H131       -2.8890  -12.6715  -48.9109 H         1 UNK         0.0600 
    132 H132       -0.6513  -13.8614  -49.2166 H         1 UNK         0.0800 
    133 H133       -1.8538  -14.1077  -50.4456 H         1 UNK         0.0800 
    134 H134        0.1406  -16.1969  -51.0315 H         1 UNK         0.0800 
    135 H135        0.8748  -15.6419  -49.5490 H         1 UNK         0.0800 
    136 H136        0.9901  -18.2941  -51.7349 H         1 UNK         0.1150 
    137 H137        2.2726  -21.2480  -48.9174 H         1 UNK         0.1150 
    138 H138        0.6128  -17.5474  -47.5323 H         1 UNK         0.1150 
    139 H139        2.5418  -20.4959  -46.5239 H         1 UNK         0.0800 
    140 H140        1.7725  -19.0349  -45.9878 H         1 UNK         0.0800 
    141 H141        0.4378  -22.2959  -47.9396 H         1 UNK         0.0800 
    142 H142       -0.5926  -22.9800  -46.7214 H         1 UNK         0.0800 
    143 H143        2.4468  -22.7555  -46.4266 H         1 UNK         0.0600 
    144 H144        0.4667  -23.2355  -44.4728 H         1 UNK         0.3000 
    145 H145        0.9110  -24.6393  -42.4804 H         1 UNK         0.0600 
    146 H146        3.0667  -25.7887  -41.9927 H         1 UNK         0.0600 
    147 H147        3.8333  -24.2430  -41.6448 H         1 UNK         0.0600 
    148 H148        2.5298  -24.8383  -40.6173 H         1 UNK         0.0600 
    149 H149        2.3758  -22.3073  -41.5126 H         1 UNK         0.3000 
    150 H150        0.7140  -20.5350  -40.6847 H         1 UNK         0.0600 
    151 H151        1.8042  -18.7093  -42.0640 H         1 UNK         0.0600 
    152 H152        1.7730  -19.7798  -43.4625 H         1 UNK         0.0600 
    153 H153        2.7403  -20.1917  -42.0532 H         1 UNK         0.0600 
    154 H154       -0.5687  -19.1207  -42.8696 H         1 UNK         0.3000 
    155 H155       -3.8461  -19.7100  -42.0473 H         1 UNK         0.0600 
    156 H156       -2.5388  -17.2932  -40.6836 H         1 UNK         0.0600 
    157 H157       -3.5855  -18.4702  -39.8996 H         1 UNK         0.0600 
    158 H158       -4.2363  -17.4211  -41.1474 H         1 UNK         0.0600 
    159 H159       -2.4804  -17.3752  -43.1221 H         1 UNK         0.3000 
    160 H160       -1.7807  -18.5950  -46.2602 H         1 UNK         0.0600 
    161 H161       -4.2421  -18.4894  -46.6965 H         1 UNK         0.0600 
    162 H162       -3.4279  -17.0527  -47.2831 H         1 UNK         0.0600 
    163 H163       -4.3467  -16.9868  -45.7828 H         1 UNK         0.0600 
    164 H164       -2.1032  -15.9054  -45.5150 H         1 UNK         0.3000 
    165 H165       -0.4952  -14.6142  -44.8076 H         1 UNK         0.0600 
    166 H166        0.7723  -15.8464  -42.3088 H         1 UNK         0.0600 
    167 H167       -0.8574  -15.1896  -42.4092 H         1 UNK         0.0600 
    168 H168        0.5266  -14.1256  -42.6070 H         1 UNK         0.0600 
    169 H169        2.2358  -15.3567  -44.2223 H         1 UNK         0.3000 
    170 H170        3.7130  -15.9082  -46.1105 H         1 UNK         0.0600 
    171 H171        4.5458  -15.0287  -48.3004 H         1 UNK         0.0600 
    172 H172        3.0907  -15.9889  -48.5099 H         1 UNK         0.0600 
    173 H173        2.9997  -14.2305  -48.5822 H         1 UNK         0.0600 
    174 H174        3.1964  -12.9782  -46.1095 H         1 UNK         0.3000 
    175 H175        5.6323  -12.4819  -43.6863 H         1 UNK         0.0600 
    176 H176        5.9755  -11.4248  -46.5443 H         1 UNK         0.0600 
    177 H177        6.6406  -10.6955  -45.0816 H         1 UNK         0.0600 
    178 H178        7.2092  -12.2683  -45.6158 H         1 UNK         0.0600 
    179 H179        4.1248  -10.5727  -45.1357 H         1 UNK         0.3000 
    180 H180        1.8763  -10.1837  -42.7007 H         1 UNK         0.0600 
    181 H181        1.5617   -8.4486  -44.4425 H         1 UNK         0.0600 
    182 H182        2.4437   -9.4134  -45.6174 H         1 UNK         0.0600 
    183 H183        3.2641   -8.7767  -44.1929 H         1 UNK         0.0600 
    184 H184       -0.0567  -10.9394  -43.4057 H         1 UNK         0.3000 
    185 H185       -1.4350  -12.5832  -44.6898 H         1 UNK         0.0600 
    186 H186       -1.9032   -9.8099  -45.9098 H         1 UNK         0.0600 
    187 H187       -3.1741  -10.8802  -45.3241 H         1 UNK         0.0600 
    188 H188       -1.9997  -10.2236  -44.2020 H         1 UNK         0.0600 
    189 H189       -1.1693  -11.8162  -47.5578 H         1 UNK         0.3000 
    190 H190        2.6532  -23.6037  -48.5711 H         1 UNK         0.3000 
    191 H191        3.1480  -26.3708  -48.6564 H         1 UNK         0.0600 
    192 H192        2.9922  -24.3034  -50.9178 H         1 UNK         0.0600 
    193 H193        3.7466  -25.8876  -51.0384 H         1 UNK         0.0600 
    194 H194        4.4216  -24.6819  -49.9553 H         1 UNK         0.0600 
    195 H195        0.2574  -24.6103  -49.4822 H         1 UNK         0.3000 
    196 H196       -1.1376  -27.1279  -50.1461 H         1 UNK         0.0600 
    197 H197       -0.8657  -25.8917  -52.3142 H         1 UNK         0.0600 
    198 H198       -1.5164  -24.4308  -51.5792 H         1 UNK         0.0600 
    199 H199       -2.5406  -25.8525  -51.7835 H         1 UNK         0.0600 
    200 H200       -3.2383  -27.1343  -49.2653 H         1 UNK         0.3000 
    201 H201       -3.5416  -26.0664  -46.7363 H         1 UNK         0.0600 
    202 H202       -4.6923  -28.1016  -47.5249 H         1 UNK         0.0600 
    203 H203       -5.6756  -27.1586  -48.6453 H         1 UNK         0.0600 
    204 H204       -5.8775  -26.9612  -46.9089 H         1 UNK         0.0600 
    205 H205       -3.8610  -24.0573  -46.0766 H         1 UNK         0.3000 
    206 H206       -4.3661  -21.9162  -45.9065 H         1 UNK         0.0600 
    207 H207       -6.6961  -21.2008  -46.3841 H         1 UNK         0.0600 
    208 H208       -6.9691  -22.6479  -47.3468 H         1 UNK         0.0600 
    209 H209       -6.6769  -22.7782  -45.6152 H         1 UNK         0.0600 
    210 H210       -2.6953  -22.6032  -48.0642 H         1 UNK         0.3000 
    211 H211       -1.6399  -21.8296  -49.8346 H         1 UNK         0.0600 
    212 H212       -3.2214  -19.2146  -49.5836 H         1 UNK         0.0600 
    213 H213       -1.7188  -19.4677  -50.4594 H         1 UNK         0.0600 
    214 H214       -1.7360  -19.5875  -48.7114 H         1 UNK         0.0600 
    215 H215       -3.7015  -23.5315  -50.2066 H         1 UNK         0.3000 
    216 H216       -4.9934  -24.5646  -51.6655 H         1 UNK         0.0600 
    217 H217       -4.8645  -24.0787  -54.1099 H         1 UNK         0.0600 
    218 H218       -3.2728  -24.2108  -53.3992 H         1 UNK         0.0600 
    219 H219       -3.9347  -22.6254  -53.7886 H         1 UNK         0.0600 
    220 H220       -6.2042  -23.0073  -49.9666 H         1 UNK         0.3000 
    221 H221       -7.9950  -21.8411  -49.3580 H         1 UNK         0.0600 
    222 H222       -9.2152  -22.7606  -52.0150 H         1 UNK         0.0600 
    223 H223       -9.1942  -23.6895  -50.5168 H         1 UNK         0.0600 
    224 H224      -10.0997  -22.1872  -50.6083 H         1 UNK         0.0600 
    225 H225       -6.2000  -20.1542  -49.8810 H         1 UNK         0.3000 
    226 H226       -5.6395  -18.0743  -50.3105 H         1 UNK         0.0600 
    227 H227       -7.7749  -17.5620  -49.1485 H         1 UNK         0.0600 
    228 H228       -7.4183  -16.3423  -50.3629 H         1 UNK         0.0600 
    229 H229       -8.6380  -17.5583  -50.6854 H         1 UNK         0.0600 
    230 H230       -5.2430  -19.7518  -52.4858 H         1 UNK         0.3000 
    231 H231       -5.6916  -17.9776  -54.8632 H         1 UNK         0.0600 
    232 H232       -5.2262  -20.9982  -54.7842 H         1 UNK         0.0600 
    233 H233       -6.8027  -20.2384  -54.9793 H         1 UNK         0.0600 
    234 H234       -5.5645  -20.0222  -56.2066 H         1 UNK         0.0600 
    235 H235       -3.5011  -18.2947  -52.6091 H         1 UNK         0.3000 
    236 H236       -1.3212  -18.0857  -52.3139 H         1 UNK         0.0600 
    237 H237       -1.2331  -16.9607  -55.1587 H         1 UNK         0.0600 
    238 H238       -1.6316  -16.0435  -53.7060 H         1 UNK         0.0600 
    239 H239       -0.0231  -16.7171  -53.9051 H         1 UNK         0.0600 
    240 H240       -2.1891  -20.6171  -53.0208 H         1 UNK         0.3000 
    241 H241       -1.5327  -22.6517  -53.4561 H         1 UNK         0.0600 
    242 H242       -1.9383  -21.6704  -57.2101 H         1 UNK         0.3800 
    243 H243       -2.1786  -20.5770  -55.8734 H         1 UNK         0.3800 
    244 H244        0.7815  -23.3863  -53.7386 H         1 UNK         0.0800 
    245 H245        1.3212  -21.7616  -54.0288 H         1 UNK         0.0800 
    246 H246        2.9944  -21.2428  -51.4212 H         1 UNK         0.0800 
    247 H247        2.0467  -20.2702  -52.5180 H         1 UNK         0.0800 
@<TRIPOS>BOND
     1    1    2 1    
     2    1  127 1    
     3    1  128 1    
     4    1  129 1    
     5    2    3 2    
     6    2    4 am   BACKBONE|DICT|INTERRES
     7    4    5 1    
     8    4  130 1    
     9    5    6 1    
    10    5   65 1    
    11    5  131 1    
    12    6    7 1    
    13    6  132 1    
    14    6  133 1    
    15    7    8 1    
    16    8    9 1    
    17    8  134 1    
    18    8  135 1    
    19    9   10 ar   
    20    9   14 ar   
    21   10   11 ar   
    22   10  136 1    
    23   11   12 ar   
    24   11  126 1    
    25   12   13 ar   
    26   12  137 1    
    27   13   14 ar   
    28   13   15 1    
    29   14  138 1    
    30   15   16 1    
    31   15  139 1    
    32   15  140 1    
    33   16   17 1    
    34   17   18 1    
    35   17  141 1    
    36   17  142 1    
    37   18   19 1    
    38   18   67 1    
    39   18  143 1    
    40   19   20 am   BACKBONE|DICT|INTERRES
    41   19  144 1    
    42   20   21 2    
    43   20   22 1    
    44   22   23 1    
    45   22   24 1    
    46   22  145 1    
    47   23  146 1    
    48   23  147 1    
    49   23  148 1    
    50   24   25 am   BACKBONE|DICT|INTERRES
    51   24  149 1    
    52   25   26 2    
    53   25   27 1    
    54   27   28 1    
    55   27   29 1    
    56   27  150 1    
    57   28  151 1    
    58   28  152 1    
    59   28  153 1    
    60   29   30 am   BACKBONE|DICT|INTERRES
    61   29  154 1    
    62   30   31 2    
    63   30   32 1    
    64   32   33 1    
    65   32   34 1    
    66   32  155 1    
    67   33  156 1    
    68   33  157 1    
    69   33  158 1    
    70   34   35 am   BACKBONE|DICT|INTERRES
    71   34  159 1    
    72   35   36 2    
    73   35   37 1    
    74   37   38 1    
    75   37   39 1    
    76   37  160 1    
    77   38  161 1    
    78   38  162 1    
    79   38  163 1    
    80   39   40 am   BACKBONE|DICT|INTERRES
    81   39  164 1    
    82   40   41 2    
    83   40   42 1    
    84   42   43 1    
    85   42   44 1    
    86   42  165 1    
    87   43  166 1    
    88   43  167 1    
    89   43  168 1    
    90   44   45 am   BACKBONE|DICT|INTERRES
    91   44  169 1    
    92   45   46 2    
    93   45   47 1    
    94   47   48 1    
    95   47   49 1    
    96   47  170 1    
    97   48  171 1    
    98   48  172 1    
    99   48  173 1    
   100   49   50 am   BACKBONE|DICT|INTERRES
   101   49  174 1    
   102   50   51 2    
   103   50   52 1    
   104   52   53 1    
   105   52   54 1    
   106   52  175 1    
   107   53  176 1    
   108   53  177 1    
   109   53  178 1    
   110   54   55 am   BACKBONE|DICT|INTERRES
   111   54  179 1    
   112   55   56 2    
   113   55   57 1    
   114   57   58 1    
   115   57   59 1    
   116   57  180 1    
   117   58  181 1    
   118   58  182 1    
   119   58  183 1    
   120   59   60 am   BACKBONE|DICT|INTERRES
   121   59  184 1    
   122   60   61 2    
   123   60   62 1    
   124   62   63 1    
   125   62   64 1    
   126   62  185 1    
   127   63  186 1    
   128   63  187 1    
   129   63  188 1    
   130   64   65 am   BACKBONE|DICT|INTERRES
   131   64  189 1    
   132   65   66 2    
   133   67   68 2    
   134   67   69 am   BACKBONE|DICT|INTERRES
   135   69   70 1    
   136   69  190 1    
   137   70   71 1    
   138   70   72 1    
   139   70  191 1    
   140   71  192 1    
   141   71  193 1    
   142   71  194 1    
   143   72   73 2    
   144   72   74 am   BACKBONE|DICT|INTERRES
   145   74   75 1    
   146   74  195 1    
   147   75   76 1    
   148   75   77 1    
   149   75  196 1    
   150   76  197 1    
   151   76  198 1    
   152   76  199 1    
   153   77   78 2    
   154   77   79 am   BACKBONE|DICT|INTERRES
   155   79   80 1    
   156   79  200 1    
   157   80   81 1    
   158   80   82 1    
   159   80  201 1    
   160   81  202 1    
   161   81  203 1    
   162   81  204 1    
   163   82   83 2    
   164   82   84 am   BACKBONE|DICT|INTERRES
   165   84   85 1    
   166   84  205 1    
   167   85   86 1    
   168   85   87 1    
   169   85  206 1    
   170   86  207 1    
   171   86  208 1    
   172   86  209 1    
   173   87   88 2    
   174   87   89 am   BACKBONE|DICT|INTERRES
   175   89   90 1    
   176   89  210 1    
   177   90   91 1    
   178   90   92 1    
   179   90  211 1    
   180   91  212 1    
   181   91  213 1    
   182   91  214 1    
   183   92   93 2    
   184   92   94 am   BACKBONE|DICT|INTERRES
   185   94   95 1    
   186   94  215 1    
   187   95   96 1    
   188   95   97 1    
   189   95  216 1    
   190   96  217 1    
   191   96  218 1    
   192   96  219 1    
   193   97   98 2    
   194   97   99 am   BACKBONE|DICT|INTERRES
   195   99  100 1    
   196   99  220 1    
   197  100  101 1    
   198  100  102 1    
   199  100  221 1    
   200  101  222 1    
   201  101  223 1    
   202  101  224 1    
   203  102  103 2    
   204  102  104 am   BACKBONE|DICT|INTERRES
   205  104  105 1    
   206  104  225 1    
   207  105  106 1    
   208  105  107 1    
   209  105  226 1    
   210  106  227 1    
   211  106  228 1    
   212  106  229 1    
   213  107  108 2    
   214  107  109 am   BACKBONE|DICT|INTERRES
   215  109  110 1    
   216  109  230 1    
   217  110  111 1    
   218  110  112 1    
   219  110  231 1    
   220  111  232 1    
   221  111  233 1    
   222  111  234 1    
   223  112  113 2    
   224  112  114 am   BACKBONE|DICT|INTERRES
   225  114  115 1    
   226  114  235 1    
   227  115  116 1    
   228  115  117 1    
   229  115  236 1    
   230  116  237 1    
   231  116  238 1    
   232  116  239 1    
   233  117  118 2    
   234  117  119 am   BACKBONE|DICT|INTERRES
   235  119  120 1    
   236  119  240 1    
   237  120  121 1    
   238  120  124 1    
   239  120  241 1    
   240  121  122 am   BACKBONE|DICT|INTERRES
   241  121  123 2    
   242  122  242 1    
   243  122  243 1    
   244  124  125 1    
   245  124  244 1    
   246  124  245 1    
   247  125  126 1    
   248  126  246 1    
   249  126  247 1    
@<TRIPOS>SUBSTRUCTURE
     1 UNK         1 GROUP             0       ****    0 ROOT    
