@<TRIPOS>MOLECULE
3R540
247   249    1
SMALL
USER_CHARGES


@<TRIPOS>ATOM
      1 CA         -5.5404  -13.3939  -50.4248 C.3       0 UNK        -0.1800 
      2 C          -4.4973  -13.7859  -49.3896 C.2       0 UNK         0.5000 
      3 O          -4.3738  -13.1279  -48.3552 O.2       0 UNK        -0.5000 
      4 N          -3.7582  -14.8717  -49.6479 N.am      1 UNK        -0.5000 
      5 CA         -2.6668  -15.3774  -48.8033 C.3       1 UNK         0.1400 
      6 C6         -1.8116  -16.4245  -49.5437 C.3       23 UNK        -0.0398 
      7 S7         -0.8567  -15.6855  -50.9063 S.3       23 UNK        -0.2404 
      8 C8          0.8444  -16.0739  -50.3770 C.3       23 UNK        -0.0205 
      9 C9          1.1073  -17.5742  -50.2990 C.ar      23 UNK        -0.0193 
     10 C10         0.8301  -18.3925  -51.3955 C.ar      23 UNK        -0.1150 
     11 C11         1.0888  -19.7630  -51.3512 C.ar      23 UNK        -0.0193 
     12 C12         1.6424  -20.3192  -50.1946 C.ar      23 UNK        -0.1150 
     13 C13         1.9072  -19.5176  -49.0785 C.ar      23 UNK        -0.0193 
     14 C14         1.6334  -18.1468  -49.1370 C.ar      23 UNK        -0.1150 
     15 C15         2.5096  -20.1188  -47.8156 C.3       23 UNK        -0.0205 
     16 S16         1.2526  -20.8650  -46.7273 S.3       23 UNK        -0.2404 
     17 C17         0.9971  -22.4805  -47.5389 C.3       23 UNK        -0.0398 
     18 CA          0.1862  -23.5097  -46.7149 C.3       11 UNK         0.1400 
     19 N           0.7374  -23.7518  -45.3763 N.am      11 UNK        -0.5000 
     20 C           0.4612  -24.8450  -44.6490 C.2       10 UNK         0.5000 
     21 O          -0.2653  -25.7550  -45.0461 O.2       10 UNK        -0.5000 
     22 CA          1.0405  -24.9168  -43.2225 C.3       10 UNK         0.1400 
     23 CB          2.4726  -25.4703  -43.2493 C.3       10 UNK        -0.1800 
     24 N           1.0342  -23.6335  -42.5194 N.am      10 UNK        -0.5000 
     25 C          -0.0425  -22.8650  -42.3083 C.2       9 UNK         0.5000 
     26 O          -1.1775  -23.1939  -42.6528 O.2       9 UNK        -0.5000 
     27 CA          0.1628  -21.4954  -41.6254 C.3       9 UNK         0.1400 
     28 CB         -0.5912  -21.4459  -40.2871 C.3       9 UNK        -0.1800 
     29 N           1.5559  -21.0925  -41.3937 N.am      9 UNK        -0.5000 
     30 C           2.4810  -20.8653  -42.3354 C.2       8 UNK         0.5000 
     31 O           2.3078  -21.0954  -43.5334 O.2       8 UNK        -0.5000 
     32 CA          3.8432  -20.3467  -41.8321 C.3       8 UNK         0.1400 
     33 CB          4.6919  -21.5124  -41.2991 C.3       8 UNK        -0.1800 
     34 N           4.6081  -19.6494  -42.8677 N.am      8 UNK        -0.5000 
     35 C           4.2243  -18.5297  -43.4940 C.2       7 UNK         0.5000 
     36 O           3.1955  -17.9062  -43.2159 O.2       7 UNK        -0.5000 
     37 CA          5.1525  -18.0162  -44.6091 C.3       7 UNK         0.1400 
     38 CB          5.6668  -19.1420  -45.5302 C.3       7 UNK        -0.1800 
     39 N           4.4337  -17.0177  -45.3928 N.am      7 UNK        -0.5000 
     40 C           4.9779  -15.9774  -46.0321 C.2       6 UNK         0.5000 
     41 O           6.1910  -15.7702  -46.0854 O.2       6 UNK        -0.5000 
     42 CA          4.0140  -15.0007  -46.7375 C.3       6 UNK         0.1400 
     43 CB          4.0983  -15.1702  -48.2631 C.3       6 UNK        -0.1800 
     44 N           2.6150  -15.1488  -46.3264 N.am      6 UNK        -0.5000 
     45 C           2.1021  -14.7231  -45.1656 C.2       5 UNK         0.5000 
     46 O           2.7576  -14.1473  -44.2952 O.2       5 UNK        -0.5000 
     47 CA          0.5920  -14.9577  -44.9677 C.3       5 UNK         0.1400 
     48 CB          0.2602  -15.3866  -43.5289 C.3       5 UNK        -0.1800 
     49 N          -0.1870  -13.7660  -45.2985 N.am      5 UNK        -0.5000 
     50 C          -0.3224  -13.2392  -46.5212 C.2       4 UNK         0.5000 
     51 O           0.2101  -13.7099  -47.5277 O.2       4 UNK        -0.5000 
     52 CA         -1.2428  -12.0068  -46.6341 C.3       4 UNK         0.1400 
     53 CB         -1.2792  -11.4207  -48.0575 C.3       4 UNK        -0.1800 
     54 N          -2.6119  -12.3237  -46.2248 N.am      4 UNK        -0.5000 
     55 C          -3.0603  -12.3487  -44.9620 C.2       3 UNK         0.5000 
     56 O          -2.3476  -12.1219  -43.9833 O.2       3 UNK        -0.5000 
     57 CA         -4.5384  -12.7193  -44.7602 C.3       3 UNK         0.1400 
     58 CB         -5.4604  -11.5877  -45.2423 C.3       3 UNK        -0.1800 
     59 N          -4.8493  -13.9444  -45.4917 N.am      3 UNK        -0.5000 
     60 C          -4.9129  -15.1685  -44.9476 C.2       2 UNK         0.5000 
     61 O          -4.8490  -15.3870  -43.7375 O.2       2 UNK        -0.5000 
     62 CA         -5.0445  -16.3566  -45.9239 C.3       2 UNK         0.1400 
     63 CB         -6.5183  -16.7338  -46.1349 C.3       2 UNK        -0.1800 
     64 N          -4.4344  -16.0769  -47.2227 N.am      2 UNK        -0.5000 
     65 C          -3.1212  -15.9053  -47.4239 C.2       1 UNK         0.5000 
     66 O          -2.2766  -16.1086  -46.5524 O.2       1 UNK        -0.5000 
     67 C          -1.3199  -23.1742  -46.6904 C.2       11 UNK         0.5000 
     68 O          -2.0193  -23.4867  -47.6553 O.2       11 UNK        -0.5000 
     69 N          -1.8075  -22.5714  -45.5973 N.am      12 UNK        -0.5000 
     70 CA         -3.2295  -22.3032  -45.3813 C.3       12 UNK         0.1400 
     71 CB         -3.4045  -21.1839  -44.3440 C.3       12 UNK        -0.1800 
     72 C          -3.9777  -23.5814  -44.9715 C.2       12 UNK         0.5000 
     73 O          -5.0699  -23.8289  -45.4805 O.2       12 UNK        -0.5000 
     74 N          -3.3507  -24.4017  -44.1159 N.am      13 UNK        -0.5000 
     75 CA         -3.8391  -25.7209  -43.7052 C.3       13 UNK         0.1400 
     76 CB         -2.9402  -26.2714  -42.5881 C.3       13 UNK        -0.1800 
     77 C          -3.9300  -26.7167  -44.8789 C.2       13 UNK         0.5000 
     78 O          -4.8900  -27.4838  -44.9545 O.2       13 UNK        -0.5000 
     79 N          -2.9547  -26.6525  -45.7963 N.am      14 UNK        -0.5000 
     80 CA         -2.9262  -27.4048  -47.0536 C.3       14 UNK         0.1400 
     81 CB         -1.4871  -27.4050  -47.5935 C.3       14 UNK        -0.1800 
     82 C          -3.8932  -26.8593  -48.1266 C.2       14 UNK         0.5000 
     83 O          -4.0787  -27.5166  -49.1512 O.2       14 UNK        -0.5000 
     84 N          -4.4659  -25.6687  -47.8905 N.am      15 UNK        -0.5000 
     85 CA         -5.3604  -24.9080  -48.7700 C.3       15 UNK         0.1400 
     86 CB         -6.6764  -25.6707  -49.0264 C.3       15 UNK        -0.1800 
     87 C          -4.6877  -24.4146  -50.0692 C.2       15 UNK         0.5000 
     88 O          -5.3795  -24.1112  -51.0415 O.2       15 UNK        -0.5000 
     89 N          -3.3541  -24.2955  -50.0551 N.am      16 UNK        -0.5000 
     90 CA         -2.5593  -23.7006  -51.1288 C.3       16 UNK         0.1400 
     91 CB         -1.1095  -24.1975  -51.0179 C.3       16 UNK        -0.1800 
     92 C          -2.6202  -22.1642  -51.0705 C.2       16 UNK         0.5000 
     93 O          -2.6809  -21.5138  -52.1122 O.2       16 UNK        -0.5000 
     94 N          -2.6489  -21.6213  -49.8461 N.am      17 UNK        -0.5000 
     95 CA         -2.7786  -20.1935  -49.5525 C.3       17 UNK         0.1400 
     96 CB         -1.9523  -19.8707  -48.2989 C.3       17 UNK        -0.1800 
     97 C          -4.2452  -19.7434  -49.3921 C.2       17 UNK         0.5000 
     98 O          -4.4871  -18.6350  -48.9183 O.2       17 UNK        -0.5000 
     99 N          -5.2097  -20.5858  -49.7919 N.am      18 UNK        -0.5000 
    100 CA        -6.6456  -20.2776  -49.7731 C.3       18 UNK         0.1400 
    101 CB        -7.4372  -21.5693  -50.0265 C.3       18 UNK        -0.1800 
    102 C         -7.0586  -19.1794  -50.7788 C.2       18 UNK         0.5000 
    103 O         -8.1414  -18.6079  -50.6458 O.2       18 UNK        -0.5000 
    104 N         -6.1861  -18.9002  -51.7511 N.am      19 UNK        -0.5000 
    105 CA        -6.2604  -17.8012  -52.7027 C.3       19 UNK         0.1400 
    106 CB        -6.7610  -18.3428  -54.0527 C.3       19 UNK        -0.1800 
    107 C         -4.8553  -17.1911  -52.8313 C.2       19 UNK         0.5000 
    108 O         -3.8897  -17.7410  -52.2922 O.2       19 UNK        -0.5000 
    109 N         -4.7481  -16.0784  -53.5668 N.am      20 UNK        -0.5000 
    110 CA        -3.4900  -15.4007  -53.8980 C.3       20 UNK         0.1400 
    111 CB        -3.7976  -13.9369  -54.2611 C.3       20 UNK        -0.1800 
    112 C         -2.7032  -16.1437  -55.0038 C.2       20 UNK         0.5000 
    113 O         -2.4312  -15.5791  -56.0654 O.2       20 UNK        -0.5000 
    114 N         -2.3898  -17.4166  -54.7416 N.am      21 UNK        -0.5000 
    115 CA        -1.6281  -18.3170  -55.6040 C.3       21 UNK         0.1400 
    116 CB        -2.1541  -19.7471  -55.3778 C.3       21 UNK        -0.1800 
    117 C         -0.1089  -18.1883  -55.3536 C.2       21 UNK         0.5000 
    118 O          0.3338  -17.2297  -54.7174 O.2       21 UNK        -0.5000 
    119 N          0.6681  -19.1513  -55.8710 N.am      22 UNK        -0.5000 
    120 CA         2.1406  -19.2346  -55.7678 C.3       22 UNK         0.1400 
    121 C          2.9137  -18.1064  -56.5240 C.2       22 UNK         0.5000 
    122 N          2.2945  -17.3838  -57.4497 N.am      22 UNK        -0.7600 
    123 O          4.1047  -17.9031  -56.3028 O.2       22 UNK        -0.5000 
    124 C124        2.6445  -19.4331  -54.3064 C.3       23 UNK        -0.0398 
    125 S125        2.1662  -21.0454  -53.5891 S.3       23 UNK        -0.2404 
    126 C126        0.7332  -20.6389  -52.5423 C.3       23 UNK        -0.0205 
    127 H127       -5.3053  -12.4136  -50.8390 H         1 UNK         0.0600 
    128 H128       -6.5263  -13.3430  -49.9628 H         1 UNK         0.0600 
    129 H129       -5.5858  -14.1097  -51.2459 H         1 UNK         0.0600 
    130 H130       -3.9051  -15.3822  -50.5065 H         1 UNK         0.3000 
    131 H131       -2.0238  -14.5252  -48.5868 H         1 UNK         0.0600 
    132 H132       -1.1156  -16.9040  -48.8546 H         1 UNK         0.0800 
    133 H133       -2.4380  -17.2168  -49.9520 H         1 UNK         0.0800 
    134 H134        1.5437  -15.6324  -51.0879 H         1 UNK         0.0800 
    135 H135        1.0336  -15.5920  -49.4168 H         1 UNK         0.0800 
    136 H136        0.4026  -17.9561  -52.2856 H         1 UNK         0.1150 
    137 H137        1.8591  -21.3770  -50.1646 H         1 UNK         0.1150 
    138 H138        1.8388  -17.5262  -48.2775 H         1 UNK         0.1150 
    139 H139        3.2717  -20.8557  -48.0727 H         1 UNK         0.0800 
    140 H140        3.0231  -19.3379  -47.2542 H         1 UNK         0.0800 
    141 H141        1.9770  -22.9043  -47.7620 H         1 UNK         0.0800 
    142 H142        0.5183  -22.3146  -48.5047 H         1 UNK         0.0800 
    143 H143        0.2625  -24.4524  -47.2611 H         1 UNK         0.0600 
    144 H144        1.3163  -23.0207  -44.9819 H         1 UNK         0.3000 
    145 H145        0.4183  -25.6065  -42.6491 H         1 UNK         0.0600 
    146 H146        2.8579  -25.6176  -42.2402 H         1 UNK         0.0600 
    147 H147        2.5085  -26.4369  -43.7539 H         1 UNK         0.0600 
    148 H148        3.1536  -24.7993  -43.7745 H         1 UNK         0.0600 
    149 H149        1.9300  -23.2735  -42.2272 H         1 UNK         0.3000 
    150 H150       -0.2820  -20.7520  -42.2902 H         1 UNK         0.0600 
    151 H151       -0.1789  -22.1552  -39.5684 H         1 UNK         0.0600 
    152 H152       -1.6465  -21.6892  -40.4194 H         1 UNK         0.0600 
    153 H153       -0.5453  -20.4511  -39.8435 H         1 UNK         0.0600 
    154 H154        1.8013  -20.9136  -40.4305 H         1 UNK         0.3000 
    155 H155        3.6623  -19.6407  -41.0190 H         1 UNK         0.0600 
    156 H156        4.9086  -22.2419  -42.0808 H         1 UNK         0.0600 
    157 H157        4.1794  -22.0385  -40.4928 H         1 UNK         0.0600 
    158 H158        5.6418  -21.1582  -40.8981 H         1 UNK         0.0600 
    159 H159        5.4517  -20.1075  -43.1780 H         1 UNK         0.3000 
    160 H160        6.0041  -17.5381  -44.1207 H         1 UNK         0.0600 
    161 H161        4.8531  -19.7696  -45.8928 H         1 UNK         0.0600 
    162 H162        6.3704  -19.7896  -45.0066 H         1 UNK         0.0600 
    163 H163        6.1920  -18.7406  -46.3971 H         1 UNK         0.0600 
    164 H164        3.4269  -17.0697  -45.3162 H         1 UNK         0.3000 
    165 H165        4.3375  -13.9875  -46.4904 H         1 UNK         0.0600 
    166 H166        3.4388  -14.4701  -48.7768 H         1 UNK         0.0600 
    167 H167        5.1113  -14.9813  -48.6204 H         1 UNK         0.0600 
    168 H168        3.8275  -16.1794  -48.5738 H         1 UNK         0.0600 
    169 H169        1.9819  -15.5275  -47.0151 H         1 UNK         0.3000 
    170 H170        0.2781  -15.7654  -45.6323 H         1 UNK         0.0600 
    171 H171        0.8309  -16.2718  -43.2449 H         1 UNK         0.0600 
    172 H172        0.4901  -14.6009  -42.8082 H         1 UNK         0.0600 
    173 H173       -0.7967  -15.6353  -43.4285 H         1 UNK         0.0600 
    174 H174       -0.6800  -13.3170  -44.5358 H         1 UNK         0.3000 
    175 H175       -0.8389  -11.2380  -45.9721 H         1 UNK         0.0600 
    176 H176       -0.2790  -11.1421  -48.3915 H         1 UNK         0.0600 
    177 H177       -1.6806  -12.1319  -48.7800 H         1 UNK         0.0600 
    178 H178       -1.8959  -10.5227  -48.0971 H         1 UNK         0.0600 
    179 H179       -3.2580  -12.5483  -46.9773 H         1 UNK         0.3000 
    180 H180       -4.7091  -12.8588  -43.6907 H         1 UNK         0.0600 
    181 H181       -5.3527  -11.4004  -46.3114 H         1 UNK         0.0600 
    182 H182       -5.2391  -10.6556  -44.7209 H         1 UNK         0.0600 
    183 H183       -6.5064  -11.8271  -45.0504 H         1 UNK         0.0600 
    184 H184       -4.8782  -13.8632  -46.5017 H         1 UNK         0.3000 
    185 H185       -4.5296  -17.2127  -45.4826 H         1 UNK         0.0600 
    186 H186       -6.9974  -16.9800  -45.1865 H         1 UNK         0.0600 
    187 H187       -7.0825  -15.9172  -46.5869 H         1 UNK         0.0600 
    188 H188       -6.6114  -17.6062  -46.7826 H         1 UNK         0.0600 
    189 H189       -5.0585  -15.9459  -48.0045 H         1 UNK         0.3000 
    190 H190       -1.1857  -22.3875  -44.8229 H         1 UNK         0.3000 
    191 H191       -3.6695  -21.9557  -46.3185 H         1 UNK         0.0600 
    192 H192       -2.8946  -20.2733  -44.6593 H         1 UNK         0.0600 
    193 H193       -4.4591  -20.9374  -44.2153 H         1 UNK         0.0600 
    194 H194       -3.0145  -21.4655  -43.3662 H         1 UNK         0.0600 
    195 H195       -2.4759  -24.0898  -43.7021 H         1 UNK         0.3000 
    196 H196       -4.8450  -25.5910  -43.3007 H         1 UNK         0.0600 
    197 H197       -3.3142  -27.2287  -42.2229 H         1 UNK         0.0600 
    198 H198       -2.9039  -25.5893  -41.7383 H         1 UNK         0.0600 
    199 H199       -1.9188  -26.4289  -42.9340 H         1 UNK         0.0600 
    200 H200       -2.1510  -26.0614  -45.6075 H         1 UNK         0.3000 
    201 H201       -3.2149  -28.4373  -46.8468 H         1 UNK         0.0600 
    202 H202       -1.4087  -27.9967  -48.5063 H         1 UNK         0.0600 
    203 H203       -0.7937  -27.8341  -46.8699 H         1 UNK         0.0600 
    204 H204       -1.1473  -26.3956  -47.8269 H         1 UNK         0.0600 
    205 H205       -4.2597  -25.2197  -47.0075 H         1 UNK         0.3000 
    206 H206       -5.6151  -24.0047  -48.2145 H         1 UNK         0.0600 
    207 H207       -7.1313  -25.9958  -48.0907 H         1 UNK         0.0600 
    208 H208       -7.4034  -25.0366  -49.5352 H         1 UNK         0.0600 
    209 H209       -6.5213  -26.5516  -49.6496 H         1 UNK         0.0600 
    210 H210       -2.8681  -24.4826  -49.1850 H         1 UNK         0.3000 
    211 H211       -2.9601  -24.0236  -52.0920 H         1 UNK         0.0600 
    212 H212       -0.6394  -23.8759  -50.0884 H         1 UNK         0.0600 
    213 H213       -0.5040  -23.8205  -51.8425 H         1 UNK         0.0600 
    214 H214       -1.0639  -25.2861  -51.0551 H         1 UNK         0.0600 
    215 H215       -2.5829  -22.2440  -49.0468 H         1 UNK         0.3000 
    216 H216       -2.3626  -19.6160  -50.3810 H         1 UNK         0.0600 
    217 H217       -2.0429  -18.8264  -48.0059 H         1 UNK         0.0600 
    218 H218       -0.8969  -20.0620  -48.4798 H         1 UNK         0.0600 
    219 H219       -2.2648  -20.4636  -47.4430 H         1 UNK         0.0600 
    220 H220       -4.9390  -21.4705  -50.1952 H         1 UNK         0.3000 
    221 H221       -6.8991  -19.9130  -48.7754 H         1 UNK         0.0600 
    222 H222       -7.2105  -21.9937  -51.0053 H         1 UNK         0.0600 
    223 H223       -7.2156  -22.3235  -49.2718 H         1 UNK         0.0600 
    224 H224       -8.5115  -21.3838  -49.9908 H         1 UNK         0.0600 
    225 H225       -5.2864  -19.3627  -51.7307 H         1 UNK         0.3000 
    226 H226       -6.9370  -17.0258  -52.3375 H         1 UNK         0.0600 
    227 H227       -6.8649  -17.5441  -54.7877 H         1 UNK         0.0600 
    228 H228       -6.0762  -19.0846  -54.4663 H         1 UNK         0.0600 
    229 H229       -7.7388  -18.8135  -53.9481 H         1 UNK         0.0600 
    230 H230       -5.5767  -15.7066  -54.0083 H         1 UNK         0.3000 
    231 H231       -2.8562  -15.3882  -53.0106 H         1 UNK         0.0600 
    232 H232       -4.4412  -13.8655  -55.1387 H         1 UNK         0.0600 
    233 H233       -2.8807  -13.3876  -54.4786 H         1 UNK         0.0600 
    234 H234       -4.2932  -13.4220  -53.4380 H         1 UNK         0.0600 
    235 H235       -2.6533  -17.7779  -53.8303 H         1 UNK         0.3000 
    236 H236       -1.8068  -18.0514  -56.6478 H         1 UNK         0.0600 
    237 H237       -3.2249  -19.8022  -55.5756 H         1 UNK         0.0600 
    238 H238       -1.6744  -20.4690  -56.0389 H         1 UNK         0.0600 
    239 H239       -1.9963  -20.0775  -54.3517 H         1 UNK         0.0600 
    240 H240        0.2309  -19.8981  -56.3911 H         1 UNK         0.3000 
    241 H241        2.4110  -20.1370  -56.3171 H         1 UNK         0.0600 
    242 H242        1.3214  -17.5392  -57.6576 H         1 UNK         0.3800 
    243 H243        2.8042  -16.6668  -57.9419 H         1 UNK         0.3800 
    244 H244        3.7347  -19.4135  -54.2735 H         1 UNK         0.0800 
    245 H245        2.3249  -18.6123  -53.6671 H         1 UNK         0.0800 
    246 H246       -0.0354  -20.1612  -53.1474 H         1 UNK         0.0800 
    247 H247        0.2922  -21.5676  -52.1810 H         1 UNK         0.0800 
@<TRIPOS>BOND
     1    1    2 1    
     2    1  127 1    
     3    1  128 1    
     4    1  129 1    
     5    2    3 2    
     6    2    4 am   BACKBONE|DICT|INTERRES
     7    4    5 1    
     8    4  130 1    
     9    5    6 1    
    10    5   65 1    
    11    5  131 1    
    12    6    7 1    
    13    6  132 1    
    14    6  133 1    
    15    7    8 1    
    16    8    9 1    
    17    8  134 1    
    18    8  135 1    
    19    9   10 ar   
    20    9   14 ar   
    21   10   11 ar   
    22   10  136 1    
    23   11   12 ar   
    24   11  126 1    
    25   12   13 ar   
    26   12  137 1    
    27   13   14 ar   
    28   13   15 1    
    29   14  138 1    
    30   15   16 1    
    31   15  139 1    
    32   15  140 1    
    33   16   17 1    
    34   17   18 1    
    35   17  141 1    
    36   17  142 1    
    37   18   19 1    
    38   18   67 1    
    39   18  143 1    
    40   19   20 am   BACKBONE|DICT|INTERRES
    41   19  144 1    
    42   20   21 2    
    43   20   22 1    
    44   22   23 1    
    45   22   24 1    
    46   22  145 1    
    47   23  146 1    
    48   23  147 1    
    49   23  148 1    
    50   24   25 am   BACKBONE|DICT|INTERRES
    51   24  149 1    
    52   25   26 2    
    53   25   27 1    
    54   27   28 1    
    55   27   29 1    
    56   27  150 1    
    57   28  151 1    
    58   28  152 1    
    59   28  153 1    
    60   29   30 am   BACKBONE|DICT|INTERRES
    61   29  154 1    
    62   30   31 2    
    63   30   32 1    
    64   32   33 1    
    65   32   34 1    
    66   32  155 1    
    67   33  156 1    
    68   33  157 1    
    69   33  158 1    
    70   34   35 am   BACKBONE|DICT|INTERRES
    71   34  159 1    
    72   35   36 2    
    73   35   37 1    
    74   37   38 1    
    75   37   39 1    
    76   37  160 1    
    77   38  161 1    
    78   38  162 1    
    79   38  163 1    
    80   39   40 am   BACKBONE|DICT|INTERRES
    81   39  164 1    
    82   40   41 2    
    83   40   42 1    
    84   42   43 1    
    85   42   44 1    
    86   42  165 1    
    87   43  166 1    
    88   43  167 1    
    89   43  168 1    
    90   44   45 am   BACKBONE|DICT|INTERRES
    91   44  169 1    
    92   45   46 2    
    93   45   47 1    
    94   47   48 1    
    95   47   49 1    
    96   47  170 1    
    97   48  171 1    
    98   48  172 1    
    99   48  173 1    
   100   49   50 am   BACKBONE|DICT|INTERRES
   101   49  174 1    
   102   50   51 2    
   103   50   52 1    
   104   52   53 1    
   105   52   54 1    
   106   52  175 1    
   107   53  176 1    
   108   53  177 1    
   109   53  178 1    
   110   54   55 am   BACKBONE|DICT|INTERRES
   111   54  179 1    
   112   55   56 2    
   113   55   57 1    
   114   57   58 1    
   115   57   59 1    
   116   57  180 1    
   117   58  181 1    
   118   58  182 1    
   119   58  183 1    
   120   59   60 am   BACKBONE|DICT|INTERRES
   121   59  184 1    
   122   60   61 2    
   123   60   62 1    
   124   62   63 1    
   125   62   64 1    
   126   62  185 1    
   127   63  186 1    
   128   63  187 1    
   129   63  188 1    
   130   64   65 am   BACKBONE|DICT|INTERRES
   131   64  189 1    
   132   65   66 2    
   133   67   68 2    
   134   67   69 am   BACKBONE|DICT|INTERRES
   135   69   70 1    
   136   69  190 1    
   137   70   71 1    
   138   70   72 1    
   139   70  191 1    
   140   71  192 1    
   141   71  193 1    
   142   71  194 1    
   143   72   73 2    
   144   72   74 am   BACKBONE|DICT|INTERRES
   145   74   75 1    
   146   74  195 1    
   147   75   76 1    
   148   75   77 1    
   149   75  196 1    
   150   76  197 1    
   151   76  198 1    
   152   76  199 1    
   153   77   78 2    
   154   77   79 am   BACKBONE|DICT|INTERRES
   155   79   80 1    
   156   79  200 1    
   157   80   81 1    
   158   80   82 1    
   159   80  201 1    
   160   81  202 1    
   161   81  203 1    
   162   81  204 1    
   163   82   83 2    
   164   82   84 am   BACKBONE|DICT|INTERRES
   165   84   85 1    
   166   84  205 1    
   167   85   86 1    
   168   85   87 1    
   169   85  206 1    
   170   86  207 1    
   171   86  208 1    
   172   86  209 1    
   173   87   88 2    
   174   87   89 am   BACKBONE|DICT|INTERRES
   175   89   90 1    
   176   89  210 1    
   177   90   91 1    
   178   90   92 1    
   179   90  211 1    
   180   91  212 1    
   181   91  213 1    
   182   91  214 1    
   183   92   93 2    
   184   92   94 am   BACKBONE|DICT|INTERRES
   185   94   95 1    
   186   94  215 1    
   187   95   96 1    
   188   95   97 1    
   189   95  216 1    
   190   96  217 1    
   191   96  218 1    
   192   96  219 1    
   193   97   98 2    
   194   97   99 am   BACKBONE|DICT|INTERRES
   195   99  100 1    
   196   99  220 1    
   197  100  101 1    
   198  100  102 1    
   199  100  221 1    
   200  101  222 1    
   201  101  223 1    
   202  101  224 1    
   203  102  103 2    
   204  102  104 am   BACKBONE|DICT|INTERRES
   205  104  105 1    
   206  104  225 1    
   207  105  106 1    
   208  105  107 1    
   209  105  226 1    
   210  106  227 1    
   211  106  228 1    
   212  106  229 1    
   213  107  108 2    
   214  107  109 am   BACKBONE|DICT|INTERRES
   215  109  110 1    
   216  109  230 1    
   217  110  111 1    
   218  110  112 1    
   219  110  231 1    
   220  111  232 1    
   221  111  233 1    
   222  111  234 1    
   223  112  113 2    
   224  112  114 am   BACKBONE|DICT|INTERRES
   225  114  115 1    
   226  114  235 1    
   227  115  116 1    
   228  115  117 1    
   229  115  236 1    
   230  116  237 1    
   231  116  238 1    
   232  116  239 1    
   233  117  118 2    
   234  117  119 am   BACKBONE|DICT|INTERRES
   235  119  120 1    
   236  119  240 1    
   237  120  121 1    
   238  120  124 1    
   239  120  241 1    
   240  121  122 am   BACKBONE|DICT|INTERRES
   241  121  123 2    
   242  122  242 1    
   243  122  243 1    
   244  124  125 1    
   245  124  244 1    
   246  124  245 1    
   247  125  126 1    
   248  126  246 1    
   249  126  247 1    
@<TRIPOS>SUBSTRUCTURE
     1 UNK         1 GROUP             0       ****    0 ROOT    
