@<TRIPOS>MOLECULE
3R540
247   249    1
SMALL
USER_CHARGES


@<TRIPOS>ATOM
      1 CA         -1.0285  -10.5314  -45.6995 C.3       0 UNK        -0.1800 
      2 C          -0.0295  -10.4955  -46.8463 C.2       0 UNK         0.5000 
      3 O           0.1018   -9.4705  -47.5154 O.2       0 UNK        -0.5000 
      4 N           0.6709  -11.6084  -47.0774 N.am      1 UNK        -0.5000 
      5 CA          1.6399  -11.7896  -48.1559 C.3       1 UNK         0.1400 
      6 C6          0.9630  -12.0627  -49.5266 C.3       23 UNK        -0.0398 
      7 S7         -0.1400  -13.5211  -49.5384 S.3       23 UNK        -0.2404 
      8 C8          0.8361  -14.6840  -50.5476 C.3       23 UNK        -0.0205 
      9 C9          0.3432  -16.1247  -50.4616 C.ar      23 UNK        -0.0193 
     10 C10        -1.0200  -16.4307  -50.5070 C.ar      23 UNK        -0.1150 
     11 C11        -1.4575  -17.7550  -50.4338 C.ar      23 UNK        -0.0193 
     12 C12        -0.5146  -18.7859  -50.3574 C.ar      23 UNK        -0.1150 
     13 C13         0.8581  -18.5016  -50.3312 C.ar      23 UNK        -0.0193 
     14 C14         1.2706  -17.1666  -50.3755 C.ar      23 UNK        -0.1150 
     15 C15         1.9382  -19.5873  -50.3018 C.3       23 UNK        -0.0205 
     16 S16         1.4107  -21.2432  -49.7437 S.3       23 UNK        -0.2404 
     17 C17         1.0193  -20.8998  -47.9954 C.3       23 UNK        -0.0398 
     18 CA          0.3590  -22.0754  -47.2339 C.3       11 UNK         0.1400 
     19 N           0.1016  -21.7146  -45.8391 N.am      11 UNK        -0.5000 
     20 C          -0.3548  -22.5399  -44.8873 C.2       10 UNK         0.5000 
     21 O          -0.5558  -23.7418  -45.0562 O.2       10 UNK        -0.5000 
     22 CA         -0.6955  -21.9011  -43.5295 C.3       10 UNK         0.1400 
     23 CB          0.5739  -21.6863  -42.6926 C.3       10 UNK        -0.1800 
     24 N          -1.4212  -20.6369  -43.6727 N.am      10 UNK        -0.5000 
     25 C          -2.6372  -20.5276  -44.2291 C.2       9 UNK         0.5000 
     26 O          -3.2918  -21.4893  -44.6311 O.2       9 UNK        -0.5000 
     27 CA         -3.2079  -19.1089  -44.4000 C.3       9 UNK         0.1400 
     28 CB         -3.8069  -18.6036  -43.0792 C.3       9 UNK        -0.1800 
     29 N          -2.2205  -18.1495  -44.8948 N.am      9 UNK        -0.5000 
     30 C          -1.6100  -18.2291  -46.0867 C.2       8 UNK         0.5000 
     31 O          -1.8253  -19.1242  -46.9028 O.2       8 UNK        -0.5000 
     32 CA         -0.5195  -17.1790  -46.3780 C.3       8 UNK         0.1400 
     33 CB         -1.1272  -15.8091  -46.7118 C.3       8 UNK        -0.1800 
     34 N           0.4126  -17.0358  -45.2593 N.am      8 UNK        -0.5000 
     35 C           1.1903  -18.0220  -44.7915 C.2       7 UNK         0.5000 
     36 O           1.2492  -19.1467  -45.2863 O.2       7 UNK        -0.5000 
     37 CA          2.0060  -17.7162  -43.5284 C.3       7 UNK         0.1400 
     38 CB          3.3073  -16.9926  -43.8897 C.3       7 UNK        -0.1800 
     39 N           1.2425  -16.9229  -42.5660 N.am      7 UNK        -0.5000 
     40 C           0.2243  -17.4085  -41.8409 C.2       6 UNK         0.5000 
     41 O          -0.1605  -18.5762  -41.9005 O.2       6 UNK        -0.5000 
     42 CA         -0.5148  -16.4156  -40.9251 C.3       6 UNK         0.1400 
     43 CB          0.2563  -16.2087  -39.6129 C.3       6 UNK        -0.1800 
     44 N          -0.7427  -15.1196  -41.5632 N.am      6 UNK        -0.5000 
     45 C          -1.5026  -14.9343  -42.6511 C.2       5 UNK         0.5000 
     46 O          -2.1326  -15.8329  -43.2057 O.2       5 UNK        -0.5000 
     47 CA         -1.5365  -13.5173  -43.2495 C.3       5 UNK         0.1400 
     48 CB         -2.7299  -12.7260  -42.6948 C.3       5 UNK        -0.1800 
     49 N          -0.3093  -12.7399  -43.0505 N.am      5 UNK        -0.5000 
     50 C           0.9116  -13.0940  -43.4749 C.2       4 UNK         0.5000 
     51 O           1.1515  -14.1774  -44.0128 O.2       4 UNK        -0.5000 
     52 CA          2.0156  -12.0326  -43.2851 C.3       4 UNK         0.1400 
     53 CB          2.1679  -11.6061  -41.8088 C.3       4 UNK        -0.1800 
     54 N           3.3045  -12.4216  -43.8681 N.am      4 UNK        -0.5000 
     55 C           4.1572  -13.3653  -43.4428 C.2       3 UNK         0.5000 
     56 O           4.0038  -14.0325  -42.4185 O.2       3 UNK        -0.5000 
     57 CA          5.3767  -13.5996  -44.3512 C.3       3 UNK         0.1400 
     58 CB          6.2836  -14.7628  -43.8991 C.3       3 UNK        -0.1800 
     59 N           4.9178  -13.8014  -45.7239 N.am      3 UNK        -0.5000 
     60 C           5.6457  -13.6312  -46.8311 C.2       2 UNK         0.5000 
     61 O           6.8293  -13.2909  -46.8256 O.2       2 UNK        -0.5000 
     62 CA          4.9272  -13.8485  -48.1780 C.3       2 UNK         0.1400 
     63 CB          4.5298  -15.3250  -48.3859 C.3       2 UNK        -0.1800 
     64 N           3.7940  -12.9367  -48.3948 N.am      2 UNK        -0.5000 
     65 C           2.6256  -12.8962  -47.7394 C.2       1 UNK         0.5000 
     66 O           2.3197  -13.6738  -46.8326 O.2       1 UNK        -0.5000 
     67 C          -0.9207  -22.5963  -47.9217 C.2       11 UNK         0.5000 
     68 O          -0.8959  -23.6890  -48.4896 O.2       11 UNK        -0.5000 
     69 N          -2.0227  -21.8392  -47.8110 N.am      12 UNK        -0.5000 
     70 CA         -3.3361  -22.2059  -48.3408 C.3       12 UNK         0.1400 
     71 CB         -4.3405  -21.0748  -48.0864 C.3       12 UNK        -0.1800 
     72 C          -3.8676  -23.5288  -47.7667 C.2       12 UNK         0.5000 
     73 O          -4.3464  -24.3627  -48.5336 O.2       12 UNK        -0.5000 
     74 N          -3.7441  -23.7115  -46.4452 N.am      13 UNK        -0.5000 
     75 CA         -4.1345  -24.9300  -45.7380 C.3       13 UNK         0.1400 
     76 CB         -4.0476  -24.6972  -44.2219 C.3       13 UNK        -0.1800 
     77 C          -3.3011  -26.1557  -46.1528 C.2       13 UNK         0.5000 
     78 O          -3.8734  -27.2168  -46.4032 O.2       13 UNK        -0.5000 
     79 N          -1.9742  -25.9858  -46.2377 N.am      14 UNK        -0.5000 
     80 CA         -1.0271  -27.0327  -46.6236 C.3       14 UNK         0.1400 
     81 CB          0.4073  -26.5554  -46.3496 C.3       14 UNK        -0.1800 
     82 C          -1.1786  -27.4709  -48.0904 C.2       14 UNK         0.5000 
     83 O          -1.1414  -28.6692  -48.3730 O.2       14 UNK        -0.5000 
     84 N          -1.3529  -26.4978  -48.9935 N.am      15 UNK        -0.5000 
     85 CA         -1.4966  -26.7274  -50.4311 C.3       15 UNK         0.1400 
     86 CB         -1.0443  -25.4643  -51.1807 C.3       15 UNK        -0.1800 
     87 C          -2.9278  -27.1049  -50.8547 C.2       15 UNK         0.5000 
     88 O          -3.1215  -27.4699  -52.0127 O.2       15 UNK        -0.5000 
     89 N          -3.9100  -26.9558  -49.9531 N.am      16 UNK        -0.5000 
     90 CA         -5.3549  -27.0654  -50.2014 C.3       16 UNK         0.1400 
     91 CB         -5.7528  -28.5221  -50.5166 C.3       16 UNK        -0.1800 
     92 C          -5.8297  -26.0551  -51.2715 C.2       16 UNK         0.5000 
     93 O          -6.6009  -26.4011  -52.1677 O.2       16 UNK        -0.5000 
     94 N          -5.3023  -24.8270  -51.1635 N.am      17 UNK        -0.5000 
     95 CA         -5.4718  -23.6706  -52.0498 C.3       17 UNK         0.1400 
     96 CB         -6.9338  -23.1807  -52.0392 C.3       17 UNK        -0.1800 
     97 C          -4.9249  -23.8583  -53.4845 C.2       17 UNK         0.5000 
     98 O          -5.2137  -23.0293  -54.3484 O.2       17 UNK        -0.5000 
     99 N          -4.1271  -24.9103  -53.7304 N.am      18 UNK        -0.5000 
    100 CA        -3.5187  -25.1830  -55.0374 C.3       18 UNK         0.1400 
    101 CB        -3.0434  -26.6417  -55.0948 C.3       18 UNK        -0.1800 
    102 C         -2.3560  -24.2297  -55.3723 C.2       18 UNK         0.5000 
    103 O         -2.0994  -23.9837  -56.5515 O.2       18 UNK        -0.5000 
    104 N         -1.6770  -23.7119  -54.3376 N.am      19 UNK        -0.5000 
    105 CA        -0.6013  -22.7258  -54.4598 C.3       19 UNK         0.1400 
    106 CB         0.1453  -22.6112  -53.1201 C.3       19 UNK        -0.1800 
    107 C         -1.1353  -21.3538  -54.9068 C.2       19 UNK         0.5000 
    108 O         -0.5720  -20.7414  -55.8145 O.2       19 UNK        -0.5000 
    109 N         -2.2320  -20.9280  -54.2729 N.am      20 UNK        -0.5000 
    110 CA        -2.9840  -19.7046  -54.5154 C.3       20 UNK         0.1400 
    111 CB        -2.1231  -18.4577  -54.2237 C.3       20 UNK        -0.1800 
    112 C         -4.2130  -19.7279  -53.5967 C.2       20 UNK         0.5000 
    113 O         -4.1922  -20.4069  -52.5656 O.2       20 UNK        -0.5000 
    114 N         -5.2393  -18.9552  -53.9637 N.am      21 UNK        -0.5000 
    115 CA        -6.3747  -18.6378  -53.1020 C.3       21 UNK         0.1400 
    116 CB        -7.6465  -18.5349  -53.9576 C.3       21 UNK        -0.1800 
    117 C         -6.0846  -17.3073  -52.3896 C.2       21 UNK         0.5000 
    118 O         -5.5646  -16.3816  -53.0183 O.2       21 UNK        -0.5000 
    119 N         -6.4167  -17.2319  -51.1004 N.am      22 UNK        -0.5000 
    120 CA        -6.1680  -16.0782  -50.2270 C.3       22 UNK         0.1400 
    121 C         -7.0707  -16.1263  -48.9633 C.2       22 UNK         0.5000 
    122 N         -7.1467  -15.0410  -48.2047 N.am      22 UNK        -0.7600 
    123 O         -7.7104  -17.1332  -48.6631 O.2       22 UNK        -0.5000 
    124 C124       -4.6582  -15.8849  -49.8949 C.3       23 UNK        -0.0398 
    125 S125       -3.8798  -17.3379  -49.1031 S.3       23 UNK        -0.2404 
    126 C126       -2.9441  -18.0784  -50.4831 C.3       23 UNK        -0.0205 
    127 H127       -1.3510  -11.5504  -45.4911 H         1 UNK         0.0600 
    128 H128       -1.9142   -9.9472  -45.9496 H         1 UNK         0.0600 
    129 H129       -0.5855  -10.1120  -44.7966 H         1 UNK         0.0600 
    130 H130        0.5672  -12.4312  -46.4958 H         1 UNK         0.3000 
    131 H131        2.2247  -10.8710  -48.2396 H         1 UNK         0.0600 
    132 H132        0.3626  -11.1973  -49.8095 H         1 UNK         0.0800 
    133 H133        1.7131  -12.1571  -50.3132 H         1 UNK         0.0800 
    134 H134        0.8105  -14.3629  -51.5895 H         1 UNK         0.0800 
    135 H135        1.8777  -14.6314  -50.2282 H         1 UNK         0.0800 
    136 H136       -1.7449  -15.6347  -50.5903 H         1 UNK         0.1150 
    137 H137       -0.8587  -19.8095  -50.3317 H         1 UNK         0.1150 
    138 H138        2.3271  -16.9387  -50.3629 H         1 UNK         0.1150 
    139 H139        2.3443  -19.6852  -51.3093 H         1 UNK         0.0800 
    140 H140        2.7650  -19.2629  -49.6678 H         1 UNK         0.0800 
    141 H141        0.3818  -20.0176  -47.9480 H         1 UNK         0.0800 
    142 H142        1.9489  -20.6213  -47.4973 H         1 UNK         0.0800 
    143 H143        1.0729  -22.9016  -47.2199 H         1 UNK         0.0600 
    144 H144        0.2757  -20.7431  -45.5944 H         1 UNK         0.3000 
    145 H145       -1.3420  -22.5962  -42.9900 H         1 UNK         0.0600 
    146 H146        0.3305  -21.3192  -41.6956 H         1 UNK         0.0600 
    147 H147        1.1232  -22.6205  -42.5695 H         1 UNK         0.0600 
    148 H148        1.2479  -20.9676  -43.1588 H         1 UNK         0.0600 
    149 H149       -0.9612  -19.8043  -43.3195 H         1 UNK         0.3000 
    150 H150       -4.0111  -19.1630  -45.1377 H         1 UNK         0.0600 
    151 H151       -4.5496  -19.3028  -42.6931 H         1 UNK         0.0600 
    152 H152       -4.3042  -17.6432  -43.2152 H         1 UNK         0.0600 
    153 H153       -3.0414  -18.4781  -42.3124 H         1 UNK         0.0600 
    154 H154       -2.0093  -17.3648  -44.2831 H         1 UNK         0.3000 
    155 H155        0.0512  -17.5158  -47.2463 H         1 UNK         0.0600 
    156 H156       -1.7780  -15.4477  -45.9165 H         1 UNK         0.0600 
    157 H157       -0.3490  -15.0632  -46.8756 H         1 UNK         0.0600 
    158 H158       -1.7219  -15.8614  -47.6235 H         1 UNK         0.0600 
    159 H159        0.4569  -16.1304  -44.8064 H         1 UNK         0.3000 
    160 H160        2.2692  -18.6659  -43.0580 H         1 UNK         0.0600 
    161 H161        3.1147  -16.0432  -44.3900 H         1 UNK         0.0600 
    162 H162        3.9176  -17.5978  -44.5610 H         1 UNK         0.0600 
    163 H163        3.9010  -16.7922  -42.9980 H         1 UNK         0.0600 
    164 H164        1.4536  -15.9341  -42.5259 H         1 UNK         0.3000 
    165 H165       -1.4886  -16.8477  -40.6849 H         1 UNK         0.0600 
    166 H166       -0.3005  -15.5728  -38.9243 H         1 UNK         0.0600 
    167 H167        0.4286  -17.1602  -39.1080 H         1 UNK         0.0600 
    168 H168        1.2295  -15.7470  -39.7848 H         1 UNK         0.0600 
    169 H169       -0.2524  -14.3257  -41.1794 H         1 UNK         0.3000 
    170 H170       -1.6776  -13.6315  -44.3255 H         1 UNK         0.0600 
    171 H171       -2.6295  -12.5450  -41.6239 H         1 UNK         0.0600 
    172 H172       -2.8301  -11.7609  -43.1917 H         1 UNK         0.0600 
    173 H173       -3.6641  -13.2676  -42.8502 H         1 UNK         0.0600 
    174 H174       -0.4257  -11.8420  -42.6040 H         1 UNK         0.3000 
    175 H175        1.6972  -11.1559  -43.8509 H         1 UNK         0.0600 
    176 H176        3.0003  -10.9136  -41.6825 H         1 UNK         0.0600 
    177 H177        2.3401  -12.4592  -41.1520 H         1 UNK         0.0600 
    178 H178        1.2738  -11.0971  -41.4483 H         1 UNK         0.0600 
    179 H179        3.5253  -11.9702  -44.7436 H         1 UNK         0.3000 
    180 H180        5.9648  -12.6805  -44.3119 H         1 UNK         0.0600 
    181 H181        5.7897  -15.7265  -44.0093 H         1 UNK         0.0600 
    182 H182        6.5731  -14.6545  -42.8532 H         1 UNK         0.0600 
    183 H183        7.2033  -14.7957  -44.4828 H         1 UNK         0.0600 
    184 H184        3.9299  -14.0206  -45.8396 H         1 UNK         0.3000 
    185 H185        5.6516  -13.6037  -48.9567 H         1 UNK         0.0600 
    186 H186        5.3991  -15.9764  -48.2900 H         1 UNK         0.0600 
    187 H187        3.7907  -15.6657  -47.6605 H         1 UNK         0.0600 
    188 H188        4.1173  -15.4821  -49.3820 H         1 UNK         0.0600 
    189 H189        3.9622  -12.2309  -49.0985 H         1 UNK         0.3000 
    190 H190       -1.9566  -20.9347  -47.3480 H         1 UNK         0.3000 
    191 H191       -3.2286  -22.3287  -49.4205 H         1 UNK         0.0600 
    192 H192       -3.9947  -20.1423  -48.5244 H         1 UNK         0.0600 
    193 H193       -5.3101  -21.3038  -48.5302 H         1 UNK         0.0600 
    194 H194       -4.4959  -20.9011  -47.0216 H         1 UNK         0.0600 
    195 H195       -3.3757  -22.9528  -45.8773 H         1 UNK         0.3000 
    196 H196       -5.1768  -25.1386  -45.9880 H         1 UNK         0.0600 
    197 H197       -4.3440  -25.5905  -43.6708 H         1 UNK         0.0600 
    198 H198       -4.7081  -23.8881  -43.9100 H         1 UNK         0.0600 
    199 H199       -3.0348  -24.4388  -43.9112 H         1 UNK         0.0600 
    200 H200       -1.5744  -25.0854  -45.9853 H         1 UNK         0.3000 
    201 H201       -1.2181  -27.9052  -45.9954 H         1 UNK         0.0600 
    202 H202        0.5536  -26.3367  -45.2917 H         1 UNK         0.0600 
    203 H203        0.6448  -25.6521  -46.9132 H         1 UNK         0.0600 
    204 H204        1.1349  -27.3189  -46.6274 H         1 UNK         0.0600 
    205 H205       -1.3281  -25.5266  -48.6891 H         1 UNK         0.3000 
    206 H206       -0.8395  -27.5477  -50.7274 H         1 UNK         0.0600 
    207 H207       -0.0349  -25.1728  -50.8898 H         1 UNK         0.0600 
    208 H208       -1.0329  -25.6351  -52.2574 H         1 UNK         0.0600 
    209 H209       -1.7055  -24.6195  -50.9825 H         1 UNK         0.0600 
    210 H210       -3.6542  -26.6043  -49.0396 H         1 UNK         0.3000 
    211 H211       -5.8482  -26.7815  -49.2706 H         1 UNK         0.0600 
    212 H212       -5.3406  -28.8613  -51.4672 H         1 UNK         0.0600 
    213 H213       -6.8368  -28.6250  -50.5762 H         1 UNK         0.0600 
    214 H214       -5.4047  -29.2014  -49.7384 H         1 UNK         0.0600 
    215 H215       -4.7373  -24.6585  -50.3338 H         1 UNK         0.3000 
    216 H216       -4.8649  -22.8793  -51.6083 H         1 UNK         0.0600 
    217 H217       -7.6026  -23.8918  -52.5245 H         1 UNK         0.0600 
    218 H218       -7.0314  -22.2290  -52.5634 H         1 UNK         0.0600 
    219 H219       -7.2891  -23.0243  -51.0207 H         1 UNK         0.0600 
    220 H220       -3.9607  -25.5903  -52.9995 H         1 UNK         0.3000 
    221 H221       -4.2858  -25.0520  -55.8038 H         1 UNK         0.0600 
    222 H222       -2.2147  -26.8228  -54.4097 H         1 UNK         0.0600 
    223 H223       -3.8483  -27.3322  -54.8416 H         1 UNK         0.0600 
    224 H224       -2.6976  -26.8981  -56.0969 H         1 UNK         0.0600 
    225 H225       -1.9577  -23.9725  -53.4056 H         1 UNK         0.3000 
    226 H226        0.1052  -23.0755  -55.2155 H         1 UNK         0.0600 
    227 H227        0.6195  -23.5549  -52.8515 H         1 UNK         0.0600 
    228 H228        0.9337  -21.8592  -53.1748 H         1 UNK         0.0600 
    229 H229       -0.5201  -22.3259  -52.3041 H         1 UNK         0.0600 
    230 H230       -2.6384  -21.4997  -53.5437 H         1 UNK         0.3000 
    231 H231       -3.3185  -19.6953  -55.5545 H         1 UNK         0.0600 
    232 H232       -1.6605  -18.5138  -53.2384 H         1 UNK         0.0600 
    233 H233       -2.7204  -17.5455  -54.2548 H         1 UNK         0.0600 
    234 H234       -1.3262  -18.3395  -54.9572 H         1 UNK         0.0600 
    235 H235       -5.1507  -18.3864  -54.7936 H         1 UNK         0.3000 
    236 H236       -6.5217  -19.4247  -52.3586 H         1 UNK         0.0600 
    237 H237       -8.5146  -18.3055  -53.3385 H         1 UNK         0.0600 
    238 H238       -7.5645  -17.7519  -54.7126 H         1 UNK         0.0600 
    239 H239       -7.8515  -19.4750  -54.4702 H         1 UNK         0.0600 
    240 H240       -6.8720  -18.0077  -50.6375 H         1 UNK         0.3000 
    241 H241       -6.5008  -15.1964  -50.7779 H         1 UNK         0.0600 
    242 H242       -6.6464  -14.1956  -48.4312 H         1 UNK         0.3800 
    243 H243       -7.7312  -15.0619  -47.3834 H         1 UNK         0.3800 
    244 H244       -4.1132  -15.6309  -50.8039 H         1 UNK         0.0800 
    245 H245       -4.5176  -15.0278  -49.2353 H         1 UNK         0.0800 
    246 H246       -3.0934  -19.1578  -50.4520 H         1 UNK         0.0800 
    247 H247       -3.3482  -17.7477  -51.4387 H         1 UNK         0.0800 
@<TRIPOS>BOND
     1    1    2 1    
     2    1  127 1    
     3    1  128 1    
     4    1  129 1    
     5    2    3 2    
     6    2    4 am   BACKBONE|DICT|INTERRES
     7    4    5 1    
     8    4  130 1    
     9    5    6 1    
    10    5   65 1    
    11    5  131 1    
    12    6    7 1    
    13    6  132 1    
    14    6  133 1    
    15    7    8 1    
    16    8    9 1    
    17    8  134 1    
    18    8  135 1    
    19    9   10 ar   
    20    9   14 ar   
    21   10   11 ar   
    22   10  136 1    
    23   11   12 ar   
    24   11  126 1    
    25   12   13 ar   
    26   12  137 1    
    27   13   14 ar   
    28   13   15 1    
    29   14  138 1    
    30   15   16 1    
    31   15  139 1    
    32   15  140 1    
    33   16   17 1    
    34   17   18 1    
    35   17  141 1    
    36   17  142 1    
    37   18   19 1    
    38   18   67 1    
    39   18  143 1    
    40   19   20 am   BACKBONE|DICT|INTERRES
    41   19  144 1    
    42   20   21 2    
    43   20   22 1    
    44   22   23 1    
    45   22   24 1    
    46   22  145 1    
    47   23  146 1    
    48   23  147 1    
    49   23  148 1    
    50   24   25 am   BACKBONE|DICT|INTERRES
    51   24  149 1    
    52   25   26 2    
    53   25   27 1    
    54   27   28 1    
    55   27   29 1    
    56   27  150 1    
    57   28  151 1    
    58   28  152 1    
    59   28  153 1    
    60   29   30 am   BACKBONE|DICT|INTERRES
    61   29  154 1    
    62   30   31 2    
    63   30   32 1    
    64   32   33 1    
    65   32   34 1    
    66   32  155 1    
    67   33  156 1    
    68   33  157 1    
    69   33  158 1    
    70   34   35 am   BACKBONE|DICT|INTERRES
    71   34  159 1    
    72   35   36 2    
    73   35   37 1    
    74   37   38 1    
    75   37   39 1    
    76   37  160 1    
    77   38  161 1    
    78   38  162 1    
    79   38  163 1    
    80   39   40 am   BACKBONE|DICT|INTERRES
    81   39  164 1    
    82   40   41 2    
    83   40   42 1    
    84   42   43 1    
    85   42   44 1    
    86   42  165 1    
    87   43  166 1    
    88   43  167 1    
    89   43  168 1    
    90   44   45 am   BACKBONE|DICT|INTERRES
    91   44  169 1    
    92   45   46 2    
    93   45   47 1    
    94   47   48 1    
    95   47   49 1    
    96   47  170 1    
    97   48  171 1    
    98   48  172 1    
    99   48  173 1    
   100   49   50 am   BACKBONE|DICT|INTERRES
   101   49  174 1    
   102   50   51 2    
   103   50   52 1    
   104   52   53 1    
   105   52   54 1    
   106   52  175 1    
   107   53  176 1    
   108   53  177 1    
   109   53  178 1    
   110   54   55 am   BACKBONE|DICT|INTERRES
   111   54  179 1    
   112   55   56 2    
   113   55   57 1    
   114   57   58 1    
   115   57   59 1    
   116   57  180 1    
   117   58  181 1    
   118   58  182 1    
   119   58  183 1    
   120   59   60 am   BACKBONE|DICT|INTERRES
   121   59  184 1    
   122   60   61 2    
   123   60   62 1    
   124   62   63 1    
   125   62   64 1    
   126   62  185 1    
   127   63  186 1    
   128   63  187 1    
   129   63  188 1    
   130   64   65 am   BACKBONE|DICT|INTERRES
   131   64  189 1    
   132   65   66 2    
   133   67   68 2    
   134   67   69 am   BACKBONE|DICT|INTERRES
   135   69   70 1    
   136   69  190 1    
   137   70   71 1    
   138   70   72 1    
   139   70  191 1    
   140   71  192 1    
   141   71  193 1    
   142   71  194 1    
   143   72   73 2    
   144   72   74 am   BACKBONE|DICT|INTERRES
   145   74   75 1    
   146   74  195 1    
   147   75   76 1    
   148   75   77 1    
   149   75  196 1    
   150   76  197 1    
   151   76  198 1    
   152   76  199 1    
   153   77   78 2    
   154   77   79 am   BACKBONE|DICT|INTERRES
   155   79   80 1    
   156   79  200 1    
   157   80   81 1    
   158   80   82 1    
   159   80  201 1    
   160   81  202 1    
   161   81  203 1    
   162   81  204 1    
   163   82   83 2    
   164   82   84 am   BACKBONE|DICT|INTERRES
   165   84   85 1    
   166   84  205 1    
   167   85   86 1    
   168   85   87 1    
   169   85  206 1    
   170   86  207 1    
   171   86  208 1    
   172   86  209 1    
   173   87   88 2    
   174   87   89 am   BACKBONE|DICT|INTERRES
   175   89   90 1    
   176   89  210 1    
   177   90   91 1    
   178   90   92 1    
   179   90  211 1    
   180   91  212 1    
   181   91  213 1    
   182   91  214 1    
   183   92   93 2    
   184   92   94 am   BACKBONE|DICT|INTERRES
   185   94   95 1    
   186   94  215 1    
   187   95   96 1    
   188   95   97 1    
   189   95  216 1    
   190   96  217 1    
   191   96  218 1    
   192   96  219 1    
   193   97   98 2    
   194   97   99 am   BACKBONE|DICT|INTERRES
   195   99  100 1    
   196   99  220 1    
   197  100  101 1    
   198  100  102 1    
   199  100  221 1    
   200  101  222 1    
   201  101  223 1    
   202  101  224 1    
   203  102  103 2    
   204  102  104 am   BACKBONE|DICT|INTERRES
   205  104  105 1    
   206  104  225 1    
   207  105  106 1    
   208  105  107 1    
   209  105  226 1    
   210  106  227 1    
   211  106  228 1    
   212  106  229 1    
   213  107  108 2    
   214  107  109 am   BACKBONE|DICT|INTERRES
   215  109  110 1    
   216  109  230 1    
   217  110  111 1    
   218  110  112 1    
   219  110  231 1    
   220  111  232 1    
   221  111  233 1    
   222  111  234 1    
   223  112  113 2    
   224  112  114 am   BACKBONE|DICT|INTERRES
   225  114  115 1    
   226  114  235 1    
   227  115  116 1    
   228  115  117 1    
   229  115  236 1    
   230  116  237 1    
   231  116  238 1    
   232  116  239 1    
   233  117  118 2    
   234  117  119 am   BACKBONE|DICT|INTERRES
   235  119  120 1    
   236  119  240 1    
   237  120  121 1    
   238  120  124 1    
   239  120  241 1    
   240  121  122 am   BACKBONE|DICT|INTERRES
   241  121  123 2    
   242  122  242 1    
   243  122  243 1    
   244  124  125 1    
   245  124  244 1    
   246  124  245 1    
   247  125  126 1    
   248  126  246 1    
   249  126  247 1    
@<TRIPOS>SUBSTRUCTURE
     1 UNK         1 GROUP             0       ****    0 ROOT    
