@<TRIPOS>MOLECULE
3R540
247   249    1
SMALL
USER_CHARGES


@<TRIPOS>ATOM
      1 CA         -5.8416  -18.6176  -45.9044 C.3       0 UNK        -0.1800 
      2 C          -4.5107  -18.1034  -46.4322 C.2       0 UNK         0.5000 
      3 O          -3.5209  -18.8314  -46.4103 O.2       0 UNK        -0.5000 
      4 N          -4.4884  -16.8489  -46.9015 N.am      1 UNK        -0.5000 
      5 CA         -3.2981  -16.1186  -47.3559 C.3       1 UNK         0.1400 
      6 C6         -2.6498  -16.7245  -48.6341 C.3       23 UNK        -0.0398 
      7 S7         -2.0549  -15.4314  -49.7796 S.3       23 UNK        -0.2404 
      8 C8         -0.2502  -15.4627  -49.5356 C.3       23 UNK        -0.0205 
      9 C9          0.3807  -16.7496  -50.0452 C.ar      23 UNK        -0.0193 
     10 C10         0.4574  -17.0019  -51.4176 C.ar      23 UNK        -0.1150 
     11 C11         1.0331  -18.1842  -51.8894 C.ar      23 UNK        -0.0193 
     12 C12         1.5413  -19.1118  -50.9761 C.ar      23 UNK        -0.1150 
     13 C13         1.4733  -18.8768  -49.5997 C.ar      23 UNK        -0.0193 
     14 C14         0.8993  -17.6825  -49.1437 C.ar      23 UNK        -0.1150 
     15 C15         2.0487  -19.9285  -48.6501 C.3       23 UNK        -0.0205 
     16 S16         1.3821  -19.9048  -46.9522 S.3       23 UNK        -0.2404 
     17 C17        -0.3865  -20.2711  -47.2229 C.3       23 UNK        -0.0398 
     18 CA         -0.7654  -21.6834  -46.7238 C.3       11 UNK         0.1400 
     19 N          -0.4437  -21.8529  -45.3042 N.am      11 UNK        -0.5000 
     20 C          -0.6160  -22.9433  -44.5454 C.2       10 UNK         0.5000 
     21 O          -1.0231  -24.0236  -44.9768 O.2       10 UNK        -0.5000 
     22 CA         -0.3525  -22.7657  -43.0368 C.3       10 UNK         0.1400 
     23 CB          1.0378  -23.3045  -42.6702 C.3       10 UNK        -0.1800 
     24 N          -0.4618  -21.3734  -42.5789 N.am      10 UNK        -0.5000 
     25 C          -1.5658  -20.6107  -42.6462 C.2       9 UNK         0.5000 
     26 O          -2.6324  -21.0083  -43.1163 O.2       9 UNK        -0.5000 
     27 CA         -1.4314  -19.1519  -42.1573 C.3       9 UNK         0.1400 
     28 CB         -2.7741  -18.5465  -41.7003 C.3       9 UNK        -0.1800 
     29 N          -0.3882  -18.9770  -41.1377 N.am      9 UNK        -0.5000 
     30 C          -0.3700  -19.4813  -39.8930 C.2       8 UNK         0.5000 
     31 O          -1.2851  -20.1478  -39.4089 O.2       8 UNK        -0.5000 
     32 CA          0.8990  -19.2303  -39.0533 C.3       8 UNK         0.1400 
     33 CB          1.6215  -20.5569  -38.7660 C.3       8 UNK        -0.1800 
     34 N           1.8456  -18.3272  -39.7100 N.am      8 UNK        -0.5000 
     35 C           1.8427  -16.9930  -39.6281 C.2       7 UNK         0.5000 
     36 O           1.0295  -16.3514  -38.9629 O.2       7 UNK        -0.5000 
     37 CA          2.9224  -16.2505  -40.4397 C.3       7 UNK         0.1400 
     38 CB          4.3353  -16.5272  -39.8915 C.3       7 UNK        -0.1800 
     39 N           2.8599  -16.4875  -41.8869 N.am      7 UNK        -0.5000 
     40 C           3.0393  -17.6234  -42.5792 C.2       6 UNK         0.5000 
     41 O           3.2605  -18.7232  -42.0715 O.2       6 UNK        -0.5000 
     42 CA          2.9568  -17.4972  -44.1078 C.3       6 UNK         0.1400 
     43 CB          1.4946  -17.3518  -44.5596 C.3       6 UNK        -0.1800 
     44 N           3.7326  -16.3489  -44.5743 N.am      6 UNK        -0.5000 
     45 C           5.0570  -16.3636  -44.7840 C.2       5 UNK         0.5000 
     46 O           5.7558  -17.3708  -44.6663 O.2       5 UNK        -0.5000 
     47 CA          5.7194  -15.0346  -45.2010 C.3       5 UNK         0.1400 
     48 CB          5.8191  -14.9459  -46.7318 C.3       5 UNK        -0.1800 
     49 N           5.0048  -13.8580  -44.7054 N.am      5 UNK        -0.5000 
     50 C           5.0014  -13.4428  -43.4304 C.2       4 UNK         0.5000 
     51 O           5.6777  -13.9579  -42.5403 O.2       4 UNK        -0.5000 
     52 CA          4.0518  -12.2747  -43.0874 C.3       4 UNK         0.1400 
     53 CB          4.7983  -10.9342  -43.1598 C.3       4 UNK        -0.1800 
     54 N           2.8624  -12.2117  -43.9473 N.am      4 UNK        -0.5000 
     55 C           1.9396  -13.1784  -44.0323 C.2       3 UNK         0.5000 
     56 O           1.9958  -14.2220  -43.3769 O.2       3 UNK        -0.5000 
     57 CA          0.8260  -12.9805  -45.0773 C.3       3 UNK         0.1400 
     58 CB          1.3824  -13.1860  -46.4964 C.3       3 UNK        -0.1800 
     59 N          -0.2660  -13.9294  -44.8808 N.am      3 UNK        -0.5000 
     60 C          -1.1691  -13.8942  -43.8966 C.2       2 UNK         0.5000 
     61 O          -1.2597  -12.9645  -43.0923 O.2       2 UNK        -0.5000 
     62 CA         -2.1338  -15.0999  -43.8170 C.3       2 UNK         0.1400 
     63 CB         -3.1825  -14.9448  -42.7009 C.3       2 UNK        -0.1800 
     64 N          -2.8355  -15.3612  -45.0768 N.am      2 UNK        -0.5000 
     65 C          -2.3101  -15.9012  -46.1864 C.2       1 UNK         0.5000 
     66 O          -1.1275  -16.2328  -46.2815 O.2       1 UNK        -0.5000 
     67 C          -2.2366  -22.0054  -47.0648 C.2       11 UNK         0.5000 
     68 O          -2.5133  -22.3566  -48.2117 O.2       11 UNK        -0.5000 
     69 N          -3.1388  -21.9577  -46.0714 N.am      12 UNK        -0.5000 
     70 CA         -4.5280  -22.4080  -46.1677 C.3       12 UNK         0.1400 
     71 CB         -5.2291  -22.1734  -44.8220 C.3       12 UNK        -0.1800 
     72 C          -4.6607  -23.8850  -46.5863 C.2       12 UNK         0.5000 
     73 O          -5.5877  -24.2248  -47.3215 O.2       12 UNK        -0.5000 
     74 N          -3.7139  -24.7183  -46.1364 N.am      13 UNK        -0.5000 
     75 CA         -3.5930  -26.1217  -46.5150 C.3       13 UNK         0.1400 
     76 CB         -3.3322  -26.9633  -45.2556 C.3       13 UNK        -0.1800 
     77 C          -2.4610  -26.3097  -47.5361 C.2       13 UNK         0.5000 
     78 O          -2.6689  -26.9672  -48.5557 O.2       13 UNK        -0.5000 
     79 N          -1.2860  -25.7289  -47.2510 N.am      14 UNK        -0.5000 
     80 CA         -0.0449  -25.9514  -47.9978 C.3       14 UNK         0.1400 
     81 CB          1.1388  -25.4158  -47.1766 C.3       14 UNK        -0.1800 
     82 C          -0.0309  -25.3588  -49.4196 C.2       14 UNK         0.5000 
     83 O           0.7067  -25.8628  -50.2674 O.2       14 UNK        -0.5000 
     84 N          -0.8322  -24.3142  -49.6591 N.am      15 UNK        -0.5000 
     85 CA         -0.9499  -23.6248  -50.9451 C.3       15 UNK         0.1400 
     86 CB         -0.1643  -22.3052  -50.8763 C.3       15 UNK        -0.1800 
     87 C          -2.4230  -23.4040  -51.3354 C.2       15 UNK         0.5000 
     88 O          -2.7060  -22.5500  -52.1764 O.2       15 UNK        -0.5000 
     89 N          -3.3384  -24.1572  -50.7036 N.am      16 UNK        -0.5000 
     90 CA         -4.7942  -24.1420  -50.8989 C.3       16 UNK         0.1400 
     91 CB         -5.1467  -24.7806  -52.2582 C.3       16 UNK        -0.1800 
     92 C          -5.4468  -22.7519  -50.7107 C.2       16 UNK         0.5000 
     93 O          -6.4461  -22.4534  -51.3658 O.2       16 UNK        -0.5000 
     94 N          -4.8598  -21.9284  -49.8282 N.am      17 UNK        -0.5000 
     95 CA         -5.2153  -20.5361  -49.5308 C.3       17 UNK         0.1400 
     96 CB         -6.6662  -20.4204  -49.0122 C.3       17 UNK        -0.1800 
     97 C          -4.9258  -19.5583  -50.6891 C.2       17 UNK         0.5000 
     98 O          -5.4941  -18.4652  -50.7068 O.2       17 UNK        -0.5000 
     99 N          -4.0360  -19.9495  -51.6150 N.am      18 UNK        -0.5000 
    100 CA        -3.6454  -19.2216  -52.8230 C.3       18 UNK         0.1400 
    101 CB        -2.8739  -17.9338  -52.4629 C.3       18 UNK        -0.1800 
    102 C         -4.8536  -19.0106  -53.7577 C.2       18 UNK         0.5000 
    103 O         -5.5131  -19.9936  -54.1007 O.2       18 UNK        -0.5000 
    104 N         -5.1207  -17.7586  -54.1594 N.am      19 UNK        -0.5000 
    105 CA        -6.2461  -17.3144  -54.9889 C.3       19 UNK         0.1400 
    106 CB        -7.5655  -17.3998  -54.1892 C.3       19 UNK        -0.1800 
    107 C         -6.2904  -18.0525  -56.3423 C.2       19 UNK         0.5000 
    108 O         -5.4999  -17.7270  -57.2281 O.2       19 UNK        -0.5000 
    109 N         -7.1764  -19.0501  -56.4641 N.am      20 UNK        -0.5000 
    110 CA        -7.3115  -19.9309  -57.6257 C.3       20 UNK         0.1400 
    111 CB        -8.5809  -20.7803  -57.4573 C.3       20 UNK        -0.1800 
    112 C         -6.0853  -20.8346  -57.8761 C.2       20 UNK         0.5000 
    113 O         -5.9001  -21.2831  -59.0085 O.2       20 UNK        -0.5000 
    114 N         -5.2781  -21.0855  -56.8344 N.am      21 UNK        -0.5000 
    115 CA        -3.9907  -21.7708  -56.9215 C.3       21 UNK         0.1400 
    116 CB        -3.7186  -22.5134  -55.5973 C.3       21 UNK        -0.1800 
    117 C         -2.8917  -20.7626  -57.3201 C.2       21 UNK         0.5000 
    118 O         -2.8763  -20.3039  -58.4629 O.2       21 UNK        -0.5000 
    119 N         -1.9880  -20.4340  -56.3898 N.am      22 UNK        -0.5000 
    120 CA        -0.8481  -19.5221  -56.5940 C.3       22 UNK         0.1400 
    121 C         -1.1826  -17.9983  -56.5664 C.2       22 UNK         0.5000 
    122 N         -2.4417  -17.5845  -56.5111 N.am      22 UNK        -0.7600 
    123 O         -0.2793  -17.1680  -56.6147 O.2       22 UNK        -0.5000 
    124 C124        0.3395  -19.8958  -55.6697 C.3       23 UNK        -0.0398 
    125 S125       -0.0396  -19.7663  -53.8887 S.3       23 UNK        -0.2404 
    126 C126        1.1199  -18.4595  -53.3825 C.3       23 UNK        -0.0205 
    127 H127       -5.8135  -18.6712  -44.8161 H         1 UNK         0.0600 
    128 H128       -6.6700  -17.9712  -46.1947 H         1 UNK         0.0600 
    129 H129       -6.0417  -19.6164  -46.2880 H         1 UNK         0.0600 
    130 H130       -5.3465  -16.3152  -46.9026 H         1 UNK         0.3000 
    131 H131       -3.6741  -15.1260  -47.6091 H         1 UNK         0.0600 
    132 H132       -3.3966  -17.2907  -49.1911 H         1 UNK         0.0800 
    133 H133       -1.8651  -17.4460  -48.4032 H         1 UNK         0.0800 
    134 H134       -0.0209  -15.3054  -48.4814 H         1 UNK         0.0800 
    135 H135        0.1892  -14.6186  -50.0686 H         1 UNK         0.0800 
    136 H136        0.0573  -16.2802  -52.1159 H         1 UNK         0.1150 
    137 H137        1.9869  -20.0257  -51.3435 H         1 UNK         0.1150 
    138 H138        0.8445  -17.4718  -48.0853 H         1 UNK         0.1150 
    139 H139        1.8929  -20.9265  -49.0605 H         1 UNK         0.0800 
    140 H140        3.1281  -19.7833  -48.5952 H         1 UNK         0.0800 
    141 H141       -0.6278  -20.1550  -48.2803 H         1 UNK         0.0800 
    142 H142       -0.9669  -19.5097  -46.6989 H         1 UNK         0.0800 
    143 H143       -0.1597  -22.4029  -47.2759 H         1 UNK         0.0600 
    144 H144       -0.0847  -21.0284  -44.8477 H         1 UNK         0.3000 
    145 H145       -1.1036  -23.3525  -42.5043 H         1 UNK         0.0600 
    146 H146        1.2060  -23.2633  -41.5938 H         1 UNK         0.0600 
    147 H147        1.1461  -24.3463  -42.9752 H         1 UNK         0.0600 
    148 H148        1.8312  -22.7356  -43.1569 H         1 UNK         0.0600 
    149 H149        0.3704  -20.9686  -42.1765 H         1 UNK         0.3000 
    150 H150       -1.1027  -18.5782  -43.0245 H         1 UNK         0.0600 
    151 H151       -3.4752  -18.4823  -42.5336 H         1 UNK         0.0600 
    152 H152       -2.6391  -17.5390  -41.3082 H         1 UNK         0.0600 
    153 H153       -3.2472  -19.1470  -40.9231 H         1 UNK         0.0600 
    154 H154        0.4204  -18.4433  -41.4202 H         1 UNK         0.3000 
    155 H155        0.5841  -18.7971  -38.1017 H         1 UNK         0.0600 
    156 H156        1.9516  -21.0429  -39.6851 H         1 UNK         0.0600 
    157 H157        0.9688  -21.2554  -38.2407 H         1 UNK         0.0600 
    158 H158        2.4979  -20.3993  -38.1370 H         1 UNK         0.0600 
    159 H159        2.5211  -18.7493  -40.3428 H         1 UNK         0.3000 
    160 H160        2.7303  -15.1839  -40.3119 H         1 UNK         0.0600 
    161 H161        4.6234  -17.5728  -40.0022 H         1 UNK         0.0600 
    162 H162        4.3959  -16.2826  -38.8304 H         1 UNK         0.0600 
    163 H163        5.0796  -15.9205  -40.4078 H         1 UNK         0.0600 
    164 H164        2.6219  -15.6587  -42.4292 H         1 UNK         0.3000 
    165 H165        3.3594  -18.4090  -44.5549 H         1 UNK         0.0600 
    166 H166        1.4302  -17.1742  -45.6329 H         1 UNK         0.0600 
    167 H167        0.9330  -18.2616  -44.3483 H         1 UNK         0.0600 
    168 H168        0.9824  -16.5308  -44.0595 H         1 UNK         0.0600 
    169 H169        3.2424  -15.4665  -44.6188 H         1 UNK         0.3000 
    170 H170        6.7315  -15.0241  -44.7906 H         1 UNK         0.0600 
    171 H171        6.3702  -15.7957  -47.1369 H         1 UNK         0.0600 
    172 H172        4.8340  -14.9405  -47.2004 H         1 UNK         0.0600 
    173 H173        6.3444  -14.0423  -47.0415 H         1 UNK         0.0600 
    174 H174        4.4360  -13.3582  -45.3720 H         1 UNK         0.3000 
    175 H175        3.7121  -12.4226  -42.0601 H         1 UNK         0.0600 
    176 H176        5.1403  -10.7178  -44.1726 H         1 UNK         0.0600 
    177 H177        4.1625  -10.1101  -42.8356 H         1 UNK         0.0600 
    178 H178        5.6755  -10.9401  -42.5113 H         1 UNK         0.0600 
    179 H179        2.7638  -11.3845  -44.5186 H         1 UNK         0.3000 
    180 H180        0.4352  -11.9651  -44.9855 H         1 UNK         0.0600 
    181 H181        1.7890  -14.1900  -46.6286 H         1 UNK         0.0600 
    182 H182        2.1789  -12.4753  -46.7193 H         1 UNK         0.0600 
    183 H183        0.6049  -13.0413  -47.2469 H         1 UNK         0.0600 
    184 H184       -0.2794  -14.7453  -45.4864 H         1 UNK         0.3000 
    185 H185       -1.5266  -15.9757  -43.5791 H         1 UNK         0.0600 
    186 H186       -2.7043  -14.8402  -41.7261 H         1 UNK         0.0600 
    187 H187       -3.8090  -14.0658  -42.8570 H         1 UNK         0.0600 
    188 H188       -3.8372  -15.8146  -42.6484 H         1 UNK         0.0600 
    189 H189       -3.8130  -15.1104  -45.0911 H         1 UNK         0.3000 
    190 H190       -2.8419  -21.6298  -45.1590 H         1 UNK         0.3000 
    191 H191       -5.0204  -21.7981  -46.9228 H         1 UNK         0.0600 
    192 H192       -5.1588  -21.1305  -44.5141 H         1 UNK         0.0600 
    193 H193       -6.2882  -22.4262  -44.8831 H         1 UNK         0.0600 
    194 H194       -4.7891  -22.7802  -44.0294 H         1 UNK         0.0600 
    195 H195       -2.9651  -24.3392  -45.5676 H         1 UNK         0.3000 
    196 H196       -4.5191  -26.4786  -46.9706 H         1 UNK         0.0600 
    197 H197       -3.2210  -28.0189  -45.5069 H         1 UNK         0.0600 
    198 H198       -4.1613  -26.8823  -44.5525 H         1 UNK         0.0600 
    199 H199       -2.4247  -26.6503  -44.7374 H         1 UNK         0.0600 
    200 H200       -1.1987  -25.1892  -46.3931 H         1 UNK         0.3000 
    201 H201        0.0851  -27.0308  -48.1019 H         1 UNK         0.0600 
    202 H202        1.1823  -25.8864  -46.1942 H         1 UNK         0.0600 
    203 H203        1.0758  -24.3386  -47.0271 H         1 UNK         0.0600 
    204 H204        2.0862  -25.6212  -47.6766 H         1 UNK         0.0600 
    205 H205       -1.4090  -23.9428  -48.9129 H         1 UNK         0.3000 
    206 H206       -0.5211  -24.2347  -51.7424 H         1 UNK         0.0600 
    207 H207        0.8763  -22.4809  -50.6055 H         1 UNK         0.0600 
    208 H208       -0.1634  -21.8018  -51.8417 H         1 UNK         0.0600 
    209 H209       -0.5947  -21.6176  -50.1490 H         1 UNK         0.0600 
    210 H210       -2.9986  -24.8386  -50.0393 H         1 UNK         0.3000 
    211 H211       -5.2119  -24.7773  -50.1166 H         1 UNK         0.0600 
    212 H212       -4.8038  -24.1654  -53.0905 H         1 UNK         0.0600 
    213 H213       -6.2243  -24.9080  -52.3666 H         1 UNK         0.0600 
    214 H214       -4.6937  -25.7666  -52.3606 H         1 UNK         0.0600 
    215 H215       -4.0233  -22.2625  -49.3553 H         1 UNK         0.3000 
    216 H216       -4.5513  -20.2319  -48.7211 H         1 UNK         0.0600 
    217 H217       -6.8578  -19.4258  -48.6091 H         1 UNK         0.0600 
    218 H218       -6.8699  -21.1393  -48.2194 H         1 UNK         0.0600 
    219 H219       -7.3947  -20.5858  -49.8060 H         1 UNK         0.0600 
    220 H220       -3.6646  -20.8925  -51.5555 H         1 UNK         0.3000 
    221 H221       -2.9600  -19.8785  -53.3578 H         1 UNK         0.0600 
    222 H222       -3.5070  -17.1882  -51.9814 H         1 UNK         0.0600 
    223 H223       -2.0586  -18.1594  -51.7765 H         1 UNK         0.0600 
    224 H224       -2.4289  -17.4787  -53.3486 H         1 UNK         0.0600 
    225 H225       -4.5030  -17.0257  -53.8411 H         1 UNK         0.3000 
    226 H226       -6.0696  -16.2627  -55.2190 H         1 UNK         0.0600 
    227 H227       -7.5246  -16.7585  -53.3086 H         1 UNK         0.0600 
    228 H228       -8.4124  -17.0662  -54.7902 H         1 UNK         0.0600 
    229 H229       -7.7793  -18.4117  -53.8432 H         1 UNK         0.0600 
    230 H230       -7.7488  -19.2737  -55.6630 H         1 UNK         0.3000 
    231 H231       -7.4361  -19.3008  -58.5088 H         1 UNK         0.0600 
    232 H232       -8.5230  -21.4173  -56.5737 H         1 UNK         0.0600 
    233 H233       -8.7348  -21.4294  -58.3204 H         1 UNK         0.0600 
    234 H234       -9.4671  -20.1525  -57.3628 H         1 UNK         0.0600 
    235 H235       -5.5092  -20.6787  -55.9320 H         1 UNK         0.3000 
    236 H236       -4.0331  -22.5235  -57.7114 H         1 UNK         0.0600 
    237 H237       -4.4916  -23.2581  -55.4079 H         1 UNK         0.0600 
    238 H238       -2.7662  -23.0441  -55.6295 H         1 UNK         0.0600 
    239 H239       -3.6970  -21.8434  -54.7384 H         1 UNK         0.0600 
    240 H240       -2.0580  -20.8451  -55.4704 H         1 UNK         0.3000 
    241 H241       -0.4912  -19.6924  -57.6114 H         1 UNK         0.0600 
    242 H242       -3.2088  -18.2334  -56.5876 H         1 UNK         0.3800 
    243 H243       -2.6282  -16.5948  -56.5201 H         1 UNK         0.3800 
    244 H244        1.2160  -19.2922  -55.9109 H         1 UNK         0.0800 
    245 H245        0.6398  -20.9256  -55.8673 H         1 UNK         0.0800 
    246 H246        0.9109  -17.5534  -53.9536 H         1 UNK         0.0800 
    247 H247        2.1384  -18.7592  -53.6335 H         1 UNK         0.0800 
@<TRIPOS>BOND
     1    1    2 1    
     2    1  127 1    
     3    1  128 1    
     4    1  129 1    
     5    2    3 2    
     6    2    4 am   BACKBONE|DICT|INTERRES
     7    4    5 1    
     8    4  130 1    
     9    5    6 1    
    10    5   65 1    
    11    5  131 1    
    12    6    7 1    
    13    6  132 1    
    14    6  133 1    
    15    7    8 1    
    16    8    9 1    
    17    8  134 1    
    18    8  135 1    
    19    9   10 ar   
    20    9   14 ar   
    21   10   11 ar   
    22   10  136 1    
    23   11   12 ar   
    24   11  126 1    
    25   12   13 ar   
    26   12  137 1    
    27   13   14 ar   
    28   13   15 1    
    29   14  138 1    
    30   15   16 1    
    31   15  139 1    
    32   15  140 1    
    33   16   17 1    
    34   17   18 1    
    35   17  141 1    
    36   17  142 1    
    37   18   19 1    
    38   18   67 1    
    39   18  143 1    
    40   19   20 am   BACKBONE|DICT|INTERRES
    41   19  144 1    
    42   20   21 2    
    43   20   22 1    
    44   22   23 1    
    45   22   24 1    
    46   22  145 1    
    47   23  146 1    
    48   23  147 1    
    49   23  148 1    
    50   24   25 am   BACKBONE|DICT|INTERRES
    51   24  149 1    
    52   25   26 2    
    53   25   27 1    
    54   27   28 1    
    55   27   29 1    
    56   27  150 1    
    57   28  151 1    
    58   28  152 1    
    59   28  153 1    
    60   29   30 am   BACKBONE|DICT|INTERRES
    61   29  154 1    
    62   30   31 2    
    63   30   32 1    
    64   32   33 1    
    65   32   34 1    
    66   32  155 1    
    67   33  156 1    
    68   33  157 1    
    69   33  158 1    
    70   34   35 am   BACKBONE|DICT|INTERRES
    71   34  159 1    
    72   35   36 2    
    73   35   37 1    
    74   37   38 1    
    75   37   39 1    
    76   37  160 1    
    77   38  161 1    
    78   38  162 1    
    79   38  163 1    
    80   39   40 am   BACKBONE|DICT|INTERRES
    81   39  164 1    
    82   40   41 2    
    83   40   42 1    
    84   42   43 1    
    85   42   44 1    
    86   42  165 1    
    87   43  166 1    
    88   43  167 1    
    89   43  168 1    
    90   44   45 am   BACKBONE|DICT|INTERRES
    91   44  169 1    
    92   45   46 2    
    93   45   47 1    
    94   47   48 1    
    95   47   49 1    
    96   47  170 1    
    97   48  171 1    
    98   48  172 1    
    99   48  173 1    
   100   49   50 am   BACKBONE|DICT|INTERRES
   101   49  174 1    
   102   50   51 2    
   103   50   52 1    
   104   52   53 1    
   105   52   54 1    
   106   52  175 1    
   107   53  176 1    
   108   53  177 1    
   109   53  178 1    
   110   54   55 am   BACKBONE|DICT|INTERRES
   111   54  179 1    
   112   55   56 2    
   113   55   57 1    
   114   57   58 1    
   115   57   59 1    
   116   57  180 1    
   117   58  181 1    
   118   58  182 1    
   119   58  183 1    
   120   59   60 am   BACKBONE|DICT|INTERRES
   121   59  184 1    
   122   60   61 2    
   123   60   62 1    
   124   62   63 1    
   125   62   64 1    
   126   62  185 1    
   127   63  186 1    
   128   63  187 1    
   129   63  188 1    
   130   64   65 am   BACKBONE|DICT|INTERRES
   131   64  189 1    
   132   65   66 2    
   133   67   68 2    
   134   67   69 am   BACKBONE|DICT|INTERRES
   135   69   70 1    
   136   69  190 1    
   137   70   71 1    
   138   70   72 1    
   139   70  191 1    
   140   71  192 1    
   141   71  193 1    
   142   71  194 1    
   143   72   73 2    
   144   72   74 am   BACKBONE|DICT|INTERRES
   145   74   75 1    
   146   74  195 1    
   147   75   76 1    
   148   75   77 1    
   149   75  196 1    
   150   76  197 1    
   151   76  198 1    
   152   76  199 1    
   153   77   78 2    
   154   77   79 am   BACKBONE|DICT|INTERRES
   155   79   80 1    
   156   79  200 1    
   157   80   81 1    
   158   80   82 1    
   159   80  201 1    
   160   81  202 1    
   161   81  203 1    
   162   81  204 1    
   163   82   83 2    
   164   82   84 am   BACKBONE|DICT|INTERRES
   165   84   85 1    
   166   84  205 1    
   167   85   86 1    
   168   85   87 1    
   169   85  206 1    
   170   86  207 1    
   171   86  208 1    
   172   86  209 1    
   173   87   88 2    
   174   87   89 am   BACKBONE|DICT|INTERRES
   175   89   90 1    
   176   89  210 1    
   177   90   91 1    
   178   90   92 1    
   179   90  211 1    
   180   91  212 1    
   181   91  213 1    
   182   91  214 1    
   183   92   93 2    
   184   92   94 am   BACKBONE|DICT|INTERRES
   185   94   95 1    
   186   94  215 1    
   187   95   96 1    
   188   95   97 1    
   189   95  216 1    
   190   96  217 1    
   191   96  218 1    
   192   96  219 1    
   193   97   98 2    
   194   97   99 am   BACKBONE|DICT|INTERRES
   195   99  100 1    
   196   99  220 1    
   197  100  101 1    
   198  100  102 1    
   199  100  221 1    
   200  101  222 1    
   201  101  223 1    
   202  101  224 1    
   203  102  103 2    
   204  102  104 am   BACKBONE|DICT|INTERRES
   205  104  105 1    
   206  104  225 1    
   207  105  106 1    
   208  105  107 1    
   209  105  226 1    
   210  106  227 1    
   211  106  228 1    
   212  106  229 1    
   213  107  108 2    
   214  107  109 am   BACKBONE|DICT|INTERRES
   215  109  110 1    
   216  109  230 1    
   217  110  111 1    
   218  110  112 1    
   219  110  231 1    
   220  111  232 1    
   221  111  233 1    
   222  111  234 1    
   223  112  113 2    
   224  112  114 am   BACKBONE|DICT|INTERRES
   225  114  115 1    
   226  114  235 1    
   227  115  116 1    
   228  115  117 1    
   229  115  236 1    
   230  116  237 1    
   231  116  238 1    
   232  116  239 1    
   233  117  118 2    
   234  117  119 am   BACKBONE|DICT|INTERRES
   235  119  120 1    
   236  119  240 1    
   237  120  121 1    
   238  120  124 1    
   239  120  241 1    
   240  121  122 am   BACKBONE|DICT|INTERRES
   241  121  123 2    
   242  122  242 1    
   243  122  243 1    
   244  124  125 1    
   245  124  244 1    
   246  124  245 1    
   247  125  126 1    
   248  126  246 1    
   249  126  247 1    
@<TRIPOS>SUBSTRUCTURE
     1 UNK         1 GROUP             0       ****    0 ROOT    
