@<TRIPOS>MOLECULE
3R540
247   249    1
SMALL
USER_CHARGES


@<TRIPOS>ATOM
      1 CA          0.9754   -9.8974  -50.9488 C.3       0 UNK        -0.1800 
      2 C           1.2262  -10.9637  -49.8930 C.2       0 UNK         0.5000 
      3 O           0.8831  -10.7662  -48.7289 O.2       0 UNK        -0.5000 
      4 N           1.8077  -12.1005  -50.2952 N.am      1 UNK        -0.5000 
      5 CA          2.1388  -13.2512  -49.4407 C.3       1 UNK         0.1400 
      6 C6          2.9662  -14.3190  -50.2010 C.3       23 UNK        -0.0398 
      7 S7          2.2403  -14.8014  -51.8075 S.3       23 UNK        -0.2404 
      8 C8          3.1387  -16.3487  -52.1565 C.3       23 UNK        -0.0205 
      9 C9          2.6751  -17.5475  -51.3328 C.ar      23 UNK        -0.0193 
     10 C10         1.3205  -17.7560  -51.0479 C.ar      23 UNK        -0.1150 
     11 C11         0.9034  -18.8970  -50.3585 C.ar      23 UNK        -0.0193 
     12 C12         1.8499  -19.8417  -49.9581 C.ar      23 UNK        -0.1150 
     13 C13         3.2077  -19.6474  -50.2289 C.ar      23 UNK        -0.0193 
     14 C14         3.6126  -18.4964  -50.9114 C.ar      23 UNK        -0.1150 
     15 C15         4.2285  -20.7116  -49.8489 C.3       23 UNK        -0.0205 
     16 S16         5.0353  -20.4186  -48.2362 S.3       23 UNK        -0.2404 
     17 C17         3.6779  -20.6063  -47.0278 C.3       23 UNK        -0.0398 
     18 CA          3.4832  -22.0469  -46.4828 C.3       11 UNK         0.1400 
     19 N           2.6831  -22.0441  -45.2531 N.am      11 UNK        -0.5000 
     20 C           2.4939  -23.0990  -44.4464 C.2       10 UNK         0.5000 
     21 O           3.0712  -24.1776  -44.5845 O.2       10 UNK        -0.5000 
     22 CA          1.4867  -22.9240  -43.2928 C.3       10 UNK         0.1400 
     23 CB          2.1803  -22.3368  -42.0548 C.3       10 UNK        -0.1800 
     24 N           0.3442  -22.0853  -43.6648 N.am      10 UNK        -0.5000 
     25 C          -0.6435  -22.4764  -44.4836 C.2       9 UNK         0.5000 
     26 O          -0.7434  -23.6174  -44.9307 O.2       9 UNK        -0.5000 
     27 CA         -1.6872  -21.4172  -44.8953 C.3       9 UNK         0.1400 
     28 CB         -2.8736  -21.4110  -43.9212 C.3       9 UNK        -0.1800 
     29 N          -1.1299  -20.0686  -45.0027 N.am      9 UNK        -0.5000 
     30 C          -0.1992  -19.6994  -45.8941 C.2       8 UNK         0.5000 
     31 O           0.2444  -20.4454  -46.7648 O.2       8 UNK        -0.5000 
     32 CA          0.3848  -18.2857  -45.7358 C.3       8 UNK         0.1400 
     33 CB         -0.5431  -17.2331  -46.3610 C.3       8 UNK        -0.1800 
     34 N           0.6370  -17.9781  -44.3250 N.am      8 UNK        -0.5000 
     35 C           1.6204  -18.5413  -43.6060 C.2       7 UNK         0.5000 
     36 O           2.4536  -19.3061  -44.0895 O.2       7 UNK        -0.5000 
     37 CA          1.6542  -18.2632  -42.0908 C.3       7 UNK         0.1400 
     38 CB          2.6082  -17.1133  -41.7448 C.3       7 UNK        -0.1800 
     39 N           0.3280  -17.9872  -41.5407 N.am      7 UNK        -0.5000 
     40 C          -0.5863  -18.9384  -41.3039 C.2       6 UNK         0.5000 
     41 O          -0.3810  -20.1376  -41.4871 O.2       6 UNK        -0.5000 
     42 CA         -1.9798  -18.4720  -40.8403 C.3       6 UNK         0.1400 
     43 CB         -2.0263  -18.3460  -39.3107 C.3       6 UNK        -0.1800 
     44 N          -2.3971  -17.2045  -41.4436 N.am      6 UNK        -0.5000 
     45 C          -2.5247  -16.9915  -42.7599 C.2       5 UNK         0.5000 
     46 O          -2.3234  -17.8627  -43.6046 O.2       5 UNK        -0.5000 
     47 CA         -2.8955  -15.5704  -43.2225 C.3       5 UNK         0.1400 
     48 CB         -3.5785  -14.7204  -42.1290 C.3       5 UNK        -0.1800 
     49 N          -1.7513  -14.8437  -43.7824 N.am      5 UNK        -0.5000 
     50 C          -0.5801  -14.5646  -43.1833 C.2       4 UNK         0.5000 
     51 O          -0.2390  -15.0400  -42.0994 O.2       4 UNK        -0.5000 
     52 CA          0.3684  -13.5698  -43.8929 C.3       4 UNK         0.1400 
     53 CB          1.6560  -14.2547  -44.3760 C.3       4 UNK        -0.1800 
     54 N          -0.2536  -12.8836  -45.0258 N.am      4 UNK        -0.5000 
     55 C          -1.1907  -11.9281  -44.9245 C.2       3 UNK         0.5000 
     56 O          -1.5652  -11.4582  -43.8497 O.2       3 UNK        -0.5000 
     57 CA         -1.8448  -11.4299  -46.2298 C.3       3 UNK         0.1400 
     58 CB         -1.4329   -9.9794  -46.5240 C.3       3 UNK        -0.1800 
     59 N          -1.5478  -12.2687  -47.3952 N.am      3 UNK        -0.5000 
     60 C          -2.0089  -13.5169  -47.5753 C.2       2 UNK         0.5000 
     61 O          -2.7405  -14.0884  -46.7655 O.2       2 UNK        -0.5000 
     62 CA         -1.5436  -14.2676  -48.8400 C.3       2 UNK         0.1400 
     63 CB         -2.6044  -14.1718  -49.9454 C.3       2 UNK        -0.1800 
     64 N          -0.2625  -13.8000  -49.3736 N.am      2 UNK        -0.5000 
     65 C           0.9142  -13.8758  -48.7355 C.2       1 UNK         0.5000 
     66 O           1.0477  -14.3639  -47.6139 O.2       1 UNK        -0.5000 
     67 C           2.8553  -22.9723  -47.5470 C.2       11 UNK         0.5000 
     68 O           3.5648  -23.7593  -48.1759 O.2       11 UNK        -0.5000 
     69 N           1.5357  -22.8375  -47.7277 N.am      12 UNK        -0.5000 
     70 CA          0.7109  -23.5606  -48.6896 C.3       12 UNK         0.1400 
     71 CB         -0.7270  -23.0483  -48.5538 C.3       12 UNK        -0.1800 
     72 C           0.7310  -25.0893  -48.5190 C.2       12 UNK         0.5000 
     73 O           0.8461  -25.5964  -47.4016 O.2       12 UNK        -0.5000 
     74 N           0.5466  -25.7900  -49.6419 N.am      13 UNK        -0.5000 
     75 CA          0.3542  -27.2374  -49.6907 C.3       13 UNK         0.1400 
     76 CB          0.8419  -27.7612  -51.0501 C.3       13 UNK        -0.1800 
     77 C          -1.1219  -27.6118  -49.4689 C.2       13 UNK         0.5000 
     78 O          -1.3993  -28.6609  -48.8872 O.2       13 UNK        -0.5000 
     79 N          -2.0362  -26.7476  -49.9313 N.am      14 UNK        -0.5000 
     80 CA         -3.4870  -26.9461  -49.8785 C.3       14 UNK         0.1400 
     81 CB         -4.0567  -26.7086  -51.2867 C.3       14 UNK        -0.1800 
     82 C          -4.1756  -26.0525  -48.8255 C.2       14 UNK         0.5000 
     83 O          -5.4054  -25.9803  -48.8132 O.2       14 UNK        -0.5000 
     84 N          -3.3844  -25.4032  -47.9567 N.am      15 UNK        -0.5000 
     85 CA         -3.7996  -24.4400  -46.9306 C.3       15 UNK         0.1400 
     86 CB         -4.6260  -25.1291  -45.8212 C.3       15 UNK        -0.1800 
     87 C          -4.4742  -23.2032  -47.5639 C.2       15 UNK         0.5000 
     88 O          -3.8624  -22.5715  -48.4248 O.2       15 UNK        -0.5000 
     89 N          -5.6931  -22.8621  -47.1214 N.am      16 UNK        -0.5000 
     90 CA         -6.6147  -21.8384  -47.6429 C.3       16 UNK         0.1400 
     91 CB         -7.0100  -22.1593  -49.0952 C.3       16 UNK        -0.1800 
     92 C          -6.1635  -20.3664  -47.5221 C.2       16 UNK         0.5000 
     93 O          -7.0263  -19.4902  -47.4620 O.2       16 UNK        -0.5000 
     94 N          -4.8499  -20.1100  -47.5007 N.am      17 UNK        -0.5000 
     95 CA         -4.1459  -18.8256  -47.3767 C.3       17 UNK         0.1400 
     96 CB         -4.5329  -18.0906  -46.0797 C.3       17 UNK        -0.1800 
     97 C          -4.2740  -17.8829  -48.5900 C.2       17 UNK         0.5000 
     98 O          -3.3104  -17.1830  -48.8948 O.2       17 UNK        -0.5000 
     99 N          -5.4375  -17.8647  -49.2534 N.am      18 UNK        -0.5000 
    100 CA        -5.7175  -17.0877  -50.4616 C.3       18 UNK         0.1400 
    101 CB        -7.1996  -17.2522  -50.8302 C.3       18 UNK        -0.1800 
    102 C         -4.8187  -17.5196  -51.6338 C.2       18 UNK         0.5000 
    103 O         -4.7042  -18.7190  -51.8870 O.2       18 UNK        -0.5000 
    104 N         -4.2264  -16.5382  -52.3306 N.am      19 UNK        -0.5000 
    105 CA        -3.1538  -16.6950  -53.3242 C.3       19 UNK         0.1400 
    106 CB        -2.8209  -15.3171  -53.9187 C.3       19 UNK        -0.1800 
    107 C         -3.4224  -17.7046  -54.4585 C.2       19 UNK         0.5000 
    108 O         -2.4866  -18.3444  -54.9391 O.2       19 UNK        -0.5000 
    109 N         -4.6906  -17.8306  -54.8650 N.am      20 UNK        -0.5000 
    110 CA        -5.1391  -18.7548  -55.9066 C.3       20 UNK         0.1400 
    111 CB        -6.4505  -18.2140  -56.4994 C.3       20 UNK        -0.1800 
    112 C         -5.3336  -20.2027  -55.4094 C.2       20 UNK         0.5000 
    113 O         -5.5050  -21.0960  -56.2403 O.2       20 UNK        -0.5000 
    114 N         -5.3434  -20.4135  -54.0866 N.am      21 UNK        -0.5000 
    115 CA        -5.7372  -21.6642  -53.4376 C.3       21 UNK         0.1400 
    116 CB        -6.9699  -21.3763  -52.5630 C.3       21 UNK        -0.1800 
    117 C         -4.6043  -22.3079  -52.6148 C.2       21 UNK         0.5000 
    118 O         -4.8628  -23.3009  -51.9361 O.2       21 UNK        -0.5000 
    119 N         -3.3814  -21.7619  -52.6820 N.am      22 UNK        -0.5000 
    120 CA        -2.2061  -22.2431  -51.9260 C.3       22 UNK         0.1400 
    121 C         -1.6918  -23.6565  -52.3411 C.2       22 UNK         0.5000 
    122 N         -2.0332  -24.1690  -53.5164 N.am      22 UNK        -0.7600 
    123 O         -0.9773  -24.3072  -51.5825 O.2       22 UNK        -0.5000 
    124 C124       -1.0304  -21.2266  -51.9419 C.3       23 UNK        -0.0398 
    125 S125       -1.5373  -19.5230  -51.5264 S.3       23 UNK        -0.2404 
    126 C126       -0.5700  -19.1003  -50.0465 C.3       23 UNK        -0.0205 
    127 H127        1.4959   -8.9776  -50.6829 H         1 UNK         0.0600 
    128 H128       -0.0905   -9.6801  -51.0157 H         1 UNK         0.0600 
    129 H129        1.3215  -10.2122  -51.9335 H         1 UNK         0.0600 
    130 H130        2.0484  -12.2137  -51.2702 H         1 UNK         0.3000 
    131 H131        2.7741  -12.8655  -48.6406 H         1 UNK         0.0600 
    132 H132        3.9652  -13.9271  -50.3963 H         1 UNK         0.0800 
    133 H133        3.1149  -15.2076  -49.5839 H         1 UNK         0.0800 
    134 H134        3.0048  -16.5925  -53.2109 H         1 UNK         0.0800 
    135 H135        4.2064  -16.1733  -52.0150 H         1 UNK         0.0800 
    136 H136        0.5800  -17.0409  -51.3772 H         1 UNK         0.1150 
    137 H137        1.5253  -20.7313  -49.4402 H         1 UNK         0.1150 
    138 H138        4.6598  -18.3557  -51.1406 H         1 UNK         0.1150 
    139 H139        3.7658  -21.6971  -49.8699 H         1 UNK         0.0800 
    140 H140        5.0068  -20.7460  -50.6126 H         1 UNK         0.0800 
    141 H141        2.7533  -20.1978  -47.4307 H         1 UNK         0.0800 
    142 H142        3.9372  -19.9483  -46.1979 H         1 UNK         0.0800 
    143 H143        4.4648  -22.4509  -46.2263 H         1 UNK         0.0600 
    144 H144        2.2287  -21.1701  -45.0165 H         1 UNK         0.3000 
    145 H145        1.1093  -23.9139  -43.0271 H         1 UNK         0.0600 
    146 H146        1.4819  -22.2215  -41.2257 H         1 UNK         0.0600 
    147 H147        2.9840  -22.9906  -41.7142 H         1 UNK         0.0600 
    148 H148        2.6208  -21.3626  -42.2639 H         1 UNK         0.0600 
    149 H149        0.2983  -21.1615  -43.2534 H         1 UNK         0.3000 
    150 H150       -2.0663  -21.6924  -45.8810 H         1 UNK         0.0600 
    151 H151       -3.3123  -22.4057  -43.8334 H         1 UNK         0.0600 
    152 H152       -3.6611  -20.7400  -44.2616 H         1 UNK         0.0600 
    153 H153       -2.5719  -21.0952  -42.9224 H         1 UNK         0.0600 
    154 H154       -1.4807  -19.3703  -44.3515 H         1 UNK         0.3000 
    155 H155        1.3367  -18.2500  -46.2703 H         1 UNK         0.0600 
    156 H156       -0.1691  -16.2240  -46.2030 H         1 UNK         0.0600 
    157 H157       -1.5525  -17.2758  -45.9574 H         1 UNK         0.0600 
    158 H158       -0.6214  -17.3824  -47.4372 H         1 UNK         0.0600 
    159 H159       -0.0631  -17.4290  -43.8472 H         1 UNK         0.3000 
    160 H160        2.0476  -19.1604  -41.6094 H         1 UNK         0.0600 
    161 H161        2.2084  -16.1526  -42.0580 H         1 UNK         0.0600 
    162 H162        3.5789  -17.2449  -42.2249 H         1 UNK         0.0600 
    163 H163        2.7814  -17.0620  -40.6698 H         1 UNK         0.0600 
    164 H164        0.0735  -17.0124  -41.4192 H         1 UNK         0.3000 
    165 H165       -2.6994  -19.2353  -41.1433 H         1 UNK         0.0600 
    166 H166       -3.0308  -18.1011  -38.9652 H         1 UNK         0.0600 
    167 H167       -1.7390  -19.2838  -38.8330 H         1 UNK         0.0600 
    168 H168       -1.3479  -17.5719  -38.9498 H         1 UNK         0.0600 
    169 H169       -2.5429  -16.4281  -40.8151 H         1 UNK         0.3000 
    170 H170       -3.6112  -15.6920  -44.0365 H         1 UNK         0.0600 
    171 H171       -4.4481  -15.2335  -41.7164 H         1 UNK         0.0600 
    172 H172       -2.9054  -14.4856  -41.3037 H         1 UNK         0.0600 
    173 H173       -3.9306  -13.7743  -42.5405 H         1 UNK         0.0600 
    174 H174       -1.9114  -14.4487  -44.7013 H         1 UNK         0.3000 
    175 H175        0.6497  -12.8121  -43.1587 H         1 UNK         0.0600 
    176 H176        1.4518  -15.1609  -44.9453 H         1 UNK         0.0600 
    177 H177        2.2457  -13.5910  -45.0088 H         1 UNK         0.0600 
    178 H178        2.2898  -14.5262  -43.5344 H         1 UNK         0.0600 
    179 H179        0.0070  -13.2137  -45.9472 H         1 UNK         0.3000 
    180 H180       -2.9257  -11.4474  -46.0756 H         1 UNK         0.0600 
    181 H181       -1.8682   -9.6225  -47.4575 H         1 UNK         0.0600 
    182 H182       -0.3500   -9.8752  -46.5940 H         1 UNK         0.0600 
    183 H183       -1.7715   -9.3112  -45.7312 H         1 UNK         0.0600 
    184 H184       -0.8985  -11.8818  -48.0701 H         1 UNK         0.3000 
    185 H185       -1.4254  -15.3174  -48.5672 H         1 UNK         0.0600 
    186 H186       -2.7027  -13.1551  -50.3274 H         1 UNK         0.0600 
    187 H187       -2.3513  -14.8279  -50.7774 H         1 UNK         0.0600 
    188 H188       -3.5826  -14.4823  -49.5763 H         1 UNK         0.0600 
    189 H189       -0.2779  -13.3749  -50.2889 H         1 UNK         0.3000 
    190 H190        1.0503  -22.1356  -47.1767 H         1 UNK         0.3000 
    191 H191        1.0786  -23.3200  -49.6891 H         1 UNK         0.0600 
    192 H192       -1.4243  -23.6268  -49.1569 H         1 UNK         0.0600 
    193 H193       -0.8134  -22.0117  -48.8668 H         1 UNK         0.0600 
    194 H194       -1.0692  -23.1101  -47.5239 H         1 UNK         0.0600 
    195 H195        0.3669  -25.2833  -50.5040 H         1 UNK         0.3000 
    196 H196        0.9485  -27.7138  -48.9079 H         1 UNK         0.0600 
    197 H197        0.2878  -27.3145  -51.8769 H         1 UNK         0.0600 
    198 H198        1.8995  -27.5431  -51.1990 H         1 UNK         0.0600 
    199 H199        0.7202  -28.8430  -51.1183 H         1 UNK         0.0600 
    200 H200       -1.7167  -25.9120  -50.4091 H         1 UNK         0.3000 
    201 H201       -3.7172  -27.9769  -49.6022 H         1 UNK         0.0600 
    202 H202       -5.1356  -26.8654  -51.3131 H         1 UNK         0.0600 
    203 H203       -3.6131  -27.3921  -52.0106 H         1 UNK         0.0600 
    204 H204       -3.8635  -25.6925  -51.6275 H         1 UNK         0.0600 
    205 H205       -2.3889  -25.5347  -48.0555 H         1 UNK         0.3000 
    206 H206       -2.8845  -24.0786  -46.4643 H         1 UNK         0.0600 
    207 H207       -4.0797  -25.9738  -45.4013 H         1 UNK         0.0600 
    208 H208       -4.8290  -24.4435  -44.9975 H         1 UNK         0.0600 
    209 H209       -5.5816  -25.5060  -46.1869 H         1 UNK         0.0600 
    210 H210       -6.0806  -23.4312  -46.3822 H         1 UNK         0.3000 
    211 H211       -7.5163  -21.9256  -47.0347 H         1 UNK         0.0600 
    212 H212       -7.7759  -21.4714  -49.4555 H         1 UNK         0.0600 
    213 H213       -7.4107  -23.1692  -49.1833 H         1 UNK         0.0600 
    214 H214       -6.1563  -22.0801  -49.7684 H         1 UNK         0.0600 
    215 H215       -4.2544  -20.9107  -47.6965 H         1 UNK         0.3000 
    216 H216       -3.0885  -19.0845  -47.3011 H         1 UNK         0.0600 
    217 H217       -3.9340  -17.1884  -45.9548 H         1 UNK         0.0600 
    218 H218       -5.5780  -17.7818  -46.0782 H         1 UNK         0.0600 
    219 H219       -4.3667  -18.7157  -45.2040 H         1 UNK         0.0600 
    220 H220       -6.1818  -18.4555  -48.9003 H         1 UNK         0.3000 
    221 H221       -5.5291  -16.0369  -50.2337 H         1 UNK         0.0600 
    222 H222       -7.8472  -16.9082  -50.0235 H         1 UNK         0.0600 
    223 H223       -7.4488  -18.2937  -51.0382 H         1 UNK         0.0600 
    224 H224       -7.4492  -16.6706  -51.7185 H         1 UNK         0.0600 
    225 H225       -4.4281  -15.5857  -52.0654 H         1 UNK         0.3000 
    226 H226       -2.2713  -17.0421  -52.7860 H         1 UNK         0.0600 
    227 H227       -2.0115  -15.3903  -54.6466 H         1 UNK         0.0600 
    228 H228       -3.6813  -14.8817  -54.4283 H         1 UNK         0.0600 
    229 H229       -2.4961  -14.6166  -53.1500 H         1 UNK         0.0600 
    230 H230       -5.3998  -17.2768  -54.4075 H         1 UNK         0.3000 
    231 H231       -4.3932  -18.7809  -56.7038 H         1 UNK         0.0600 
    232 H232       -7.2415  -18.1674  -55.7498 H         1 UNK         0.0600 
    233 H233       -6.8055  -18.8493  -57.3120 H         1 UNK         0.0600 
    234 H234       -6.3152  -17.2127  -56.9089 H         1 UNK         0.0600 
    235 H235       -5.1379  -19.6441  -53.4521 H         1 UNK         0.3000 
    236 H236       -6.0275  -22.4067  -54.1831 H         1 UNK         0.0600 
    237 H237       -7.3456  -22.2875  -52.0963 H         1 UNK         0.0600 
    238 H238       -6.7373  -20.6671  -51.7680 H         1 UNK         0.0600 
    239 H239       -7.7844  -20.9589  -53.1550 H         1 UNK         0.0600 
    240 H240       -3.2520  -20.9240  -53.2300 H         1 UNK         0.3000 
    241 H241       -2.5333  -22.3371  -50.8892 H         1 UNK         0.0600 
    242 H242       -1.6961  -25.0819  -53.7752 H         1 UNK         0.3800 
    243 H243       -2.6250  -23.6543  -54.1478 H         1 UNK         0.3800 
    244 H244       -0.5724  -21.1954  -52.9319 H         1 UNK         0.0800 
    245 H245       -0.2441  -21.5444  -51.2562 H         1 UNK         0.0800 
    246 H246       -0.7167  -19.8498  -49.2714 H         1 UNK         0.0800 
    247 H247       -0.9675  -18.1701  -49.6412 H         1 UNK         0.0800 
@<TRIPOS>BOND
     1    1    2 1    
     2    1  127 1    
     3    1  128 1    
     4    1  129 1    
     5    2    3 2    
     6    2    4 am   BACKBONE|DICT|INTERRES
     7    4    5 1    
     8    4  130 1    
     9    5    6 1    
    10    5   65 1    
    11    5  131 1    
    12    6    7 1    
    13    6  132 1    
    14    6  133 1    
    15    7    8 1    
    16    8    9 1    
    17    8  134 1    
    18    8  135 1    
    19    9   10 ar   
    20    9   14 ar   
    21   10   11 ar   
    22   10  136 1    
    23   11   12 ar   
    24   11  126 1    
    25   12   13 ar   
    26   12  137 1    
    27   13   14 ar   
    28   13   15 1    
    29   14  138 1    
    30   15   16 1    
    31   15  139 1    
    32   15  140 1    
    33   16   17 1    
    34   17   18 1    
    35   17  141 1    
    36   17  142 1    
    37   18   19 1    
    38   18   67 1    
    39   18  143 1    
    40   19   20 am   BACKBONE|DICT|INTERRES
    41   19  144 1    
    42   20   21 2    
    43   20   22 1    
    44   22   23 1    
    45   22   24 1    
    46   22  145 1    
    47   23  146 1    
    48   23  147 1    
    49   23  148 1    
    50   24   25 am   BACKBONE|DICT|INTERRES
    51   24  149 1    
    52   25   26 2    
    53   25   27 1    
    54   27   28 1    
    55   27   29 1    
    56   27  150 1    
    57   28  151 1    
    58   28  152 1    
    59   28  153 1    
    60   29   30 am   BACKBONE|DICT|INTERRES
    61   29  154 1    
    62   30   31 2    
    63   30   32 1    
    64   32   33 1    
    65   32   34 1    
    66   32  155 1    
    67   33  156 1    
    68   33  157 1    
    69   33  158 1    
    70   34   35 am   BACKBONE|DICT|INTERRES
    71   34  159 1    
    72   35   36 2    
    73   35   37 1    
    74   37   38 1    
    75   37   39 1    
    76   37  160 1    
    77   38  161 1    
    78   38  162 1    
    79   38  163 1    
    80   39   40 am   BACKBONE|DICT|INTERRES
    81   39  164 1    
    82   40   41 2    
    83   40   42 1    
    84   42   43 1    
    85   42   44 1    
    86   42  165 1    
    87   43  166 1    
    88   43  167 1    
    89   43  168 1    
    90   44   45 am   BACKBONE|DICT|INTERRES
    91   44  169 1    
    92   45   46 2    
    93   45   47 1    
    94   47   48 1    
    95   47   49 1    
    96   47  170 1    
    97   48  171 1    
    98   48  172 1    
    99   48  173 1    
   100   49   50 am   BACKBONE|DICT|INTERRES
   101   49  174 1    
   102   50   51 2    
   103   50   52 1    
   104   52   53 1    
   105   52   54 1    
   106   52  175 1    
   107   53  176 1    
   108   53  177 1    
   109   53  178 1    
   110   54   55 am   BACKBONE|DICT|INTERRES
   111   54  179 1    
   112   55   56 2    
   113   55   57 1    
   114   57   58 1    
   115   57   59 1    
   116   57  180 1    
   117   58  181 1    
   118   58  182 1    
   119   58  183 1    
   120   59   60 am   BACKBONE|DICT|INTERRES
   121   59  184 1    
   122   60   61 2    
   123   60   62 1    
   124   62   63 1    
   125   62   64 1    
   126   62  185 1    
   127   63  186 1    
   128   63  187 1    
   129   63  188 1    
   130   64   65 am   BACKBONE|DICT|INTERRES
   131   64  189 1    
   132   65   66 2    
   133   67   68 2    
   134   67   69 am   BACKBONE|DICT|INTERRES
   135   69   70 1    
   136   69  190 1    
   137   70   71 1    
   138   70   72 1    
   139   70  191 1    
   140   71  192 1    
   141   71  193 1    
   142   71  194 1    
   143   72   73 2    
   144   72   74 am   BACKBONE|DICT|INTERRES
   145   74   75 1    
   146   74  195 1    
   147   75   76 1    
   148   75   77 1    
   149   75  196 1    
   150   76  197 1    
   151   76  198 1    
   152   76  199 1    
   153   77   78 2    
   154   77   79 am   BACKBONE|DICT|INTERRES
   155   79   80 1    
   156   79  200 1    
   157   80   81 1    
   158   80   82 1    
   159   80  201 1    
   160   81  202 1    
   161   81  203 1    
   162   81  204 1    
   163   82   83 2    
   164   82   84 am   BACKBONE|DICT|INTERRES
   165   84   85 1    
   166   84  205 1    
   167   85   86 1    
   168   85   87 1    
   169   85  206 1    
   170   86  207 1    
   171   86  208 1    
   172   86  209 1    
   173   87   88 2    
   174   87   89 am   BACKBONE|DICT|INTERRES
   175   89   90 1    
   176   89  210 1    
   177   90   91 1    
   178   90   92 1    
   179   90  211 1    
   180   91  212 1    
   181   91  213 1    
   182   91  214 1    
   183   92   93 2    
   184   92   94 am   BACKBONE|DICT|INTERRES
   185   94   95 1    
   186   94  215 1    
   187   95   96 1    
   188   95   97 1    
   189   95  216 1    
   190   96  217 1    
   191   96  218 1    
   192   96  219 1    
   193   97   98 2    
   194   97   99 am   BACKBONE|DICT|INTERRES
   195   99  100 1    
   196   99  220 1    
   197  100  101 1    
   198  100  102 1    
   199  100  221 1    
   200  101  222 1    
   201  101  223 1    
   202  101  224 1    
   203  102  103 2    
   204  102  104 am   BACKBONE|DICT|INTERRES
   205  104  105 1    
   206  104  225 1    
   207  105  106 1    
   208  105  107 1    
   209  105  226 1    
   210  106  227 1    
   211  106  228 1    
   212  106  229 1    
   213  107  108 2    
   214  107  109 am   BACKBONE|DICT|INTERRES
   215  109  110 1    
   216  109  230 1    
   217  110  111 1    
   218  110  112 1    
   219  110  231 1    
   220  111  232 1    
   221  111  233 1    
   222  111  234 1    
   223  112  113 2    
   224  112  114 am   BACKBONE|DICT|INTERRES
   225  114  115 1    
   226  114  235 1    
   227  115  116 1    
   228  115  117 1    
   229  115  236 1    
   230  116  237 1    
   231  116  238 1    
   232  116  239 1    
   233  117  118 2    
   234  117  119 am   BACKBONE|DICT|INTERRES
   235  119  120 1    
   236  119  240 1    
   237  120  121 1    
   238  120  124 1    
   239  120  241 1    
   240  121  122 am   BACKBONE|DICT|INTERRES
   241  121  123 2    
   242  122  242 1    
   243  122  243 1    
   244  124  125 1    
   245  124  244 1    
   246  124  245 1    
   247  125  126 1    
   248  126  246 1    
   249  126  247 1    
@<TRIPOS>SUBSTRUCTURE
     1 UNK         1 GROUP             0       ****    0 ROOT    
