@<TRIPOS>MOLECULE
3R540
247   249    1
SMALL
USER_CHARGES


@<TRIPOS>ATOM
      1 CA          2.4188  -17.8954  -48.4634 C.3       0 UNK        -0.1800 
      2 C           2.9003  -16.6639  -47.7114 C.2       0 UNK         0.5000 
      3 O           3.4255  -16.7858  -46.6063 O.2       0 UNK        -0.5000 
      4 N           2.7520  -15.4776  -48.3167 N.am      1 UNK        -0.5000 
      5 CA          3.0901  -14.1703  -47.7283 C.3       1 UNK         0.1400 
      6 C6          2.5059  -12.9877  -48.5402 C.3       23 UNK        -0.0398 
      7 S7          0.6971  -13.1209  -48.7506 S.3       23 UNK        -0.2404 
      8 C8          0.5450  -13.3781  -50.5449 C.3       23 UNK        -0.0205 
      9 C9         -0.6199  -14.2991  -50.8639 C.ar      23 UNK        -0.0193 
     10 C10        -1.9278  -13.8044  -50.8939 C.ar      23 UNK        -0.1150 
     11 C11        -2.9984  -14.6527  -51.1918 C.ar      23 UNK        -0.0193 
     12 C12        -2.7507  -15.9995  -51.4673 C.ar      23 UNK        -0.1150 
     13 C13        -1.4512  -16.5069  -51.4284 C.ar      23 UNK        -0.0193 
     14 C14        -0.3879  -15.6514  -51.1318 C.ar      23 UNK        -0.1150 
     15 C15        -1.1991  -17.9809  -51.6985 C.3       23 UNK        -0.0205 
     16 S16        -0.7961  -18.8801  -50.1720 S.3       23 UNK        -0.2404 
     17 C17        -2.3278  -18.6649  -49.2007 C.3       23 UNK        -0.0398 
     18 CA         -2.5197  -19.8047  -48.1767 C.3       11 UNK         0.1400 
     19 N          -3.3472  -19.4041  -47.0346 N.am      11 UNK        -0.5000 
     20 C          -3.4643  -20.1191  -45.9084 C.2       10 UNK         0.5000 
     21 O          -2.8715  -21.1843  -45.7192 O.2       10 UNK        -0.5000 
     22 CA         -4.4156  -19.5564  -44.8418 C.3       10 UNK         0.1400 
     23 CB         -4.5121  -20.4585  -43.5980 C.3       10 UNK        -0.1800 
     24 N          -3.9673  -18.2275  -44.4364 N.am      10 UNK        -0.5000 
     25 C          -4.5352  -17.0767  -44.8155 C.2       9 UNK         0.5000 
     26 O          -5.5105  -17.0082  -45.5621 O.2       9 UNK        -0.5000 
     27 CA         -3.9031  -15.7813  -44.2801 C.3       9 UNK         0.1400 
     28 CB         -4.2271  -15.5898  -42.7902 C.3       9 UNK        -0.1800 
     29 N          -2.4557  -15.7348  -44.4733 N.am      9 UNK        -0.5000 
     30 C          -1.8433  -15.6370  -45.6626 C.2       8 UNK         0.5000 
     31 O          -2.4371  -15.5765  -46.7389 O.2       8 UNK        -0.5000 
     32 CA         -0.3029  -15.6133  -45.6335 C.3       8 UNK         0.1400 
     33 CB          0.2112  -14.2532  -45.1319 C.3       8 UNK        -0.1800 
     34 N           0.2366  -16.6745  -44.7851 N.am      8 UNK        -0.5000 
     35 C           0.1147  -17.9846  -45.0378 C.2       7 UNK         0.5000 
     36 O          -0.3708  -18.4384  -46.0704 O.2       7 UNK        -0.5000 
     37 CA          0.5837  -18.9542  -43.9397 C.3       7 UNK         0.1400 
     38 CB          2.0594  -19.3310  -44.1373 C.3       7 UNK        -0.1800 
     39 N           0.3910  -18.4085  -42.5950 N.am      7 UNK        -0.5000 
     40 C          -0.8027  -18.2642  -42.0018 C.2       6 UNK         0.5000 
     41 O          -1.8671  -18.6015  -42.5170 O.2       6 UNK        -0.5000 
     42 CA         -0.8127  -17.5872  -40.6187 C.3       6 UNK         0.1400 
     43 CB         -0.4446  -18.5932  -39.5180 C.3       6 UNK        -0.1800 
     44 N           0.0934  -16.4406  -40.5523 N.am      6 UNK        -0.5000 
     45 C          -0.0642  -15.3108  -41.2563 C.2       5 UNK         0.5000 
     46 O          -1.0332  -15.0921  -41.9822 O.2       5 UNK        -0.5000 
     47 CA          1.0755  -14.2751  -41.1773 C.3       5 UNK         0.1400 
     48 CB          0.8081  -13.2666  -40.0505 C.3       5 UNK        -0.1800 
     49 N           2.4025  -14.8728  -40.9892 N.am      5 UNK        -0.5000 
     50 C           2.9812  -15.7298  -41.8414 C.2       4 UNK         0.5000 
     51 O           2.4438  -16.1200  -42.8795 O.2       4 UNK        -0.5000 
     52 CA          4.3457  -16.3004  -41.4103 C.3       4 UNK         0.1400 
     53 CB          4.1451  -17.4043  -40.3588 C.3       4 UNK        -0.1800 
     54 N           5.1064  -16.8633  -42.5265 N.am      4 UNK        -0.5000 
     55 C           5.6451  -16.1609  -43.5312 C.2       3 UNK         0.5000 
     56 O           5.5948  -14.9301  -43.5982 O.2       3 UNK        -0.5000 
     57 CA          6.4062  -16.9616  -44.6101 C.3       3 UNK         0.1400 
     58 CB          5.9221  -18.4180  -44.7612 C.3       3 UNK        -0.1800 
     59 N           6.2893  -16.2981  -45.9055 N.am      3 UNK        -0.5000 
     60 C           7.2309  -15.5349  -46.4777 C.2       2 UNK         0.5000 
     61 O           8.3473  -15.3471  -45.9911 O.2       2 UNK        -0.5000 
     62 CA          6.8856  -14.8766  -47.8313 C.3       2 UNK         0.1400 
     63 CB          7.5534  -15.6403  -48.9857 C.3       2 UNK        -0.1800 
     64 N           5.4465  -14.8068  -48.0866 N.am      2 UNK        -0.5000 
     65 C           4.6010  -13.9650  -47.4765 C.2       1 UNK         0.5000 
     66 O           4.9697  -13.0601  -46.7271 O.2       1 UNK        -0.5000 
     67 C          -3.0210  -21.1089  -48.8313 C.2       11 UNK         0.5000 
     68 O          -2.2090  -21.8906  -49.3205 O.2       11 UNK        -0.5000 
     69 N          -4.3351  -21.3664  -48.7590 N.am      12 UNK        -0.5000 
     70 CA         -4.9640  -22.6401  -49.1133 C.3       12 UNK         0.1400 
     71 CB         -6.4777  -22.5432  -48.8671 C.3       12 UNK        -0.1800 
     72 C          -4.3767  -23.8452  -48.3547 C.2       12 UNK         0.5000 
     73 O          -4.1652  -24.8931  -48.9638 O.2       12 UNK        -0.5000 
     74 N          -4.0885  -23.6681  -47.0585 N.am      13 UNK        -0.5000 
     75 CA         -3.4443  -24.6814  -46.2264 C.3       13 UNK         0.1400 
     76 CB         -3.7170  -24.3900  -44.7423 C.3       13 UNK        -0.1800 
     77 C          -1.9351  -24.7632  -46.5077 C.2       13 UNK         0.5000 
     78 O          -1.4080  -25.8671  -46.6454 O.2       13 UNK        -0.5000 
     79 N          -1.2750  -23.5999  -46.6135 N.am      14 UNK        -0.5000 
     80 CA          0.1681  -23.4796  -46.8436 C.3       14 UNK         0.1400 
     81 CB          0.5914  -22.0086  -46.7114 C.3       14 UNK        -0.1800 
     82 C           0.6253  -24.0547  -48.1983 C.2       14 UNK         0.5000 
     83 O           1.6494  -24.7363  -48.2542 O.2       14 UNK        -0.5000 
     84 N          -0.1502  -23.7889  -49.2570 N.am      15 UNK        -0.5000 
     85 CA          0.0961  -24.2694  -50.6172 C.3       15 UNK         0.1400 
     86 CB         -0.5069  -23.2646  -51.6136 C.3       15 UNK        -0.1800 
     87 C          -0.4734  -25.6776  -50.8744 C.2       15 UNK         0.5000 
     88 O          -0.2615  -26.2082  -51.9638 O.2       15 UNK        -0.5000 
     89 N          -1.2100  -26.2442  -49.9056 N.am      16 UNK        -0.5000 
     90 CA         -1.9130  -27.5319  -49.9707 C.3       16 UNK         0.1400 
     91 CB         -0.9076  -28.7017  -49.9947 C.3       16 UNK        -0.1800 
     92 C          -2.9302  -27.5773  -51.1320 C.2       16 UNK         0.5000 
     93 O          -2.9097  -28.4950  -51.9537 O.2       16 UNK        -0.5000 
     94 N          -3.7770  -26.5405  -51.1825 N.am      17 UNK        -0.5000 
     95 CA         -4.8455  -26.2709  -52.1497 C.3       17 UNK         0.1400 
     96 CB         -5.9002  -27.3962  -52.1376 C.3       17 UNK        -0.1800 
     97 C          -4.3749  -25.9299  -53.5811 C.2       17 UNK         0.5000 
     98 O          -5.2236  -25.7591  -54.4572 O.2       17 UNK        -0.5000 
     99 N          -3.0584  -25.8076  -53.8114 N.am      18 UNK        -0.5000 
    100 CA        -2.4830  -25.5022  -55.1264 C.3       18 UNK         0.1400 
    101 CB        -0.9869  -25.8475  -55.1249 C.3       18 UNK        -0.1800 
    102 C         -2.6943  -24.0404  -55.5674 C.2       18 UNK         0.5000 
    103 O         -2.7563  -23.7793  -56.7697 O.2       18 UNK        -0.5000 
    104 N         -2.7973  -23.1240  -54.5960 N.am      19 UNK        -0.5000 
    105 CA        -3.0719  -21.7046  -54.8092 C.3       19 UNK         0.1400 
    106 CB        -2.0396  -20.8585  -54.0389 C.3       19 UNK        -0.1800 
    107 C         -4.5187  -21.4188  -54.3803 C.2       19 UNK         0.5000 
    108 O         -5.4032  -21.3514  -55.2333 O.2       19 UNK        -0.5000 
    109 N         -4.7287  -21.2897  -53.0612 N.am      20 UNK        -0.5000 
    110 CA        -6.0197  -21.1318  -52.3790 C.3       20 UNK         0.1400 
    111 CB        -6.8772  -22.4057  -52.5291 C.3       20 UNK        -0.1800 
    112 C         -6.7956  -19.8427  -52.7210 C.2       20 UNK         0.5000 
    113 O         -8.0148  -19.7997  -52.5506 O.2       20 UNK        -0.5000 
    114 N         -6.0775  -18.7947  -53.1487 N.am      21 UNK        -0.5000 
    115 CA        -6.6330  -17.4548  -53.3679 C.3       21 UNK         0.1400 
    116 CB        -5.6582  -16.6406  -54.2331 C.3       21 UNK        -0.1800 
    117 C         -6.9489  -16.7192  -52.0476 C.2       21 UNK         0.5000 
    118 O         -7.8212  -15.8508  -52.0287 O.2       21 UNK        -0.5000 
    119 N         -6.2360  -17.0901  -50.9783 N.am      22 UNK        -0.5000 
    120 CA        -6.4454  -16.6588  -49.5939 C.3       22 UNK         0.1400 
    121 C         -6.6402  -17.9362  -48.7381 C.2       22 UNK         0.5000 
    122 N         -7.7153  -18.0266  -47.9695 N.am      22 UNK        -0.7600 
    123 O         -5.8112  -18.8444  -48.7593 O.2       22 UNK        -0.5000 
    124 C124       -5.2519  -15.8191  -49.0631 C.3       23 UNK        -0.0398 
    125 S125       -5.2561  -14.0807  -49.6304 S.3       23 UNK        -0.2404 
    126 C126       -4.4195  -14.1142  -51.2514 C.3       23 UNK        -0.0205 
    127 H127        3.2382  -18.6024  -48.5913 H         1 UNK         0.0600 
    128 H128        2.0299  -17.6418  -49.4497 H         1 UNK         0.0600 
    129 H129        1.6256  -18.3909  -47.9043 H         1 UNK         0.0600 
    130 H130        2.3087  -15.4401  -49.2224 H         1 UNK         0.3000 
    131 H131        2.6279  -14.1460  -46.7421 H         1 UNK         0.0600 
    132 H132        2.7009  -12.0447  -48.0260 H         1 UNK         0.0800 
    133 H133        2.9967  -12.9046  -49.5110 H         1 UNK         0.0800 
    134 H134        1.4649  -13.7995  -50.9520 H         1 UNK         0.0800 
    135 H135        0.4064  -12.4141  -51.0365 H         1 UNK         0.0800 
    136 H136       -2.1116  -12.7603  -50.6823 H         1 UNK         0.1150 
    137 H137       -3.5737  -16.6578  -51.6987 H         1 UNK         0.1150 
    138 H138        0.6182  -16.0447  -51.1025 H         1 UNK         0.1150 
    139 H139       -2.0672  -18.4429  -52.1690 H         1 UNK         0.0800 
    140 H140       -0.3732  -18.0866  -52.4032 H         1 UNK         0.0800 
    141 H141       -3.1924  -18.5775  -49.8602 H         1 UNK         0.0800 
    142 H142       -2.2382  -17.7088  -48.6818 H         1 UNK         0.0800 
    143 H143       -1.5398  -20.0317  -47.7579 H         1 UNK         0.0600 
    144 H144       -3.8904  -18.5579  -47.1357 H         1 UNK         0.3000 
    145 H145       -5.4099  -19.5078  -45.2904 H         1 UNK         0.0600 
    146 H146       -5.1802  -20.0295  -42.8513 H         1 UNK         0.0600 
    147 H147       -4.9052  -21.4416  -43.8593 H         1 UNK         0.0600 
    148 H148       -3.5391  -20.6089  -43.1292 H         1 UNK         0.0600 
    149 H149       -3.1525  -18.2069  -43.8268 H         1 UNK         0.3000 
    150 H150       -4.3413  -14.9459  -44.8304 H         1 UNK         0.0600 
    151 H151       -5.3035  -15.6188  -42.6165 H         1 UNK         0.0600 
    152 H152       -3.8650  -14.6266  -42.4301 H         1 UNK         0.0600 
    153 H153       -3.7723  -16.3672  -42.1750 H         1 UNK         0.0600 
    154 H154       -1.8880  -15.7305  -43.6311 H         1 UNK         0.3000 
    155 H155        0.0666  -15.7716  -46.6489 H         1 UNK         0.0600 
    156 H156       -0.2728  -13.9485  -44.2051 H         1 UNK         0.0600 
    157 H157        0.0148  -13.4713  -45.8650 H         1 UNK         0.0600 
    158 H158        1.2842  -14.2741  -44.9452 H         1 UNK         0.0600 
    159 H159        0.7420  -16.3924  -43.9524 H         1 UNK         0.3000 
    160 H160       -0.0144  -19.8639  -44.0265 H         1 UNK         0.0600 
    161 H161        2.7089  -18.4608  -44.0479 H         1 UNK         0.0600 
    162 H162        2.2234  -19.7572  -45.1279 H         1 UNK         0.0600 
    163 H163        2.3821  -20.0707  -43.4048 H         1 UNK         0.0600 
    164 H164        1.2104  -18.0328  -42.1412 H         1 UNK         0.3000 
    165 H165       -1.8273  -17.2298  -40.4298 H         1 UNK         0.0600 
    166 H166       -0.5259  -18.1422  -38.5289 H         1 UNK         0.0600 
    167 H167       -1.1143  -19.4541  -39.5375 H         1 UNK         0.0600 
    168 H168        0.5737  -18.9664  -39.6345 H         1 UNK         0.0600 
    169 H169        0.9137  -16.5363  -39.9728 H         1 UNK         0.3000 
    170 H170        1.0902  -13.7320  -42.1242 H         1 UNK         0.0600 
    171 H171       -0.1642  -12.7885  -40.1774 H         1 UNK         0.0600 
    172 H172        0.8129  -13.7460  -39.0709 H         1 UNK         0.0600 
    173 H173        1.5583  -12.4757  -40.0422 H         1 UNK         0.0600 
    174 H174        2.8968  -14.6092  -40.1488 H         1 UNK         0.3000 
    175 H175        4.9333  -15.4928  -40.9688 H         1 UNK         0.0600 
    176 H176        3.5618  -18.2369  -40.7550 H         1 UNK         0.0600 
    177 H177        5.1013  -17.7995  -40.0151 H         1 UNK         0.0600 
    178 H178        3.6214  -17.0253  -39.4803 H         1 UNK         0.0600 
    179 H179        5.1718  -17.8694  -42.5584 H         1 UNK         0.3000 
    180 H180        7.4514  -16.9931  -44.2969 H         1 UNK         0.0600 
    181 H181        6.4639  -18.9259  -45.5593 H         1 UNK         0.0600 
    182 H182        4.8611  -18.4670  -45.0043 H         1 UNK         0.0600 
    183 H183        6.0880  -18.9963  -43.8519 H         1 UNK         0.0600 
    184 H184        5.3698  -16.3504  -46.3325 H         1 UNK         0.3000 
    185 H185        7.2866  -13.8610  -47.8159 H         1 UNK         0.0600 
    186 H186        7.1870  -16.6654  -49.0550 H         1 UNK         0.0600 
    187 H187        7.3685  -15.1510  -49.9422 H         1 UNK         0.0600 
    188 H188        8.6347  -15.6869  -48.8498 H         1 UNK         0.0600 
    189 H189        5.0570  -15.5172  -48.6888 H         1 UNK         0.3000 
    190 H190       -4.9436  -20.6273  -48.4199 H         1 UNK         0.3000 
    191 H191       -4.7894  -22.8127  -50.1762 H         1 UNK         0.0600 
    192 H192       -6.7040  -22.4087  -47.8087 H         1 UNK         0.0600 
    193 H193       -6.9851  -23.4499  -49.1992 H         1 UNK         0.0600 
    194 H194       -6.9222  -21.7063  -49.4050 H         1 UNK         0.0600 
    195 H195       -4.2118  -22.7538  -46.6459 H         1 UNK         0.3000 
    196 H196       -3.8829  -25.6544  -46.4591 H         1 UNK         0.0600 
    197 H197       -3.2959  -25.1731  -44.1107 H         1 UNK         0.0600 
    198 H198       -4.7871  -24.3488  -44.5385 H         1 UNK         0.0600 
    199 H199       -3.2785  -23.4446  -44.4228 H         1 UNK         0.0600 
    200 H200       -1.7892  -22.7378  -46.4625 H         1 UNK         0.3000 
    201 H201        0.6691  -24.0456  -46.0556 H         1 UNK         0.0600 
    202 H202        0.2222  -21.5684  -45.7854 H         1 UNK         0.0600 
    203 H203        0.2216  -21.4073  -47.5412 H         1 UNK         0.0600 
    204 H204        1.6780  -21.9171  -46.7069 H         1 UNK         0.0600 
    205 H205       -0.9573  -23.1772  -49.1406 H         1 UNK         0.3000 
    206 H206        1.1730  -24.3132  -50.7917 H         1 UNK         0.0600 
    207 H207       -0.1429  -22.2540  -51.4260 H         1 UNK         0.0600 
    208 H208       -0.2399  -23.5184  -52.6398 H         1 UNK         0.0600 
    209 H209       -1.5953  -23.2445  -51.5520 H         1 UNK         0.0600 
    210 H210       -1.3254  -25.7282  -49.0437 H         1 UNK         0.3000 
    211 H211       -2.4921  -27.6133  -49.0495 H         1 UNK         0.0600 
    212 H212       -0.3084  -28.7059  -50.9057 H         1 UNK         0.0600 
    213 H213       -1.4244  -29.6604  -49.9393 H         1 UNK         0.0600 
    214 H214       -0.2261  -28.6507  -49.1456 H         1 UNK         0.0600 
    215 H215       -3.7298  -25.8705  -50.4156 H         1 UNK         0.3000 
    216 H216       -5.3364  -25.3704  -51.7811 H         1 UNK         0.0600 
    217 H217       -6.7768  -27.1183  -52.7238 H         1 UNK         0.0600 
    218 H218       -6.2437  -27.6037  -51.1241 H         1 UNK         0.0600 
    219 H219       -5.5102  -28.3235  -52.5576 H         1 UNK         0.0600 
    220 H220       -2.4082  -26.0020  -53.0615 H         1 UNK         0.3000 
    221 H221       -2.9711  -26.1419  -55.8649 H         1 UNK         0.0600 
    222 H222       -0.4249  -25.2027  -54.4492 H         1 UNK         0.0600 
    223 H223       -0.8185  -26.8810  -54.8214 H         1 UNK         0.0600 
    224 H224       -0.5588  -25.7268  -56.1208 H         1 UNK         0.0600 
    225 H225       -2.7742  -23.4472  -53.6412 H         1 UNK         0.3000 
    226 H226       -2.9861  -21.4463  -55.8668 H         1 UNK         0.0600 
    227 H227       -1.0326  -21.0435  -54.4133 H         1 UNK         0.0600 
    228 H228       -2.2388  -19.7945  -54.1695 H         1 UNK         0.0600 
    229 H229       -2.0319  -21.0693  -52.9693 H         1 UNK         0.0600 
    230 H230       -3.9235  -21.3381  -52.4540 H         1 UNK         0.3000 
    231 H231       -5.7749  -21.0208  -51.3245 H         1 UNK         0.0600 
    232 H232       -6.3191  -23.2925  -52.2343 H         1 UNK         0.0600 
    233 H233       -7.2127  -22.5484  -53.5567 H         1 UNK         0.0600 
    234 H234       -7.7656  -22.3613  -51.8982 H         1 UNK         0.0600 
    235 H235       -5.0878  -18.9144  -53.3018 H         1 UNK         0.3000 
    236 H236       -7.5704  -17.5532  -53.9197 H         1 UNK         0.0600 
    237 H237       -6.0386  -15.6333  -54.4079 H         1 UNK         0.0600 
    238 H238       -4.6787  -16.5446  -53.7658 H         1 UNK         0.0600 
    239 H239       -5.5177  -17.1065  -55.2086 H         1 UNK         0.0600 
    240 H240       -5.6002  -17.8662  -51.0806 H         1 UNK         0.3000 
    241 H241       -7.3550  -16.0594  -49.5205 H         1 UNK         0.0600 
    242 H242       -7.8402  -18.8484  -47.4014 H         1 UNK         0.3800 
    243 H243       -8.4002  -17.2885  -47.9263 H         1 UNK         0.3800 
    244 H244       -5.2924  -15.7661  -47.9737 H         1 UNK         0.0800 
    245 H245       -4.2975  -16.2938  -49.2845 H         1 UNK         0.0800 
    246 H246       -5.0120  -14.6885  -51.9606 H         1 UNK         0.0800 
    247 H247       -4.4010  -13.0976  -51.6465 H         1 UNK         0.0800 
@<TRIPOS>BOND
     1    1    2 1    
     2    1  127 1    
     3    1  128 1    
     4    1  129 1    
     5    2    3 2    
     6    2    4 am   BACKBONE|DICT|INTERRES
     7    4    5 1    
     8    4  130 1    
     9    5    6 1    
    10    5   65 1    
    11    5  131 1    
    12    6    7 1    
    13    6  132 1    
    14    6  133 1    
    15    7    8 1    
    16    8    9 1    
    17    8  134 1    
    18    8  135 1    
    19    9   10 ar   
    20    9   14 ar   
    21   10   11 ar   
    22   10  136 1    
    23   11   12 ar   
    24   11  126 1    
    25   12   13 ar   
    26   12  137 1    
    27   13   14 ar   
    28   13   15 1    
    29   14  138 1    
    30   15   16 1    
    31   15  139 1    
    32   15  140 1    
    33   16   17 1    
    34   17   18 1    
    35   17  141 1    
    36   17  142 1    
    37   18   19 1    
    38   18   67 1    
    39   18  143 1    
    40   19   20 am   BACKBONE|DICT|INTERRES
    41   19  144 1    
    42   20   21 2    
    43   20   22 1    
    44   22   23 1    
    45   22   24 1    
    46   22  145 1    
    47   23  146 1    
    48   23  147 1    
    49   23  148 1    
    50   24   25 am   BACKBONE|DICT|INTERRES
    51   24  149 1    
    52   25   26 2    
    53   25   27 1    
    54   27   28 1    
    55   27   29 1    
    56   27  150 1    
    57   28  151 1    
    58   28  152 1    
    59   28  153 1    
    60   29   30 am   BACKBONE|DICT|INTERRES
    61   29  154 1    
    62   30   31 2    
    63   30   32 1    
    64   32   33 1    
    65   32   34 1    
    66   32  155 1    
    67   33  156 1    
    68   33  157 1    
    69   33  158 1    
    70   34   35 am   BACKBONE|DICT|INTERRES
    71   34  159 1    
    72   35   36 2    
    73   35   37 1    
    74   37   38 1    
    75   37   39 1    
    76   37  160 1    
    77   38  161 1    
    78   38  162 1    
    79   38  163 1    
    80   39   40 am   BACKBONE|DICT|INTERRES
    81   39  164 1    
    82   40   41 2    
    83   40   42 1    
    84   42   43 1    
    85   42   44 1    
    86   42  165 1    
    87   43  166 1    
    88   43  167 1    
    89   43  168 1    
    90   44   45 am   BACKBONE|DICT|INTERRES
    91   44  169 1    
    92   45   46 2    
    93   45   47 1    
    94   47   48 1    
    95   47   49 1    
    96   47  170 1    
    97   48  171 1    
    98   48  172 1    
    99   48  173 1    
   100   49   50 am   BACKBONE|DICT|INTERRES
   101   49  174 1    
   102   50   51 2    
   103   50   52 1    
   104   52   53 1    
   105   52   54 1    
   106   52  175 1    
   107   53  176 1    
   108   53  177 1    
   109   53  178 1    
   110   54   55 am   BACKBONE|DICT|INTERRES
   111   54  179 1    
   112   55   56 2    
   113   55   57 1    
   114   57   58 1    
   115   57   59 1    
   116   57  180 1    
   117   58  181 1    
   118   58  182 1    
   119   58  183 1    
   120   59   60 am   BACKBONE|DICT|INTERRES
   121   59  184 1    
   122   60   61 2    
   123   60   62 1    
   124   62   63 1    
   125   62   64 1    
   126   62  185 1    
   127   63  186 1    
   128   63  187 1    
   129   63  188 1    
   130   64   65 am   BACKBONE|DICT|INTERRES
   131   64  189 1    
   132   65   66 2    
   133   67   68 2    
   134   67   69 am   BACKBONE|DICT|INTERRES
   135   69   70 1    
   136   69  190 1    
   137   70   71 1    
   138   70   72 1    
   139   70  191 1    
   140   71  192 1    
   141   71  193 1    
   142   71  194 1    
   143   72   73 2    
   144   72   74 am   BACKBONE|DICT|INTERRES
   145   74   75 1    
   146   74  195 1    
   147   75   76 1    
   148   75   77 1    
   149   75  196 1    
   150   76  197 1    
   151   76  198 1    
   152   76  199 1    
   153   77   78 2    
   154   77   79 am   BACKBONE|DICT|INTERRES
   155   79   80 1    
   156   79  200 1    
   157   80   81 1    
   158   80   82 1    
   159   80  201 1    
   160   81  202 1    
   161   81  203 1    
   162   81  204 1    
   163   82   83 2    
   164   82   84 am   BACKBONE|DICT|INTERRES
   165   84   85 1    
   166   84  205 1    
   167   85   86 1    
   168   85   87 1    
   169   85  206 1    
   170   86  207 1    
   171   86  208 1    
   172   86  209 1    
   173   87   88 2    
   174   87   89 am   BACKBONE|DICT|INTERRES
   175   89   90 1    
   176   89  210 1    
   177   90   91 1    
   178   90   92 1    
   179   90  211 1    
   180   91  212 1    
   181   91  213 1    
   182   91  214 1    
   183   92   93 2    
   184   92   94 am   BACKBONE|DICT|INTERRES
   185   94   95 1    
   186   94  215 1    
   187   95   96 1    
   188   95   97 1    
   189   95  216 1    
   190   96  217 1    
   191   96  218 1    
   192   96  219 1    
   193   97   98 2    
   194   97   99 am   BACKBONE|DICT|INTERRES
   195   99  100 1    
   196   99  220 1    
   197  100  101 1    
   198  100  102 1    
   199  100  221 1    
   200  101  222 1    
   201  101  223 1    
   202  101  224 1    
   203  102  103 2    
   204  102  104 am   BACKBONE|DICT|INTERRES
   205  104  105 1    
   206  104  225 1    
   207  105  106 1    
   208  105  107 1    
   209  105  226 1    
   210  106  227 1    
   211  106  228 1    
   212  106  229 1    
   213  107  108 2    
   214  107  109 am   BACKBONE|DICT|INTERRES
   215  109  110 1    
   216  109  230 1    
   217  110  111 1    
   218  110  112 1    
   219  110  231 1    
   220  111  232 1    
   221  111  233 1    
   222  111  234 1    
   223  112  113 2    
   224  112  114 am   BACKBONE|DICT|INTERRES
   225  114  115 1    
   226  114  235 1    
   227  115  116 1    
   228  115  117 1    
   229  115  236 1    
   230  116  237 1    
   231  116  238 1    
   232  116  239 1    
   233  117  118 2    
   234  117  119 am   BACKBONE|DICT|INTERRES
   235  119  120 1    
   236  119  240 1    
   237  120  121 1    
   238  120  124 1    
   239  120  241 1    
   240  121  122 am   BACKBONE|DICT|INTERRES
   241  121  123 2    
   242  122  242 1    
   243  122  243 1    
   244  124  125 1    
   245  124  244 1    
   246  124  245 1    
   247  125  126 1    
   248  126  246 1    
   249  126  247 1    
@<TRIPOS>SUBSTRUCTURE
     1 UNK         1 GROUP             0       ****    0 ROOT    
