@<TRIPOS>MOLECULE
3R540
247   249    1
SMALL
USER_CHARGES


@<TRIPOS>ATOM
      1 CA         -0.3597  -11.3747  -53.1434 C.3       0 UNK        -0.1800 
      2 C           0.0206  -11.8846  -51.7604 C.2       0 UNK         0.5000 
      3 O          -0.0633  -11.1370  -50.7861 O.2       0 UNK        -0.5000 
      4 N           0.4301  -13.1550  -51.6700 N.am      1 UNK        -0.5000 
      5 CA          0.7544  -13.8436  -50.4211 C.3       1 UNK         0.1400 
      6 C6          1.8149  -14.9477  -50.6573 C.3       23 UNK        -0.0398 
      7 S7          2.7557  -15.3650  -49.1500 S.3       23 UNK        -0.2404 
      8 C8          1.7879  -16.7220  -48.4183 C.3       23 UNK        -0.0205 
      9 C9          1.9192  -18.0288  -49.1818 C.ar      23 UNK        -0.0193 
     10 C10         1.0329  -18.3372  -50.2165 C.ar      23 UNK        -0.1150 
     11 C11         1.1795  -19.5155  -50.9509 C.ar      23 UNK        -0.0193 
     12 C12         2.1740  -20.4297  -50.5894 C.ar      23 UNK        -0.1150 
     13 C13         3.0377  -20.1554  -49.5238 C.ar      23 UNK        -0.0193 
     14 C14         2.9185  -18.9425  -48.8388 C.ar      23 UNK        -0.1150 
     15 C15         4.1079  -21.1628  -49.1228 C.3       23 UNK        -0.0205 
     16 S16         3.9603  -21.6867  -47.3824 S.3       23 UNK        -0.2404 
     17 C17         2.2512  -22.3207  -47.3298 C.3       23 UNK        -0.0398 
     18 CA          2.0771  -23.4578  -46.2962 C.3       11 UNK         0.1400 
     19 N           2.3327  -22.9933  -44.9335 N.am      11 UNK        -0.5000 
     20 C           2.7826  -23.7477  -43.9254 C.2       10 UNK         0.5000 
     21 O           3.0881  -24.9358  -44.0477 O.2       10 UNK        -0.5000 
     22 CA          2.9033  -23.0459  -42.5545 C.3       10 UNK         0.1400 
     23 CB          3.7530  -23.8319  -41.5343 C.3       10 UNK        -0.1800 
     24 N           3.3598  -21.6567  -42.6670 N.am      10 UNK        -0.5000 
     25 C           4.5385  -21.2053  -43.1211 C.2       9 UNK         0.5000 
     26 O           5.4781  -21.9345  -43.4406 O.2       9 UNK        -0.5000 
     27 CA          4.6996  -19.6749  -43.2520 C.3       9 UNK         0.1400 
     28 CB          4.6685  -19.2555  -44.7300 C.3       9 UNK        -0.1800 
     29 N           3.6782  -18.9111  -42.5317 N.am      9 UNK        -0.5000 
     30 C           3.6353  -18.7384  -41.2040 C.2       8 UNK         0.5000 
     31 O           4.4930  -19.1652  -40.4303 O.2       8 UNK        -0.5000 
     32 CA          2.4075  -17.9918  -40.6452 C.3       8 UNK         0.1400 
     33 CB          2.6075  -16.4704  -40.7189 C.3       8 UNK        -0.1800 
     34 N           1.1644  -18.3559  -41.3298 N.am      8 UNK        -0.5000 
     35 C           0.5998  -19.5710  -41.2777 C.2       7 UNK         0.5000 
     36 O           1.0435  -20.5044  -40.6091 O.2       7 UNK        -0.5000 
     37 CA         -0.6421  -19.7998  -42.1554 C.3       7 UNK         0.1400 
     38 CB         -1.9066  -19.2624  -41.4686 C.3       7 UNK        -0.1800 
     39 N          -0.5087  -19.2018  -43.4839 N.am      7 UNK        -0.5000 
     40 C           0.3834  -19.5873  -44.4079 C.2       6 UNK         0.5000 
     41 O           1.1650  -20.5227  -44.2559 O.2       6 UNK        -0.5000 
     42 CA          0.4491  -18.7605  -45.7016 C.3       6 UNK         0.1400 
     43 CB         -0.6258  -19.2199  -46.6992 C.3       6 UNK        -0.1800 
     44 N           0.3236  -17.3257  -45.4411 N.am      6 UNK        -0.5000 
     45 C           1.1894  -16.6094  -44.7072 C.2       5 UNK         0.5000 
     46 O           2.2197  -17.0731  -44.2219 O.2       5 UNK        -0.5000 
     47 CA          0.8146  -15.1466  -44.4217 C.3       5 UNK         0.1400 
     48 CB          1.2616  -14.2222  -45.5656 C.3       5 UNK        -0.1800 
     49 N          -0.6222  -15.0037  -44.1886 N.am      5 UNK        -0.5000 
     50 C          -1.2469  -15.4332  -43.0824 C.2       4 UNK         0.5000 
     51 O          -0.6602  -15.9244  -42.1175 O.2       4 UNK        -0.5000 
     52 CA         -2.7850  -15.3363  -43.0717 C.3       4 UNK         0.1400 
     53 CB         -3.2353  -13.9391  -42.6202 C.3       4 UNK        -0.1800 
     54 N          -3.3769  -15.6371  -44.3774 N.am      4 UNK        -0.5000 
     55 C          -3.3704  -16.8495  -44.9499 C.2       3 UNK         0.5000 
     56 O          -2.9281  -17.8566  -44.3996 O.2       3 UNK        -0.5000 
     57 CA         -3.8938  -16.9450  -46.3988 C.3       3 UNK         0.1400 
     58 CB         -5.3845  -17.3111  -46.4151 C.3       3 UNK        -0.1800 
     59 N          -3.6788  -15.7281  -47.1917 N.am      3 UNK        -0.5000 
     60 C          -2.4759  -15.2014  -47.4589 C.2       2 UNK         0.5000 
     61 O          -1.4237  -15.6709  -47.0240 O.2       2 UNK        -0.5000 
     62 CA         -2.4617  -13.9021  -48.2876 C.3       2 UNK         0.1400 
     63 CB         -2.8413  -12.7080  -47.3977 C.3       2 UNK        -0.1800 
     64 N          -1.1678  -13.6152  -48.9135 N.am      2 UNK        -0.5000 
     65 C          -0.5597  -14.3849  -49.8243 C.2       1 UNK         0.5000 
     66 O          -1.0358  -15.4384  -50.2497 O.2       1 UNK        -0.5000 
     67 C           0.6550  -24.0435  -46.3850 C.2       11 UNK         0.5000 
     68 O          -0.2494  -23.5853  -45.6814 O.2       11 UNK        -0.5000 
     69 N           0.4697  -25.0168  -47.2888 N.am      12 UNK        -0.5000 
     70 CA         -0.7887  -25.7396  -47.5105 C.3       12 UNK         0.1400 
     71 CB         -0.5632  -26.8385  -48.5592 C.3       12 UNK        -0.1800 
     72 C          -1.9757  -24.8479  -47.9213 C.2       12 UNK         0.5000 
     73 O          -3.1158  -25.1784  -47.5946 O.2       12 UNK        -0.5000 
     74 N          -1.6905  -23.7121  -48.5763 N.am      13 UNK        -0.5000 
     75 CA         -2.6609  -22.6949  -48.9984 C.3       13 UNK         0.1400 
     76 CB         -1.9302  -21.6079  -49.8032 C.3       13 UNK        -0.1800 
     77 C          -3.4736  -22.0639  -47.8472 C.2       13 UNK         0.5000 
     78 O          -4.5327  -21.4927  -48.1013 O.2       13 UNK        -0.5000 
     79 N          -2.9963  -22.2015  -46.6021 N.am      14 UNK        -0.5000 
     80 CA         -3.7252  -21.8229  -45.3924 C.3       14 UNK         0.1400 
     81 CB         -2.7702  -21.9246  -44.1984 C.3       14 UNK        -0.1800 
     82 C          -4.9663  -22.7005  -45.1341 C.2       14 UNK         0.5000 
     83 O          -5.9511  -22.2050  -44.5859 O.2       14 UNK        -0.5000 
     84 N          -4.8884  -23.9828  -45.5163 N.am      15 UNK        -0.5000 
     85 CA         -5.9313  -24.9858  -45.3013 C.3       15 UNK         0.1400 
     86 CB         -5.2905  -26.2493  -44.7054 C.3       15 UNK        -0.1800 
     87 C          -6.6635  -25.3248  -46.6084 C.2       15 UNK         0.5000 
     88 O          -7.8858  -25.4725  -46.5995 O.2       15 UNK        -0.5000 
     89 N          -5.9093  -25.4365  -47.7097 N.am      16 UNK        -0.5000 
     90 CA         -6.4146  -25.7756  -49.0411 C.3       16 UNK         0.1400 
     91 CB         -5.2462  -26.3140  -49.8831 C.3       16 UNK        -0.1800 
     92 C          -7.0924  -24.5945  -49.7627 C.2       16 UNK         0.5000 
     93 O          -7.7552  -24.8185  -50.7768 O.2       16 UNK        -0.5000 
     94 N          -6.8994  -23.3723  -49.2440 N.am      17 UNK        -0.5000 
     95 CA         -7.2704  -22.0856  -49.8388 C.3       17 UNK         0.1400 
     96 CB         -8.8012  -21.9676  -50.0180 C.3       17 UNK        -0.1800 
     97 C          -6.4643  -21.8029  -51.1262 C.2       17 UNK         0.5000 
     98 O          -5.3837  -22.3695  -51.3084 O.2       17 UNK        -0.5000 
     99 N          -6.9880  -20.9101  -51.9797 N.am      18 UNK        -0.5000 
    100 CA        -6.3889  -20.4469  -53.2378 C.3       18 UNK         0.1400 
    101 CB        -6.3524  -21.5840  -54.2813 C.3       18 UNK        -0.1800 
    102 C         -5.0169  -19.7714  -53.0266 C.2       18 UNK         0.5000 
    103 O         -4.0609  -20.0687  -53.7449 O.2       18 UNK        -0.5000 
    104 N         -4.9587  -18.8818  -52.0265 N.am      19 UNK        -0.5000 
    105 CA        -3.8172  -18.0209  -51.7154 C.3       19 UNK         0.1400 
    106 CB        -3.8188  -17.7456  -50.1984 C.3       19 UNK        -0.1800 
    107 C         -3.8535  -16.7283  -52.5650 C.2       19 UNK         0.5000 
    108 O         -4.5382  -16.6866  -53.5894 O.2       19 UNK        -0.5000 
    109 N         -3.1152  -15.6962  -52.1315 N.am      20 UNK        -0.5000 
    110 CA        -2.8590  -14.4272  -52.8190 C.3       20 UNK         0.1400 
    111 CB        -4.1535  -13.6404  -53.1250 C.3       20 UNK        -0.1800 
    112 C         -1.9484  -14.6787  -54.0320 C.2       20 UNK         0.5000 
    113 O         -0.7486  -14.8895  -53.8437 O.2       20 UNK        -0.5000 
    114 N         -2.5246  -14.6936  -55.2379 N.am      21 UNK        -0.5000 
    115 CA        -1.8973  -15.2377  -56.4375 C.3       21 UNK         0.1400 
    116 CB        -2.4865  -14.5377  -57.6746 C.3       21 UNK        -0.1800 
    117 C         -2.1578  -16.7539  -56.4355 C.2       21 UNK         0.5000 
    118 O         -3.2185  -17.1822  -56.8938 O.2       21 UNK        -0.5000 
    119 N         -1.2252  -17.5035  -55.8312 N.am      22 UNK        -0.5000 
    120 CA        -1.3268  -18.9301  -55.4768 C.3       22 UNK         0.1400 
    121 C         -1.8811  -19.8525  -56.5989 C.2       22 UNK         0.5000 
    122 N         -2.9165  -20.6268  -56.3074 N.am      22 UNK        -0.7600 
    123 O         -1.3474  -19.9031  -57.7050 O.2       22 UNK        -0.5000 
    124 C124        0.0228  -19.4929  -54.9663 C.3       23 UNK        -0.0398 
    125 S125        0.6720  -18.6143  -53.5053 S.3       23 UNK        -0.2404 
    126 C126        0.2864  -19.7775  -52.1540 C.3       23 UNK        -0.0205 
    127 H127       -0.0909  -12.0856  -53.9252 H         1 UNK         0.0600 
    128 H128        0.1527  -10.4355  -53.3518 H         1 UNK         0.0600 
    129 H129       -1.4339  -11.1978  -53.1960 H         1 UNK         0.0600 
    130 H130        0.3958  -13.7456  -52.4947 H         1 UNK         0.3000 
    131 H131        1.1804  -13.1178  -49.7246 H         1 UNK         0.0600 
    132 H132        1.3948  -15.8330  -51.1313 H         1 UNK         0.0800 
    133 H133        2.5571  -14.5810  -51.3678 H         1 UNK         0.0800 
    134 H134        0.7400  -16.4410  -48.3245 H         1 UNK         0.0800 
    135 H135        2.1572  -16.8661  -47.4045 H         1 UNK         0.0800 
    136 H136        0.2474  -17.6450  -50.4810 H         1 UNK         0.1150 
    137 H137        2.2829  -21.3503  -51.1453 H         1 UNK         0.1150 
    138 H138        3.5975  -18.7176  -48.0280 H         1 UNK         0.1150 
    139 H139        4.0709  -22.0464  -49.7617 H         1 UNK         0.0800 
    140 H140        5.0904  -20.7142  -49.2743 H         1 UNK         0.0800 
    141 H141        1.9844  -22.6705  -48.3287 H         1 UNK         0.0800 
    142 H142        1.5853  -21.4863  -47.1063 H         1 UNK         0.0800 
    143 H143        2.7880  -24.2510  -46.5378 H         1 UNK         0.0600 
    144 H144        2.0238  -22.0465  -44.7213 H         1 UNK         0.3000 
    145 H145        1.8882  -22.9913  -42.1586 H         1 UNK         0.0600 
    146 H146        3.8075  -23.3068  -40.5807 H         1 UNK         0.0600 
    147 H147        3.3185  -24.8130  -41.3394 H         1 UNK         0.0600 
    148 H148        4.7713  -23.9917  -41.8893 H         1 UNK         0.0600 
    149 H149        2.6497  -20.9606  -42.4818 H         1 UNK         0.3000 
    150 H150        5.6781  -19.4131  -42.8444 H         1 UNK         0.0600 
    151 H151        5.4376  -19.7750  -45.3027 H         1 UNK         0.0600 
    152 H152        4.8464  -18.1859  -44.8420 H         1 UNK         0.0600 
    153 H153        3.7062  -19.4836  -45.1894 H         1 UNK         0.0600 
    154 H154        2.9707  -18.4565  -43.1028 H         1 UNK         0.3000 
    155 H155        2.3023  -18.2674  -39.5938 H         1 UNK         0.0600 
    156 H156        3.5000  -16.1681  -40.1698 H         1 UNK         0.0600 
    157 H157        1.7609  -15.9398  -40.2827 H         1 UNK         0.0600 
    158 H158        2.7233  -16.1264  -41.7465 H         1 UNK         0.0600 
    159 H159        0.7152  -17.6330  -41.8793 H         1 UNK         0.3000 
    160 H160       -0.7573  -20.8778  -42.2831 H         1 UNK         0.0600 
    161 H161       -1.8506  -18.1870  -41.3014 H         1 UNK         0.0600 
    162 H162       -2.0547  -19.7378  -40.4984 H         1 UNK         0.0600 
    163 H163       -2.7964  -19.4586  -42.0665 H         1 UNK         0.0600 
    164 H164       -1.1730  -18.4728  -43.7242 H         1 UNK         0.3000 
    165 H165        1.4271  -18.9299  -46.1558 H         1 UNK         0.0600 
    166 H166       -0.6279  -18.6055  -47.5996 H         1 UNK         0.0600 
    167 H167       -0.4510  -20.2506  -47.0066 H         1 UNK         0.0600 
    168 H168       -1.6233  -19.1855  -46.2649 H         1 UNK         0.0600 
    169 H169       -0.4666  -16.8437  -45.8604 H         1 UNK         0.3000 
    170 H170        1.3421  -14.8375  -43.5168 H         1 UNK         0.0600 
    171 H171        2.3400  -14.2866  -45.7154 H         1 UNK         0.0600 
    172 H172        0.7895  -14.4790  -46.5130 H         1 UNK         0.0600 
    173 H173        1.0255  -13.1811  -45.3459 H         1 UNK         0.0600 
    174 H174       -1.1753  -14.6890  -44.9726 H         1 UNK         0.3000 
    175 H175       -3.1592  -16.0660  -42.3503 H         1 UNK         0.0600 
    176 H176       -2.8224  -13.6943  -41.6406 H         1 UNK         0.0600 
    177 H177       -2.9105  -13.1649  -43.3165 H         1 UNK         0.0600 
    178 H178       -4.3208  -13.8827  -42.5372 H         1 UNK         0.0600 
    179 H179       -3.7678  -14.8631  -44.8931 H         1 UNK         0.3000 
    180 H180       -3.3483  -17.7519  -46.8908 H         1 UNK         0.0600 
    181 H181       -5.5662  -18.2298  -45.8552 H         1 UNK         0.0600 
    182 H182       -5.9973  -16.5268  -45.9693 H         1 UNK         0.0600 
    183 H183       -5.7382  -17.4793  -47.4325 H         1 UNK         0.0600 
    184 H184       -4.5061  -15.2789  -47.5567 H         1 UNK         0.3000 
    185 H185       -3.2016  -14.0001  -49.0846 H         1 UNK         0.0600 
    186 H186       -3.8224  -12.8470  -46.9419 H         1 UNK         0.0600 
    187 H187       -2.1214  -12.5637  -46.5907 H         1 UNK         0.0600 
    188 H188       -2.8851  -11.7845  -47.9756 H         1 UNK         0.0600 
    189 H189       -0.7268  -12.7469  -48.6467 H         1 UNK         0.3000 
    190 H190        1.2592  -25.3315  -47.8347 H         1 UNK         0.3000 
    191 H191       -1.0604  -26.2190  -46.5678 H         1 UNK         0.0600 
    192 H192       -0.2520  -26.4222  -49.5182 H         1 UNK         0.0600 
    193 H193       -1.4773  -27.4091  -48.7305 H         1 UNK         0.0600 
    194 H194        0.2013  -27.5443  -48.2342 H         1 UNK         0.0600 
    195 H195       -0.7239  -23.5270  -48.7963 H         1 UNK         0.3000 
    196 H196       -3.3773  -23.1856  -49.6598 H         1 UNK         0.0600 
    197 H197       -2.6311  -20.8556  -50.1682 H         1 UNK         0.0600 
    198 H198       -1.4330  -22.0316  -50.6757 H         1 UNK         0.0600 
    199 H199       -1.1780  -21.0945  -49.2036 H         1 UNK         0.0600 
    200 H200       -2.1136  -22.6798  -46.4643 H         1 UNK         0.3000 
    201 H201       -4.0479  -20.7844  -45.4951 H         1 UNK         0.0600 
    202 H202       -3.2292  -21.5259  -43.2935 H         1 UNK         0.0600 
    203 H203       -2.4810  -22.9570  -43.9967 H         1 UNK         0.0600 
    204 H204       -1.8597  -21.3630  -44.3877 H         1 UNK         0.0600 
    205 H205       -4.0590  -24.2944  -46.0083 H         1 UNK         0.3000 
    206 H206       -6.6740  -24.6194  -44.5895 H         1 UNK         0.0600 
    207 H207       -4.8189  -26.0347  -43.7463 H         1 UNK         0.0600 
    208 H208       -6.0391  -27.0238  -44.5335 H         1 UNK         0.0600 
    209 H209       -4.5293  -26.6673  -45.3658 H         1 UNK         0.0600 
    210 H210       -4.9001  -25.3258  -47.6327 H         1 UNK         0.3000 
    211 H211       -7.1571  -26.5701  -48.9407 H         1 UNK         0.0600 
    212 H212       -5.5904  -26.6481  -50.8626 H         1 UNK         0.0600 
    213 H213       -4.7678  -27.1654  -49.3986 H         1 UNK         0.0600 
    214 H214       -4.4852  -25.5499  -50.0469 H         1 UNK         0.0600 
    215 H215       -6.3001  -23.3064  -48.4339 H         1 UNK         0.3000 
    216 H216       -6.9694  -21.3248  -49.1181 H         1 UNK         0.0600 
    217 H217       -9.0991  -20.9375  -50.2143 H         1 UNK         0.0600 
    218 H218       -9.3264  -22.2819  -49.1159 H         1 UNK         0.0600 
    219 H219       -9.1652  -22.5787  -50.8445 H         1 UNK         0.0600 
    220 H220       -7.8790  -20.4965  -51.7437 H         1 UNK         0.3000 
    221 H221       -7.0498  -19.6710  -53.6268 H         1 UNK         0.0600 
    222 H222       -5.6667  -22.3808  -53.9917 H         1 UNK         0.0600 
    223 H223       -7.3397  -22.0251  -54.4179 H         1 UNK         0.0600 
    224 H224       -6.0271  -21.2108  -55.2530 H         1 UNK         0.0600 
    225 H225       -5.8046  -18.6982  -51.5085 H         1 UNK         0.3000 
    226 H226       -2.8950  -18.5486  -51.9645 H         1 UNK         0.0600 
    227 H227       -3.9158  -18.6705  -49.6289 H         1 UNK         0.0600 
    228 H228       -2.8883  -17.2791  -49.8764 H         1 UNK         0.0600 
    229 H229       -4.6395  -17.0889  -49.9074 H         1 UNK         0.0600 
    230 H230       -2.5192  -15.8381  -51.3186 H         1 UNK         0.3000 
    231 H231       -2.2860  -13.8151  -52.1248 H         1 UNK         0.0600 
    232 H232       -4.7135  -13.4482  -52.2098 H         1 UNK         0.0600 
    233 H233       -4.8196  -14.1586  -53.8138 H         1 UNK         0.0600 
    234 H234       -3.9190  -12.6712  -53.5670 H         1 UNK         0.0600 
    235 H235       -3.5270  -14.5761  -55.2818 H         1 UNK         0.3000 
    236 H236       -0.8204  -15.0551  -56.4250 H         1 UNK         0.0600 
    237 H237       -2.2634  -13.4707  -57.6638 H         1 UNK         0.0600 
    238 H238       -2.0639  -14.9499  -58.5915 H         1 UNK         0.0600 
    239 H239       -3.5700  -14.6506  -57.7313 H         1 UNK         0.0600 
    240 H240       -0.4154  -17.0328  -55.4520 H         1 UNK         0.3000 
    241 H241       -2.0216  -18.9597  -54.6393 H         1 UNK         0.0600 
    242 H242       -3.3671  -20.5546  -55.3965 H         1 UNK         0.3800 
    243 H243       -3.2904  -21.2476  -57.0071 H         1 UNK         0.3800 
    244 H244       -0.0708  -20.5542  -54.7298 H         1 UNK         0.0800 
    245 H245        0.7756  -19.4309  -55.7542 H         1 UNK         0.0800 
    246 H246       -0.7606  -19.6720  -51.8691 H         1 UNK         0.0800 
    247 H247        0.4152  -20.8052  -52.4961 H         1 UNK         0.0800 
@<TRIPOS>BOND
     1    1    2 1    
     2    1  127 1    
     3    1  128 1    
     4    1  129 1    
     5    2    3 2    
     6    2    4 am   BACKBONE|DICT|INTERRES
     7    4    5 1    
     8    4  130 1    
     9    5    6 1    
    10    5   65 1    
    11    5  131 1    
    12    6    7 1    
    13    6  132 1    
    14    6  133 1    
    15    7    8 1    
    16    8    9 1    
    17    8  134 1    
    18    8  135 1    
    19    9   10 ar   
    20    9   14 ar   
    21   10   11 ar   
    22   10  136 1    
    23   11   12 ar   
    24   11  126 1    
    25   12   13 ar   
    26   12  137 1    
    27   13   14 ar   
    28   13   15 1    
    29   14  138 1    
    30   15   16 1    
    31   15  139 1    
    32   15  140 1    
    33   16   17 1    
    34   17   18 1    
    35   17  141 1    
    36   17  142 1    
    37   18   19 1    
    38   18   67 1    
    39   18  143 1    
    40   19   20 am   BACKBONE|DICT|INTERRES
    41   19  144 1    
    42   20   21 2    
    43   20   22 1    
    44   22   23 1    
    45   22   24 1    
    46   22  145 1    
    47   23  146 1    
    48   23  147 1    
    49   23  148 1    
    50   24   25 am   BACKBONE|DICT|INTERRES
    51   24  149 1    
    52   25   26 2    
    53   25   27 1    
    54   27   28 1    
    55   27   29 1    
    56   27  150 1    
    57   28  151 1    
    58   28  152 1    
    59   28  153 1    
    60   29   30 am   BACKBONE|DICT|INTERRES
    61   29  154 1    
    62   30   31 2    
    63   30   32 1    
    64   32   33 1    
    65   32   34 1    
    66   32  155 1    
    67   33  156 1    
    68   33  157 1    
    69   33  158 1    
    70   34   35 am   BACKBONE|DICT|INTERRES
    71   34  159 1    
    72   35   36 2    
    73   35   37 1    
    74   37   38 1    
    75   37   39 1    
    76   37  160 1    
    77   38  161 1    
    78   38  162 1    
    79   38  163 1    
    80   39   40 am   BACKBONE|DICT|INTERRES
    81   39  164 1    
    82   40   41 2    
    83   40   42 1    
    84   42   43 1    
    85   42   44 1    
    86   42  165 1    
    87   43  166 1    
    88   43  167 1    
    89   43  168 1    
    90   44   45 am   BACKBONE|DICT|INTERRES
    91   44  169 1    
    92   45   46 2    
    93   45   47 1    
    94   47   48 1    
    95   47   49 1    
    96   47  170 1    
    97   48  171 1    
    98   48  172 1    
    99   48  173 1    
   100   49   50 am   BACKBONE|DICT|INTERRES
   101   49  174 1    
   102   50   51 2    
   103   50   52 1    
   104   52   53 1    
   105   52   54 1    
   106   52  175 1    
   107   53  176 1    
   108   53  177 1    
   109   53  178 1    
   110   54   55 am   BACKBONE|DICT|INTERRES
   111   54  179 1    
   112   55   56 2    
   113   55   57 1    
   114   57   58 1    
   115   57   59 1    
   116   57  180 1    
   117   58  181 1    
   118   58  182 1    
   119   58  183 1    
   120   59   60 am   BACKBONE|DICT|INTERRES
   121   59  184 1    
   122   60   61 2    
   123   60   62 1    
   124   62   63 1    
   125   62   64 1    
   126   62  185 1    
   127   63  186 1    
   128   63  187 1    
   129   63  188 1    
   130   64   65 am   BACKBONE|DICT|INTERRES
   131   64  189 1    
   132   65   66 2    
   133   67   68 2    
   134   67   69 am   BACKBONE|DICT|INTERRES
   135   69   70 1    
   136   69  190 1    
   137   70   71 1    
   138   70   72 1    
   139   70  191 1    
   140   71  192 1    
   141   71  193 1    
   142   71  194 1    
   143   72   73 2    
   144   72   74 am   BACKBONE|DICT|INTERRES
   145   74   75 1    
   146   74  195 1    
   147   75   76 1    
   148   75   77 1    
   149   75  196 1    
   150   76  197 1    
   151   76  198 1    
   152   76  199 1    
   153   77   78 2    
   154   77   79 am   BACKBONE|DICT|INTERRES
   155   79   80 1    
   156   79  200 1    
   157   80   81 1    
   158   80   82 1    
   159   80  201 1    
   160   81  202 1    
   161   81  203 1    
   162   81  204 1    
   163   82   83 2    
   164   82   84 am   BACKBONE|DICT|INTERRES
   165   84   85 1    
   166   84  205 1    
   167   85   86 1    
   168   85   87 1    
   169   85  206 1    
   170   86  207 1    
   171   86  208 1    
   172   86  209 1    
   173   87   88 2    
   174   87   89 am   BACKBONE|DICT|INTERRES
   175   89   90 1    
   176   89  210 1    
   177   90   91 1    
   178   90   92 1    
   179   90  211 1    
   180   91  212 1    
   181   91  213 1    
   182   91  214 1    
   183   92   93 2    
   184   92   94 am   BACKBONE|DICT|INTERRES
   185   94   95 1    
   186   94  215 1    
   187   95   96 1    
   188   95   97 1    
   189   95  216 1    
   190   96  217 1    
   191   96  218 1    
   192   96  219 1    
   193   97   98 2    
   194   97   99 am   BACKBONE|DICT|INTERRES
   195   99  100 1    
   196   99  220 1    
   197  100  101 1    
   198  100  102 1    
   199  100  221 1    
   200  101  222 1    
   201  101  223 1    
   202  101  224 1    
   203  102  103 2    
   204  102  104 am   BACKBONE|DICT|INTERRES
   205  104  105 1    
   206  104  225 1    
   207  105  106 1    
   208  105  107 1    
   209  105  226 1    
   210  106  227 1    
   211  106  228 1    
   212  106  229 1    
   213  107  108 2    
   214  107  109 am   BACKBONE|DICT|INTERRES
   215  109  110 1    
   216  109  230 1    
   217  110  111 1    
   218  110  112 1    
   219  110  231 1    
   220  111  232 1    
   221  111  233 1    
   222  111  234 1    
   223  112  113 2    
   224  112  114 am   BACKBONE|DICT|INTERRES
   225  114  115 1    
   226  114  235 1    
   227  115  116 1    
   228  115  117 1    
   229  115  236 1    
   230  116  237 1    
   231  116  238 1    
   232  116  239 1    
   233  117  118 2    
   234  117  119 am   BACKBONE|DICT|INTERRES
   235  119  120 1    
   236  119  240 1    
   237  120  121 1    
   238  120  124 1    
   239  120  241 1    
   240  121  122 am   BACKBONE|DICT|INTERRES
   241  121  123 2    
   242  122  242 1    
   243  122  243 1    
   244  124  125 1    
   245  124  244 1    
   246  124  245 1    
   247  125  126 1    
   248  126  246 1    
   249  126  247 1    
@<TRIPOS>SUBSTRUCTURE
     1 UNK         1 GROUP             0       ****    0 ROOT    
