@<TRIPOS>MOLECULE
3R540
247   249    1
SMALL
USER_CHARGES


@<TRIPOS>ATOM
      1 CA          4.1310  -13.5239  -45.3006 C.3       0 UNK        -0.1800 
      2 C           4.5679  -14.0631  -46.6615 C.2       0 UNK         0.5000 
      3 O           5.7371  -13.9131  -47.0075 O.2       0 UNK        -0.5000 
      4 N           3.7020  -14.6889  -47.4716 N.am      1 UNK        -0.5000 
      5 CA          2.2668  -14.9320  -47.2745 C.3       1 UNK         0.1400 
      6 C6          1.7571  -16.0766  -48.1847 C.3       23 UNK        -0.0398 
      7 S7          2.1726  -15.8781  -49.9562 S.3       23 UNK        -0.2404 
      8 C8          0.5441  -16.0796  -50.7543 C.3       23 UNK        -0.0205 
      9 C9         -0.0973  -17.4322  -50.4637 C.ar      23 UNK        -0.0193 
     10 C10        -1.4081  -17.4967  -49.9834 C.ar      23 UNK        -0.1150 
     11 C11        -2.0092  -18.7276  -49.7024 C.ar      23 UNK        -0.0193 
     12 C12        -1.2676  -19.9016  -49.8706 C.ar      23 UNK        -0.1150 
     13 C13         0.0408  -19.8539  -50.3609 C.ar      23 UNK        -0.0193 
     14 C14         0.6119  -18.6182  -50.6738 C.ar      23 UNK        -0.1150 
     15 C15         0.8382  -21.1365  -50.5492 C.3       23 UNK        -0.0205 
     16 S16         2.3382  -21.2009  -49.5088 S.3       23 UNK        -0.2404 
     17 C17         1.6778  -20.9315  -47.8261 C.3       23 UNK        -0.0398 
     18 CA          1.4180  -22.2370  -47.0398 C.3       11 UNK         0.1400 
     19 N           1.2291  -21.9789  -45.6126 N.am      11 UNK        -0.5000 
     20 C           1.1396  -22.9222  -44.6647 C.2       10 UNK         0.5000 
     21 O           1.2896  -24.1260  -44.8775 O.2       10 UNK        -0.5000 
     22 CA          0.7711  -22.4391  -43.2497 C.3       10 UNK         0.1400 
     23 CB          2.0055  -21.8887  -42.5204 C.3       10 UNK        -0.1800 
     24 N          -0.2875  -21.4264  -43.2607 N.am      10 UNK        -0.5000 
     25 C          -1.5375  -21.6449  -43.6953 C.2       9 UNK         0.5000 
     26 O          -1.9426  -22.7403  -44.0854 O.2       9 UNK        -0.5000 
     27 CA         -2.4814  -20.4290  -43.7443 C.3       9 UNK         0.1400 
     28 CB         -3.0547  -20.1235  -42.3528 C.3       9 UNK        -0.1800 
     29 N          -1.8398  -19.2307  -44.2876 N.am      9 UNK        -0.5000 
     30 C          -1.3667  -19.1215  -45.5367 C.2       8 UNK         0.5000 
     31 O          -1.4457  -20.0154  -46.3746 O.2       8 UNK        -0.5000 
     32 CA         -0.6284  -17.8220  -45.8989 C.3       8 UNK         0.1400 
     33 CB         -1.6213  -16.6897  -46.1988 C.3       8 UNK        -0.1800 
     34 N           0.3129  -17.4081  -44.8561 N.am      8 UNK        -0.5000 
     35 C           1.3756  -18.1339  -44.4757 C.2       7 UNK         0.5000 
     36 O           1.7194  -19.1800  -45.0241 O.2       7 UNK        -0.5000 
     37 CA          2.1518  -17.6441  -43.2425 C.3       7 UNK         0.1400 
     38 CB          3.1984  -16.5912  -43.6279 C.3       7 UNK        -0.1800 
     39 N           1.2592  -17.1032  -42.2191 N.am      7 UNK        -0.5000 
     40 C           0.4317  -17.8507  -41.4749 C.2       6 UNK         0.5000 
     41 O           0.3712  -19.0783  -41.5438 O.2       6 UNK        -0.5000 
     42 CA         -0.5214  -17.0916  -40.5332 C.3       6 UNK         0.1400 
     43 CB          0.1835  -16.7426  -39.2141 C.3       6 UNK        -0.1800 
     44 N          -1.0499  -15.8685  -41.1410 N.am      6 UNK        -0.5000 
     45 C          -1.8598  -15.8444  -42.2094 C.2       5 UNK         0.5000 
     46 O          -2.2912  -16.8584  -42.7550 O.2       5 UNK        -0.5000 
     47 CA         -2.2158  -14.4640  -42.7928 C.3       5 UNK         0.1400 
     48 CB         -3.5436  -13.9605  -42.2083 C.3       5 UNK        -0.1800 
     49 N          -1.1772  -13.4538  -42.5752 N.am      5 UNK        -0.5000 
     50 C           0.0509  -13.4937  -43.1074 C.2       4 UNK         0.5000 
     51 O           0.4550  -14.3981  -43.8415 O.2       4 UNK        -0.5000 
     52 CA          1.0008  -12.3618  -42.7043 C.3       4 UNK         0.1400 
     53 CB          2.2252  -12.9141  -41.9504 C.3       4 UNK        -0.1800 
     54 N           1.4248  -11.6193  -43.8887 N.am      4 UNK        -0.5000 
     55 C           1.8240  -10.3398  -43.8657 C.2       3 UNK         0.5000 
     56 O           1.8316   -9.6574  -42.8398 O.2       3 UNK        -0.5000 
     57 CA          2.3149   -9.6972  -45.1782 C.3       3 UNK         0.1400 
     58 CB          3.7965   -9.2992  -45.0635 C.3       3 UNK        -0.1800 
     59 N           2.1572  -10.5578  -46.3521 N.am      3 UNK        -0.5000 
     60 C           1.1336  -10.4917  -47.2134 C.2       2 UNK         0.5000 
     61 O           0.1621   -9.7487  -47.0706 O.2       2 UNK        -0.5000 
     62 CA          1.2157  -11.4061  -48.4513 C.3       2 UNK         0.1400 
     63 CB          1.9126  -10.6795  -49.6115 C.3       2 UNK        -0.1800 
     64 N           1.9117  -12.6687  -48.1920 N.am      2 UNK        -0.5000 
     65 C           1.4091  -13.6591  -47.4429 C.2       1 UNK         0.5000 
     66 O           0.3200  -13.5863  -46.8777 O.2       1 UNK        -0.5000 
     67 C           0.2343  -23.0330  -47.6222 C.2       11 UNK         0.5000 
     68 O           0.4589  -24.0507  -48.2742 O.2       11 UNK        -0.5000 
     69 N          -1.0002  -22.5866  -47.3493 N.am      12 UNK        -0.5000 
     70 CA         -2.2390  -23.2168  -47.8036 C.3       12 UNK         0.1400 
     71 CB         -3.4479  -22.3819  -47.3605 C.3       12 UNK        -0.1800 
     72 C          -2.3946  -24.6672  -47.3254 C.2       12 UNK         0.5000 
     73 O          -2.8148  -25.5118  -48.1147 O.2       12 UNK        -0.5000 
     74 N          -2.0194  -24.9368  -46.0685 N.am      13 UNK        -0.5000 
     75 CA         -2.0145  -26.2740  -45.4754 C.3       13 UNK         0.1400 
     76 CB         -1.7054  -26.1613  -43.9749 C.3       13 UNK        -0.1800 
     77 C          -1.0310  -27.2414  -46.1631 C.2       13 UNK         0.5000 
     78 O          -1.3387  -28.4273  -46.2874 O.2       13 UNK        -0.5000 
     79 N           0.1212  -26.7215  -46.6062 N.am      14 UNK        -0.5000 
     80 CA          1.1436  -27.4784  -47.3262 C.3       14 UNK         0.1400 
     81 CB          2.5011  -26.7761  -47.1624 C.3       14 UNK        -0.1800 
     82 C           0.7959  -27.6569  -48.8155 C.2       14 UNK         0.5000 
     83 O           0.9362  -28.7590  -49.3468 O.2       14 UNK        -0.5000 
     84 N           0.3630  -26.5682  -49.4635 N.am      15 UNK        -0.5000 
     85 CA          0.0934  -26.4973  -50.9006 C.3       15 UNK         0.1400 
     86 CB          0.1440  -25.0223  -51.3346 C.3       15 UNK        -0.1800 
     87 C          -1.2512  -27.1181  -51.3220 C.2       15 UNK         0.5000 
     88 O          -1.4203  -27.4127  -52.5056 O.2       15 UNK        -0.5000 
     89 N          -2.1792  -27.2729  -50.3653 N.am      16 UNK        -0.5000 
     90 CA         -3.6077  -27.5542  -50.5541 C.3       16 UNK         0.1400 
     91 CB         -3.8474  -28.9118  -51.2489 C.3       16 UNK        -0.1800 
     92 C          -4.3031  -26.3613  -51.2450 C.2       16 UNK         0.5000 
     93 O          -4.9754  -26.5299  -52.2643 O.2       16 UNK        -0.5000 
     94 N          -4.0901  -25.1762  -50.6523 N.am      17 UNK        -0.5000 
     95 CA         -4.4710  -23.8304  -51.0982 C.3       17 UNK         0.1400 
     96 CB         -5.9964  -23.7176  -51.2870 C.3       17 UNK        -0.1800 
     97 C          -3.6981  -23.3479  -52.3451 C.2       17 UNK         0.5000 
     98 O          -2.9966  -24.1233  -52.9978 O.2       17 UNK        -0.5000 
     99 N          -3.8275  -22.0514  -52.6423 N.am      18 UNK        -0.5000 
    100 CA        -3.2229  -21.3852  -53.7881 C.3       18 UNK         0.1400 
    101 CB        -1.8329  -20.8443  -53.4100 C.3       18 UNK        -0.1800 
    102 C         -4.1702  -20.2643  -54.2303 C.2       18 UNK         0.5000 
    103 O         -4.2964  -19.2563  -53.5323 O.2       18 UNK        -0.5000 
    104 N         -4.8458  -20.4644  -55.3670 N.am      19 UNK        -0.5000 
    105 CA        -5.7459  -19.4761  -55.9594 C.3       19 UNK         0.1400 
    106 CB        -6.5776  -20.1562  -57.0581 C.3       19 UNK        -0.1800 
    107 C         -4.9571  -18.2777  -56.5362 C.2       19 UNK         0.5000 
    108 O         -3.8429  -18.4766  -57.0227 O.2       19 UNK        -0.5000 
    109 N         -5.4941  -17.0502  -56.5289 N.am      20 UNK        -0.5000 
    110 CA        -6.7967  -16.6311  -55.9992 C.3       20 UNK         0.1400 
    111 CB        -7.3042  -15.4635  -56.8621 C.3       20 UNK        -0.1800 
    112 C         -6.7458  -16.2194  -54.5111 C.2       20 UNK         0.5000 
    113 O         -7.7743  -15.8112  -53.9705 O.2       20 UNK        -0.5000 
    114 N         -5.5643  -16.3006  -53.8808 N.am      21 UNK        -0.5000 
    115 CA        -5.3132  -15.8759  -52.5001 C.3       21 UNK         0.1400 
    116 CB        -3.8026  -15.9199  -52.2244 C.3       21 UNK        -0.1800 
    117 C         -6.0791  -16.6925  -51.4414 C.2       21 UNK         0.5000 
    118 O         -6.4887  -16.1314  -50.4240 O.2       21 UNK        -0.5000 
    119 N         -6.2697  -17.9877  -51.7012 N.am      22 UNK        -0.5000 
    120 CA        -6.9982  -18.9297  -50.8452 C.3       22 UNK         0.1400 
    121 C         -7.6151  -20.0933  -51.6666 C.2       22 UNK         0.5000 
    122 N         -8.5172  -20.8653  -51.0756 N.am      22 UNK        -0.7600 
    123 O         -7.2935  -20.3115  -52.8318 O.2       22 UNK        -0.5000 
    124 C124       -6.1586  -19.4152  -49.6280 C.3       23 UNK        -0.0398 
    125 S125       -4.4810  -19.9981  -50.0625 S.3       23 UNK        -0.2404 
    126 C126       -3.4474  -18.7674  -49.1968 C.3       23 UNK        -0.0205 
    127 H127        3.0583  -13.5580  -45.1321 H         1 UNK         0.0600 
    128 H128        4.6135  -14.0955  -44.5084 H         1 UNK         0.0600 
    129 H129        4.4481  -12.4880  -45.1961 H         1 UNK         0.0600 
    130 H130        4.0518  -15.0309  -48.3562 H         1 UNK         0.3000 
    131 H131        2.1190  -15.2703  -46.2482 H         1 UNK         0.0600 
    132 H132        0.6791  -16.1938  -48.0735 H         1 UNK         0.0800 
    133 H133        2.1879  -17.0222  -47.8522 H         1 UNK         0.0800 
    134 H134       -0.1055  -15.2633  -50.4342 H         1 UNK         0.0800 
    135 H135        0.6642  -15.9740  -51.8331 H         1 UNK         0.0800 
    136 H136       -1.9631  -16.5832  -49.8270 H         1 UNK         0.1150 
    137 H137       -1.7173  -20.8537  -49.6311 H         1 UNK         0.1150 
    138 H138        1.6236  -18.5792  -51.0525 H         1 UNK         0.1150 
    139 H139        0.2191  -22.0107  -50.3463 H         1 UNK         0.0800 
    140 H140        1.1346  -21.2153  -51.5958 H         1 UNK         0.0800 
    141 H141        0.7898  -20.3004  -47.8496 H         1 UNK         0.0800 
    142 H142        2.4319  -20.3438  -47.3018 H         1 UNK         0.0800 
    143 H143        2.3076  -22.8644  -47.1292 H         1 UNK         0.0600 
    144 H144        1.1417  -21.0039  -45.3404 H         1 UNK         0.3000 
    145 H145        0.4018  -23.3013  -42.6906 H         1 UNK         0.0600 
    146 H146        1.7648  -21.6088  -41.4947 H         1 UNK         0.0600 
    147 H147        2.7985  -22.6363  -42.4767 H         1 UNK         0.0600 
    148 H148        2.4104  -21.0088  -43.0205 H         1 UNK         0.0600 
    149 H149       -0.0453  -20.5074  -42.9044 H         1 UNK         0.3000 
    150 H150       -3.3139  -20.6838  -44.4031 H         1 UNK         0.0600 
    151 H151       -3.5594  -20.9968  -41.9378 H         1 UNK         0.0600 
    152 H152       -3.7852  -19.3155  -42.3971 H         1 UNK         0.0600 
    153 H153       -2.2748  -19.8294  -41.6502 H         1 UNK         0.0600 
    154 H154       -1.7912  -18.4221  -43.6730 H         1 UNK         0.3000 
    155 H155       -0.0538  -18.0197  -46.8055 H         1 UNK         0.0600 
    156 H156       -2.3009  -16.5123  -45.3666 H         1 UNK         0.0600 
    157 H157       -2.2325  -16.9318  -47.0682 H         1 UNK         0.0600 
    158 H158       -1.1075  -15.7542  -46.4133 H         1 UNK         0.0600 
    159 H159        0.1141  -16.5424  -44.3695 H         1 UNK         0.3000 
    160 H160        2.6792  -18.5021  -42.8204 H         1 UNK         0.0600 
    161 H161        3.8197  -16.3222  -42.7736 H         1 UNK         0.0600 
    162 H162        2.7291  -15.6822  -43.9972 H         1 UNK         0.0600 
    163 H163        3.8615  -16.9626  -44.4104 H         1 UNK         0.0600 
    164 H164        1.2116  -16.0980  -42.1423 H         1 UNK         0.3000 
    165 H165       -1.3627  -17.7506  -40.3084 H         1 UNK         0.0600 
    166 H166       -0.5050  -16.2720  -38.5120 H         1 UNK         0.0600 
    167 H167        0.5745  -17.6397  -38.7322 H         1 UNK         0.0600 
    168 H168        1.0214  -16.0621  -39.3707 H         1 UNK         0.0600 
    169 H169       -0.7512  -14.9911  -40.7422 H         1 UNK         0.3000 
    170 H170       -2.3417  -14.5848  -43.8705 H         1 UNK         0.0600 
    171 H171       -4.3434  -14.6827  -42.3783 H         1 UNK         0.0600 
    172 H172       -3.4739  -13.7951  -41.1324 H         1 UNK         0.0600 
    173 H173       -3.8499  -13.0237  -42.6740 H         1 UNK         0.0600 
    174 H174       -1.4277  -12.6778  -41.9791 H         1 UNK         0.3000 
    175 H175        0.4617  -11.6888  -42.0338 H         1 UNK         0.0600 
    176 H176        2.8272  -13.5685  -42.5807 H         1 UNK         0.0600 
    177 H177        2.8691  -12.1087  -41.5974 H         1 UNK         0.0600 
    178 H178        1.9199  -13.4902  -41.0761 H         1 UNK         0.0600 
    179 H179        1.3644  -12.1146  -44.7678 H         1 UNK         0.3000 
    180 H180        1.7390   -8.7795  -45.3155 H         1 UNK         0.0600 
    181 H181        4.4368  -10.1610  -44.8772 H         1 UNK         0.0600 
    182 H182        3.9510   -8.5960  -44.2441 H         1 UNK         0.0600 
    183 H183        4.1454   -8.8119  -45.9741 H         1 UNK         0.0600 
    184 H184        2.9153  -11.1902  -46.5573 H         1 UNK         0.3000 
    185 H185        0.1936  -11.6357  -48.7605 H         1 UNK         0.0600 
    186 H186        1.4043   -9.7438  -49.8481 H         1 UNK         0.0600 
    187 H187        2.9492  -10.4386  -49.3724 H         1 UNK         0.0600 
    188 H188        1.9088  -11.2875  -50.5165 H         1 UNK         0.0600 
    189 H189        2.8082  -12.8025  -48.6377 H         1 UNK         0.3000 
    190 H190       -1.1064  -21.7124  -46.8362 H         1 UNK         0.3000 
    191 H191       -2.2089  -23.2277  -48.8943 H         1 UNK         0.0600 
    192 H192       -3.5405  -22.3507  -46.2751 H         1 UNK         0.0600 
    193 H193       -4.3769  -22.7920  -47.7582 H         1 UNK         0.0600 
    194 H194       -3.3679  -21.3562  -47.7131 H         1 UNK         0.0600 
    195 H195       -1.7379  -24.1674  -45.4677 H         1 UNK         0.3000 
    196 H196       -3.0179  -26.6901  -45.5861 H         1 UNK         0.0600 
    197 H197       -0.7244  -25.7188  -43.7988 H         1 UNK         0.0600 
    198 H198       -1.7152  -27.1422  -43.4982 H         1 UNK         0.0600 
    199 H199       -2.4459  -25.5442  -43.4656 H         1 UNK         0.0600 
    200 H200        0.2960  -25.7342  -46.4674 H         1 UNK         0.3000 
    201 H201        1.2269  -28.4717  -46.8799 H         1 UNK         0.0600 
    202 H202        2.4881  -25.7658  -47.5728 H         1 UNK         0.0600 
    203 H203        3.2908  -27.3285  -47.6730 H         1 UNK         0.0600 
    204 H204        2.7810  -26.7033  -46.1112 H         1 UNK         0.0600 
    205 H205        0.3164  -25.6853  -48.9557 H         1 UNK         0.3000 
    206 H206        0.8845  -27.0344  -51.4280 H         1 UNK         0.0600 
    207 H207        1.1051  -24.5690  -51.0907 H         1 UNK         0.0600 
    208 H208        0.0007  -24.9239  -52.4115 H         1 UNK         0.0600 
    209 H209       -0.6368  -24.4358  -50.8483 H         1 UNK         0.0600 
    210 H210       -1.9327  -26.9600  -49.4338 H         1 UNK         0.3000 
    211 H211       -4.0377  -27.6250  -49.5539 H         1 UNK         0.0600 
    212 H212       -3.5280  -28.9056  -52.2909 H         1 UNK         0.0600 
    213 H213       -4.9077  -29.1661  -51.2393 H         1 UNK         0.0600 
    214 H214       -3.3155  -29.7146  -50.7386 H         1 UNK         0.0600 
    215 H215       -3.5357  -25.2060  -49.8010 H         1 UNK         0.3000 
    216 H216       -4.1923  -23.1616  -50.2838 H         1 UNK         0.0600 
    217 H217       -6.5320  -24.0720  -50.4064 H         1 UNK         0.0600 
    218 H218       -6.2909  -22.6818  -51.4464 H         1 UNK         0.0600 
    219 H219       -6.3463  -24.2870  -52.1482 H         1 UNK         0.0600 
    220 H220       -4.4092  -21.4545  -52.0665 H         1 UNK         0.3000 
    221 H221       -3.1085  -22.0933  -54.6117 H         1 UNK         0.0600 
    222 H222       -1.8958  -20.1024  -52.6138 H         1 UNK         0.0600 
    223 H223       -1.1731  -21.6436  -53.0725 H         1 UNK         0.0600 
    224 H224       -1.3570  -20.3647  -54.2657 H         1 UNK         0.0600 
    225 H225       -4.6861  -21.3070  -55.8987 H         1 UNK         0.3000 
    226 H226       -6.4169  -19.1411  -55.1681 H         1 UNK         0.0600 
    227 H227       -7.1618  -20.9833  -56.6540 H         1 UNK         0.0600 
    228 H228       -7.2794  -19.4554  -57.5114 H         1 UNK         0.0600 
    229 H229       -5.9461  -20.5485  -57.8563 H         1 UNK         0.0600 
    230 H230       -4.9418  -16.3019  -56.9216 H         1 UNK         0.3000 
    231 H231       -7.5241  -17.4380  -56.0944 H         1 UNK         0.0600 
    232 H232       -7.3755  -15.7507  -57.9115 H         1 UNK         0.0600 
    233 H233       -6.6454  -14.5968  -56.7953 H         1 UNK         0.0600 
    234 H234       -8.2992  -15.1442  -56.5491 H         1 UNK         0.0600 
    235 H235       -4.7742  -16.6771  -54.3842 H         1 UNK         0.3000 
    236 H236       -5.6417  -14.8383  -52.4120 H         1 UNK         0.0600 
    237 H237       -3.4116  -16.9369  -52.2832 H         1 UNK         0.0600 
    238 H238       -3.2501  -15.3049  -52.9347 H         1 UNK         0.0600 
    239 H239       -3.5821  -15.5394  -51.2269 H         1 UNK         0.0600 
    240 H240       -5.8512  -18.3983  -52.5311 H         1 UNK         0.3000 
    241 H241       -7.8618  -18.3896  -50.4521 H         1 UNK         0.0600 
    242 H242       -8.9281  -21.6196  -51.6029 H         1 UNK         0.3800 
    243 H243       -8.8195  -20.7056  -50.1274 H         1 UNK         0.3800 
    244 H244       -6.0780  -18.6005  -48.9079 H         1 UNK         0.0800 
    245 H245       -6.6698  -20.2148  -49.0904 H         1 UNK         0.0800 
    246 H246       -3.4456  -18.9836  -48.1282 H         1 UNK         0.0800 
    247 H247       -3.9052  -17.7843  -49.3162 H         1 UNK         0.0800 
@<TRIPOS>BOND
     1    1    2 1    
     2    1  127 1    
     3    1  128 1    
     4    1  129 1    
     5    2    3 2    
     6    2    4 am   BACKBONE|DICT|INTERRES
     7    4    5 1    
     8    4  130 1    
     9    5    6 1    
    10    5   65 1    
    11    5  131 1    
    12    6    7 1    
    13    6  132 1    
    14    6  133 1    
    15    7    8 1    
    16    8    9 1    
    17    8  134 1    
    18    8  135 1    
    19    9   10 ar   
    20    9   14 ar   
    21   10   11 ar   
    22   10  136 1    
    23   11   12 ar   
    24   11  126 1    
    25   12   13 ar   
    26   12  137 1    
    27   13   14 ar   
    28   13   15 1    
    29   14  138 1    
    30   15   16 1    
    31   15  139 1    
    32   15  140 1    
    33   16   17 1    
    34   17   18 1    
    35   17  141 1    
    36   17  142 1    
    37   18   19 1    
    38   18   67 1    
    39   18  143 1    
    40   19   20 am   BACKBONE|DICT|INTERRES
    41   19  144 1    
    42   20   21 2    
    43   20   22 1    
    44   22   23 1    
    45   22   24 1    
    46   22  145 1    
    47   23  146 1    
    48   23  147 1    
    49   23  148 1    
    50   24   25 am   BACKBONE|DICT|INTERRES
    51   24  149 1    
    52   25   26 2    
    53   25   27 1    
    54   27   28 1    
    55   27   29 1    
    56   27  150 1    
    57   28  151 1    
    58   28  152 1    
    59   28  153 1    
    60   29   30 am   BACKBONE|DICT|INTERRES
    61   29  154 1    
    62   30   31 2    
    63   30   32 1    
    64   32   33 1    
    65   32   34 1    
    66   32  155 1    
    67   33  156 1    
    68   33  157 1    
    69   33  158 1    
    70   34   35 am   BACKBONE|DICT|INTERRES
    71   34  159 1    
    72   35   36 2    
    73   35   37 1    
    74   37   38 1    
    75   37   39 1    
    76   37  160 1    
    77   38  161 1    
    78   38  162 1    
    79   38  163 1    
    80   39   40 am   BACKBONE|DICT|INTERRES
    81   39  164 1    
    82   40   41 2    
    83   40   42 1    
    84   42   43 1    
    85   42   44 1    
    86   42  165 1    
    87   43  166 1    
    88   43  167 1    
    89   43  168 1    
    90   44   45 am   BACKBONE|DICT|INTERRES
    91   44  169 1    
    92   45   46 2    
    93   45   47 1    
    94   47   48 1    
    95   47   49 1    
    96   47  170 1    
    97   48  171 1    
    98   48  172 1    
    99   48  173 1    
   100   49   50 am   BACKBONE|DICT|INTERRES
   101   49  174 1    
   102   50   51 2    
   103   50   52 1    
   104   52   53 1    
   105   52   54 1    
   106   52  175 1    
   107   53  176 1    
   108   53  177 1    
   109   53  178 1    
   110   54   55 am   BACKBONE|DICT|INTERRES
   111   54  179 1    
   112   55   56 2    
   113   55   57 1    
   114   57   58 1    
   115   57   59 1    
   116   57  180 1    
   117   58  181 1    
   118   58  182 1    
   119   58  183 1    
   120   59   60 am   BACKBONE|DICT|INTERRES
   121   59  184 1    
   122   60   61 2    
   123   60   62 1    
   124   62   63 1    
   125   62   64 1    
   126   62  185 1    
   127   63  186 1    
   128   63  187 1    
   129   63  188 1    
   130   64   65 am   BACKBONE|DICT|INTERRES
   131   64  189 1    
   132   65   66 2    
   133   67   68 2    
   134   67   69 am   BACKBONE|DICT|INTERRES
   135   69   70 1    
   136   69  190 1    
   137   70   71 1    
   138   70   72 1    
   139   70  191 1    
   140   71  192 1    
   141   71  193 1    
   142   71  194 1    
   143   72   73 2    
   144   72   74 am   BACKBONE|DICT|INTERRES
   145   74   75 1    
   146   74  195 1    
   147   75   76 1    
   148   75   77 1    
   149   75  196 1    
   150   76  197 1    
   151   76  198 1    
   152   76  199 1    
   153   77   78 2    
   154   77   79 am   BACKBONE|DICT|INTERRES
   155   79   80 1    
   156   79  200 1    
   157   80   81 1    
   158   80   82 1    
   159   80  201 1    
   160   81  202 1    
   161   81  203 1    
   162   81  204 1    
   163   82   83 2    
   164   82   84 am   BACKBONE|DICT|INTERRES
   165   84   85 1    
   166   84  205 1    
   167   85   86 1    
   168   85   87 1    
   169   85  206 1    
   170   86  207 1    
   171   86  208 1    
   172   86  209 1    
   173   87   88 2    
   174   87   89 am   BACKBONE|DICT|INTERRES
   175   89   90 1    
   176   89  210 1    
   177   90   91 1    
   178   90   92 1    
   179   90  211 1    
   180   91  212 1    
   181   91  213 1    
   182   91  214 1    
   183   92   93 2    
   184   92   94 am   BACKBONE|DICT|INTERRES
   185   94   95 1    
   186   94  215 1    
   187   95   96 1    
   188   95   97 1    
   189   95  216 1    
   190   96  217 1    
   191   96  218 1    
   192   96  219 1    
   193   97   98 2    
   194   97   99 am   BACKBONE|DICT|INTERRES
   195   99  100 1    
   196   99  220 1    
   197  100  101 1    
   198  100  102 1    
   199  100  221 1    
   200  101  222 1    
   201  101  223 1    
   202  101  224 1    
   203  102  103 2    
   204  102  104 am   BACKBONE|DICT|INTERRES
   205  104  105 1    
   206  104  225 1    
   207  105  106 1    
   208  105  107 1    
   209  105  226 1    
   210  106  227 1    
   211  106  228 1    
   212  106  229 1    
   213  107  108 2    
   214  107  109 am   BACKBONE|DICT|INTERRES
   215  109  110 1    
   216  109  230 1    
   217  110  111 1    
   218  110  112 1    
   219  110  231 1    
   220  111  232 1    
   221  111  233 1    
   222  111  234 1    
   223  112  113 2    
   224  112  114 am   BACKBONE|DICT|INTERRES
   225  114  115 1    
   226  114  235 1    
   227  115  116 1    
   228  115  117 1    
   229  115  236 1    
   230  116  237 1    
   231  116  238 1    
   232  116  239 1    
   233  117  118 2    
   234  117  119 am   BACKBONE|DICT|INTERRES
   235  119  120 1    
   236  119  240 1    
   237  120  121 1    
   238  120  124 1    
   239  120  241 1    
   240  121  122 am   BACKBONE|DICT|INTERRES
   241  121  123 2    
   242  122  242 1    
   243  122  243 1    
   244  124  125 1    
   245  124  244 1    
   246  124  245 1    
   247  125  126 1    
   248  126  246 1    
   249  126  247 1    
@<TRIPOS>SUBSTRUCTURE
     1 UNK         1 GROUP             0       ****    0 ROOT    
