@<TRIPOS>MOLECULE
3R540
247   249    1
SMALL
USER_CHARGES


@<TRIPOS>ATOM
      1 CA         -1.2594  -11.6782  -46.2133 C.3       0 UNK        -0.1800 
      2 C          -0.2094  -11.1049  -47.1548 C.2       0 UNK         0.5000 
      3 O          -0.3893  -10.0068  -47.6818 O.2       0 UNK        -0.5000 
      4 N           0.8774  -11.8538  -47.3692 N.am      1 UNK        -0.5000 
      5 CA          2.0328  -11.4689  -48.1851 C.3       1 UNK         0.1400 
      6 C6          2.5805  -12.6902  -48.9805 C.3       23 UNK        -0.0398 
      7 S7          3.5144  -13.9172  -47.9960 S.3       23 UNK        -0.2404 
      8 C8          2.2101  -15.0481  -47.4354 C.3       23 UNK        -0.0205 
      9 C9          1.8818  -16.1163  -48.4623 C.ar      23 UNK        -0.0193 
     10 C10         0.7473  -16.0015  -49.2722 C.ar      23 UNK        -0.1150 
     11 C11         0.4144  -17.0229  -50.1666 C.ar      23 UNK        -0.0193 
     12 C12         1.2320  -18.1517  -50.2595 C.ar      23 UNK        -0.1150 
     13 C13         2.3625  -18.2793  -49.4498 C.ar      23 UNK        -0.0193 
     14 C14         2.6861  -17.2556  -48.5565 C.ar      23 UNK        -0.1150 
     15 C15         3.2169  -19.5349  -49.5247 C.3       23 UNK        -0.0205 
     16 S16         2.8418  -20.6907  -48.1689 S.3       23 UNK        -0.2404 
     17 C17         1.0804  -21.0573  -48.4779 C.3       23 UNK        -0.0398 
     18 CA          0.5734  -22.2330  -47.6137 C.3       11 UNK         0.1400 
     19 N           0.5587  -21.9165  -46.1817 N.am      11 UNK        -0.5000 
     20 C           0.3675  -22.8180  -45.2091 C.2       10 UNK         0.5000 
     21 O           0.2198  -24.0222  -45.4171 O.2       10 UNK        -0.5000 
     22 CA          0.2730  -22.2837  -43.7678 C.3       10 UNK         0.1400 
     23 CB          1.6648  -21.9765  -43.1955 C.3       10 UNK        -0.1800 
     24 N          -0.5831  -21.1009  -43.6661 N.am      10 UNK        -0.5000 
     25 C          -1.9015  -21.1057  -43.9114 C.2       9 UNK         0.5000 
     26 O          -2.5372  -22.1196  -44.1979 O.2       9 UNK        -0.5000 
     27 CA         -2.6286  -19.7495  -43.8721 C.3       9 UNK         0.1400 
     28 CB         -2.9997  -19.3708  -42.4309 C.3       9 UNK        -0.1800 
     29 N          -1.8520  -18.6692  -44.4782 N.am      9 UNK        -0.5000 
     30 C          -1.4712  -18.6263  -45.7629 C.2       8 UNK         0.5000 
     31 O          -1.7671  -19.4817  -46.5943 O.2       8 UNK        -0.5000 
     32 CA         -0.5494  -17.4646  -46.1699 C.3       8 UNK         0.1400 
     33 CB         -1.3606  -16.1751  -46.3733 C.3       8 UNK        -0.1800 
     34 N           0.5279  -17.2472  -45.1988 N.am      8 UNK        -0.5000 
     35 C           1.4587  -18.1687  -44.9030 C.2       7 UNK         0.5000 
     36 O           1.5234  -19.2693  -45.4465 O.2       7 UNK        -0.5000 
     37 CA          2.4420  -17.8425  -43.7672 C.3       7 UNK         0.1400 
     38 CB          3.6497  -17.0502  -44.2778 C.3       7 UNK        -0.1800 
     39 N           1.7994  -17.1102  -42.6797 N.am      7 UNK        -0.5000 
     40 C           0.9317  -17.6622  -41.8210 C.2       6 UNK         0.5000 
     41 O           0.6285  -18.8558  -41.8259 O.2       6 UNK        -0.5000 
     42 CA          0.2524  -16.7033  -40.8264 C.3       6 UNK         0.1400 
     43 CB          1.1766  -16.4067  -39.6359 C.3       6 UNK        -0.1800 
     44 N          -0.1515  -15.4434  -41.4547 N.am      6 UNK        -0.5000 
     45 C          -1.0657  -15.3450  -42.4301 C.2       5 UNK         0.5000 
     46 O          -1.6949  -16.3057  -42.8699 O.2       5 UNK        -0.5000 
     47 CA         -1.3017  -13.9534  -43.0426 C.3       5 UNK         0.1400 
     48 CB         -2.5228  -13.2812  -42.3990 C.3       5 UNK        -0.1800 
     49 N          -0.1504  -13.0549  -42.9404 N.am      5 UNK        -0.5000 
     50 C           1.0206  -13.2179  -43.5708 C.2       4 UNK         0.5000 
     51 O           1.2679  -14.1766  -44.3080 O.2       4 UNK        -0.5000 
     52 CA          2.0437  -12.0835  -43.3569 C.3       4 UNK         0.1400 
     53 CB          2.2584  -11.7553  -41.8623 C.3       4 UNK        -0.1800 
     54 N           3.3234  -12.2955  -44.0390 N.am      4 UNK        -0.5000 
     55 C           4.2888  -13.1805  -43.7451 C.2       3 UNK         0.5000 
     56 O           4.2137  -13.9903  -42.8199 O.2       3 UNK        -0.5000 
     57 CA          5.5700  -13.1460  -44.6115 C.3       3 UNK         0.1400 
     58 CB          5.9473  -14.5439  -45.1288 C.3       3 UNK        -0.1800 
     59 N           5.4618  -12.2370  -45.7558 N.am      3 UNK        -0.5000 
     60 C           5.8162  -10.9441  -45.7606 C.2       2 UNK         0.5000 
     61 O           6.3535  -10.3793  -44.8077 O.2       2 UNK        -0.5000 
     62 CA          5.4826  -10.1336  -47.0340 C.3       2 UNK         0.1400 
     63 CB          6.7027  -10.0729  -47.9654 C.3       2 UNK        -0.1800 
     64 N           4.3336  -10.6541  -47.7864 N.am      2 UNK        -0.5000 
     65 C           3.0847  -10.7455  -47.3062 C.2       1 UNK         0.5000 
     66 O           2.7734  -10.3229  -46.1895 O.2       1 UNK        -0.5000 
     67 C          -0.8003  -22.7327  -48.1074 C.2       11 UNK         0.5000 
     68 O          -0.8474  -23.6986  -48.8687 O.2       11 UNK        -0.5000 
     69 N          -1.8911  -22.1115  -47.6367 N.am      12 UNK        -0.5000 
     70 CA         -3.2677  -22.5265  -47.9119 C.3       12 UNK         0.1400 
     71 CB         -4.2471  -21.4948  -47.3358 C.3       12 UNK        -0.1800 
     72 C          -3.5811  -23.9299  -47.3647 C.2       12 UNK         0.5000 
     73 O          -4.1964  -24.7296  -48.0688 O.2       12 UNK        -0.5000 
     74 N          -3.1209  -24.2211  -46.1396 N.am      13 UNK        -0.5000 
     75 CA         -3.2328  -25.5338  -45.5031 C.3       13 UNK         0.1400 
     76 CB         -2.8282  -25.4288  -44.0252 C.3       13 UNK        -0.1800 
     77 C          -2.4081  -26.6176  -46.2217 C.2       13 UNK         0.5000 
     78 O          -2.8826  -27.7462  -46.3513 O.2       13 UNK        -0.5000 
     79 N          -1.2074  -26.2540  -46.6954 N.am      14 UNK        -0.5000 
     80 CA         -0.3306  -27.1185  -47.4873 C.3       14 UNK         0.1400 
     81 CB          1.0608  -26.4780  -47.6059 C.3       14 UNK        -0.1800 
     82 C          -0.9112  -27.4372  -48.8780 C.2       14 UNK         0.5000 
     83 O          -0.8305  -28.5851  -49.3175 O.2       14 UNK        -0.5000 
     84 N          -1.5042  -26.4283  -49.5333 N.am      15 UNK        -0.5000 
     85 CA         -2.2295  -26.5714  -50.7978 C.3       15 UNK         0.1400 
     86 CB         -2.5273  -25.1791  -51.3784 C.3       15 UNK        -0.1800 
     87 C          -3.5339  -27.3755  -50.6419 C.2       15 UNK         0.5000 
     88 O          -3.8864  -28.1405  -51.5401 O.2       15 UNK        -0.5000 
     89 N          -4.2144  -27.1770  -49.5031 N.am      16 UNK        -0.5000 
     90 CA         -5.4910  -27.7705  -49.0940 C.3       16 UNK         0.1400 
     91 CB         -5.3606  -29.2982  -48.9246 C.3       16 UNK        -0.1800 
     92 C          -6.6700  -27.3592  -50.0020 C.2       16 UNK         0.5000 
     93 O          -7.6555  -28.0924  -50.1045 O.2       16 UNK        -0.5000 
     94 N          -6.5518  -26.1895  -50.6397 N.am      17 UNK        -0.5000 
     95 CA         -7.4950  -25.6208  -51.5930 C.3       17 UNK         0.1400 
     96 CB         -7.4458  -26.4062  -52.9192 C.3       17 UNK        -0.1800 
     97 C          -7.1241  -24.1515  -51.8313 C.2       17 UNK         0.5000 
     98 O          -6.0030  -23.7354  -51.5190 O.2       17 UNK        -0.5000 
     99 N          -8.0489  -23.4032  -52.4445 N.am      18 UNK        -0.5000 
    100 CA        -7.8837  -22.0081  -52.8637 C.3       18 UNK         0.1400 
    101 CB        -9.2728  -21.3562  -52.9828 C.3       18 UNK        -0.1800 
    102 C         -7.0520  -21.8692  -54.1607 C.2       18 UNK         0.5000 
    103 O         -7.4200  -21.1054  -55.0561 O.2       18 UNK        -0.5000 
    104 N         -5.9405  -22.6128  -54.2440 N.am      19 UNK        -0.5000 
    105 CA        -4.9592  -22.5793  -55.3267 C.3       19 UNK         0.1400 
    106 CB        -3.8785  -23.6358  -55.0526 C.3       19 UNK        -0.1800 
    107 C         -4.3376  -21.1785  -55.4462 C.2       19 UNK         0.5000 
    108 O         -3.8484  -20.6529  -54.4425 O.2       19 UNK        -0.5000 
    109 N         -4.4368  -20.5799  -56.6416 N.am      20 UNK        -0.5000 
    110 CA        -4.0506  -19.1986  -56.9675 C.3       20 UNK         0.1400 
    111 CB        -2.5170  -19.0382  -56.9027 C.3       20 UNK        -0.1800 
    112 C         -4.7954  -18.1361  -56.1235 C.2       20 UNK         0.5000 
    113 O         -4.2511  -17.0596  -55.8746 O.2       20 UNK        -0.5000 
    114 N         -6.0136  -18.4785  -55.6709 N.am      21 UNK        -0.5000 
    115 CA        -6.8643  -17.7436  -54.7249 C.3       21 UNK         0.1400 
    116 CB        -7.2726  -16.3663  -55.2883 C.3       21 UNK        -0.1800 
    117 C         -6.2766  -17.6542  -53.2969 C.2       21 UNK         0.5000 
    118 O         -6.7546  -16.8517  -52.4937 O.2       21 UNK        -0.5000 
    119 N         -5.2694  -18.4836  -53.0011 N.am      22 UNK        -0.5000 
    120 CA        -4.5798  -18.5894  -51.7126 C.3       22 UNK         0.1400 
    121 C         -4.9214  -19.9494  -51.0516 C.2       22 UNK         0.5000 
    122 N         -4.6085  -21.0693  -51.6934 N.am      22 UNK        -0.7600 
    123 O         -5.5207  -19.9893  -49.9823 O.2       22 UNK        -0.5000 
    124 C124       -3.0560  -18.3818  -51.9055 C.3       23 UNK        -0.0398 
    125 S125       -2.1688  -17.9726  -50.3658 S.3       23 UNK        -0.2404 
    126 C126       -0.8311  -16.9298  -51.0302 C.3       23 UNK        -0.0205 
    127 H127       -2.2548  -11.5657  -46.6430 H         1 UNK         0.0600 
    128 H128       -1.2363  -11.1534  -45.2583 H         1 UNK         0.0600 
    129 H129       -1.0922  -12.7389  -46.0276 H         1 UNK         0.0600 
    130 H130        0.9863  -12.7142  -46.8542 H         1 UNK         0.3000 
    131 H131        1.7071  -10.7348  -48.9247 H         1 UNK         0.0600 
    132 H132        1.7635  -13.1939  -49.4984 H         1 UNK         0.0800 
    133 H133        3.2401  -12.3431  -49.7769 H         1 UNK         0.0800 
    134 H134        2.5464  -15.5315  -46.5212 H         1 UNK         0.0800 
    135 H135        1.3182  -14.4906  -47.1598 H         1 UNK         0.0800 
    136 H136        0.1113  -15.1315  -49.1894 H         1 UNK         0.1150 
    137 H137        0.9697  -18.9445  -50.9460 H         1 UNK         0.1150 
    138 H138        3.5521  -17.3564  -47.9174 H         1 UNK         0.1150 
    139 H139        3.0771  -20.0403  -50.4815 H         1 UNK         0.0800 
    140 H140        4.2717  -19.2612  -49.4752 H         1 UNK         0.0800 
    141 H141        0.9668  -21.2831  -49.5400 H         1 UNK         0.0800 
    142 H142        0.4890  -20.1605  -48.2830 H         1 UNK         0.0800 
    143 H143        1.2697  -23.0634  -47.7496 H         1 UNK         0.0600 
    144 H144        0.7272  -20.9452  -45.9305 H         1 UNK         0.3000 
    145 H145       -0.1742  -23.0682  -43.1538 H         1 UNK         0.0600 
    146 H146        1.5998  -21.6315  -42.1634 H         1 UNK         0.0600 
    147 H147        2.2921  -22.8686  -43.2025 H         1 UNK         0.0600 
    148 H148        2.1820  -21.2105  -43.7722 H         1 UNK         0.0600 
    149 H149       -0.1357  -20.2296  -43.4089 H         1 UNK         0.3000 
    150 H150       -3.5527  -19.8520  -44.4440 H         1 UNK         0.0600 
    151 H151       -3.5946  -20.1551  -41.9613 H         1 UNK         0.0600 
    152 H152       -3.5896  -18.4544  -42.4045 H         1 UNK         0.0600 
    153 H153       -2.1141  -19.2148  -41.8143 H         1 UNK         0.0600 
    154 H154       -1.6048  -17.8927  -43.8696 H         1 UNK         0.3000 
    155 H155       -0.0847  -17.7317  -47.1206 H         1 UNK         0.0600 
    156 H156       -1.9796  -15.9428  -45.5078 H         1 UNK         0.0600 
    157 H157       -0.7190  -15.3176  -46.5649 H         1 UNK         0.0600 
    158 H158       -2.0289  -16.2779  -47.2292 H         1 UNK         0.0600 
    159 H159        0.5466  -16.3602  -44.7133 H         1 UNK         0.3000 
    160 H160        2.8119  -18.7919  -43.3740 H         1 UNK         0.0600 
    161 H161        3.3753  -16.0254  -44.5199 H         1 UNK         0.0600 
    162 H162        4.0776  -17.5055  -45.1720 H         1 UNK         0.0600 
    163 H163        4.4349  -17.0092  -43.5229 H         1 UNK         0.0600 
    164 H164        1.9746  -16.1158  -42.6347 H         1 UNK         0.3000 
    165 H165       -0.6459  -17.1967  -40.4491 H         1 UNK         0.0600 
    166 H166        0.6728  -15.7926  -38.8893 H         1 UNK         0.0600 
    167 H167        1.4845  -17.3294  -39.1423 H         1 UNK         0.0600 
    168 H168        2.0813  -15.8827  -39.9471 H         1 UNK         0.0600 
    169 H169        0.3197  -14.6052  -41.1493 H         1 UNK         0.3000 
    170 H170       -1.5173  -14.0989  -44.1015 H         1 UNK         0.0600 
    171 H171       -3.4067  -13.9153  -42.4819 H         1 UNK         0.0600 
    172 H172       -2.3607  -13.0808  -41.3392 H         1 UNK         0.0600 
    173 H173       -2.7567  -12.3360  -42.8892 H         1 UNK         0.0600 
    174 H174       -0.2784  -12.2376  -42.3615 H         1 UNK         0.3000 
    175 H175        1.6122  -11.1991  -43.8275 H         1 UNK         0.0600 
    176 H176        2.5482  -12.6359  -41.2881 H         1 UNK         0.0600 
    177 H177        3.0363  -11.0025  -41.7333 H         1 UNK         0.0600 
    178 H178        1.3529  -11.3541  -41.4069 H         1 UNK         0.0600 
    179 H179        3.4710  -11.6836  -44.8331 H         1 UNK         0.3000 
    180 H180        6.3782  -12.8095  -43.9591 H         1 UNK         0.0600 
    181 H181        5.1700  -14.9634  -45.7664 H         1 UNK         0.0600 
    182 H182        6.1080  -15.2383  -44.3036 H         1 UNK         0.0600 
    183 H183        6.8712  -14.5130  -45.7064 H         1 UNK         0.0600 
    184 H184        5.0192  -12.6168  -46.5821 H         1 UNK         0.3000 
    185 H185        5.2414   -9.1162  -46.7192 H         1 UNK         0.0600 
    186 H186        7.5708   -9.6646  -47.4463 H         1 UNK         0.0600 
    187 H187        6.9763  -11.0621  -48.3347 H         1 UNK         0.0600 
    188 H188        6.5109   -9.4328  -48.8268 H         1 UNK         0.0600 
    189 H189        4.5354  -11.0212  -48.7050 H         1 UNK         0.3000 
    190 H190       -1.7770  -21.2755  -47.0675 H         1 UNK         0.3000 
    191 H191       -3.3976  -22.5502  -48.9960 H         1 UNK         0.0600 
    192 H192       -4.1828  -21.4354  -46.2499 H         1 UNK         0.0600 
    193 H193       -5.2758  -21.7508  -47.5922 H         1 UNK         0.0600 
    194 H194       -4.0515  -20.5004  -47.7369 H         1 UNK         0.0600 
    195 H195       -2.6736  -23.4886  -45.5959 H         1 UNK         0.3000 
    196 H196       -4.2815  -25.8357  -45.5449 H         1 UNK         0.0600 
    197 H197       -2.9192  -26.3938  -43.5252 H         1 UNK         0.0600 
    198 H198       -3.4667  -24.7245  -43.4917 H         1 UNK         0.0600 
    199 H199       -1.7964  -25.0955  -43.9118 H         1 UNK         0.0600 
    200 H200       -0.8605  -25.3239  -46.4823 H         1 UNK         0.3000 
    201 H201       -0.2203  -28.0627  -46.9499 H         1 UNK         0.0600 
    202 H202        1.4999  -26.3042  -46.6233 H         1 UNK         0.0600 
    203 H203        1.0230  -25.5227  -48.1287 H         1 UNK         0.0600 
    204 H204        1.7424  -27.1266  -48.1573 H         1 UNK         0.0600 
    205 H205       -1.4569  -25.4929  -49.1377 H         1 UNK         0.3000 
    206 H206       -1.5876  -27.1057  -51.5012 H         1 UNK         0.0600 
    207 H207       -1.6076  -24.6254  -51.5679 H         1 UNK         0.0600 
    208 H208       -3.0631  -25.2567  -52.3252 H         1 UNK         0.0600 
    209 H209       -3.1420  -24.5824  -50.7034 H         1 UNK         0.0600 
    210 H210       -3.8733  -26.4520  -48.8783 H         1 UNK         0.3000 
    211 H211       -5.7098  -27.3505  -48.1113 H         1 UNK         0.0600 
    212 H212       -5.2141  -29.8019  -49.8804 H         1 UNK         0.0600 
    213 H213       -6.2566  -29.7193  -48.4675 H         1 UNK         0.0600 
    214 H214       -4.5191  -29.5504  -48.2788 H         1 UNK         0.0600 
    215 H215       -5.7367  -25.6116  -50.4706 H         1 UNK         0.3000 
    216 H216       -8.5004  -25.6627  -51.1693 H         1 UNK         0.0600 
    217 H217       -6.4428  -26.4012  -53.3483 H         1 UNK         0.0600 
    218 H218       -8.1222  -25.9786  -53.6601 H         1 UNK         0.0600 
    219 H219       -7.7425  -27.4458  -52.7810 H         1 UNK         0.0600 
    220 H220       -8.9246  -23.8358  -52.7013 H         1 UNK         0.3000 
    221 H221       -7.3436  -21.4743  -52.0804 H         1 UNK         0.0600 
    222 H222       -9.8266  -21.4347  -52.0471 H         1 UNK         0.0600 
    223 H223       -9.8700  -21.8222  -53.7675 H         1 UNK         0.0600 
    224 H224       -9.1894  -20.2943  -53.2179 H         1 UNK         0.0600 
    225 H225       -5.7025  -23.1736  -53.4344 H         1 UNK         0.3000 
    226 H226       -5.4708  -22.8335  -56.2570 H         1 UNK         0.0600 
    227 H227       -4.3107  -24.6341  -54.9815 H         1 UNK         0.0600 
    228 H228       -3.1404  -23.6563  -55.8553 H         1 UNK         0.0600 
    229 H229       -3.3461  -23.4347  -54.1218 H         1 UNK         0.0600 
    230 H230       -4.8798  -21.0895  -57.3938 H         1 UNK         0.3000 
    231 H231       -4.3567  -19.0300  -58.0008 H         1 UNK         0.0600 
    232 H232       -2.1437  -19.1193  -55.8813 H         1 UNK         0.0600 
    233 H233       -2.2077  -18.0655  -57.2867 H         1 UNK         0.0600 
    234 H234       -2.0153  -19.7962  -57.5042 H         1 UNK         0.0600 
    235 H235       -6.3591  -19.4028  -55.9043 H         1 UNK         0.3000 
    236 H236       -7.7755  -18.3356  -54.6295 H         1 UNK         0.0600 
    237 H237       -8.0448  -15.9057  -54.6712 H         1 UNK         0.0600 
    238 H238       -6.4312  -15.6742  -55.3231 H         1 UNK         0.0600 
    239 H239       -7.6769  -16.4563  -56.2965 H         1 UNK         0.0600 
    240 H240       -4.9473  -19.1316  -53.7108 H         1 UNK         0.3000 
    241 H241       -4.9403  -17.8044  -51.0449 H         1 UNK         0.0600 
    242 H242       -4.8832  -21.9617  -51.3038 H         1 UNK         0.3800 
    243 H243       -4.1611  -21.0317  -52.6041 H         1 UNK         0.3800 
    244 H244       -2.5864  -19.2520  -52.3670 H         1 UNK         0.0800 
    245 H245       -2.9008  -17.5587  -52.6050 H         1 UNK         0.0800 
    246 H246       -0.5777  -17.2457  -52.0434 H         1 UNK         0.0800 
    247 H247       -1.1790  -15.8984  -51.1049 H         1 UNK         0.0800 
@<TRIPOS>BOND
     1    1    2 1    
     2    1  127 1    
     3    1  128 1    
     4    1  129 1    
     5    2    3 2    
     6    2    4 am   BACKBONE|DICT|INTERRES
     7    4    5 1    
     8    4  130 1    
     9    5    6 1    
    10    5   65 1    
    11    5  131 1    
    12    6    7 1    
    13    6  132 1    
    14    6  133 1    
    15    7    8 1    
    16    8    9 1    
    17    8  134 1    
    18    8  135 1    
    19    9   10 ar   
    20    9   14 ar   
    21   10   11 ar   
    22   10  136 1    
    23   11   12 ar   
    24   11  126 1    
    25   12   13 ar   
    26   12  137 1    
    27   13   14 ar   
    28   13   15 1    
    29   14  138 1    
    30   15   16 1    
    31   15  139 1    
    32   15  140 1    
    33   16   17 1    
    34   17   18 1    
    35   17  141 1    
    36   17  142 1    
    37   18   19 1    
    38   18   67 1    
    39   18  143 1    
    40   19   20 am   BACKBONE|DICT|INTERRES
    41   19  144 1    
    42   20   21 2    
    43   20   22 1    
    44   22   23 1    
    45   22   24 1    
    46   22  145 1    
    47   23  146 1    
    48   23  147 1    
    49   23  148 1    
    50   24   25 am   BACKBONE|DICT|INTERRES
    51   24  149 1    
    52   25   26 2    
    53   25   27 1    
    54   27   28 1    
    55   27   29 1    
    56   27  150 1    
    57   28  151 1    
    58   28  152 1    
    59   28  153 1    
    60   29   30 am   BACKBONE|DICT|INTERRES
    61   29  154 1    
    62   30   31 2    
    63   30   32 1    
    64   32   33 1    
    65   32   34 1    
    66   32  155 1    
    67   33  156 1    
    68   33  157 1    
    69   33  158 1    
    70   34   35 am   BACKBONE|DICT|INTERRES
    71   34  159 1    
    72   35   36 2    
    73   35   37 1    
    74   37   38 1    
    75   37   39 1    
    76   37  160 1    
    77   38  161 1    
    78   38  162 1    
    79   38  163 1    
    80   39   40 am   BACKBONE|DICT|INTERRES
    81   39  164 1    
    82   40   41 2    
    83   40   42 1    
    84   42   43 1    
    85   42   44 1    
    86   42  165 1    
    87   43  166 1    
    88   43  167 1    
    89   43  168 1    
    90   44   45 am   BACKBONE|DICT|INTERRES
    91   44  169 1    
    92   45   46 2    
    93   45   47 1    
    94   47   48 1    
    95   47   49 1    
    96   47  170 1    
    97   48  171 1    
    98   48  172 1    
    99   48  173 1    
   100   49   50 am   BACKBONE|DICT|INTERRES
   101   49  174 1    
   102   50   51 2    
   103   50   52 1    
   104   52   53 1    
   105   52   54 1    
   106   52  175 1    
   107   53  176 1    
   108   53  177 1    
   109   53  178 1    
   110   54   55 am   BACKBONE|DICT|INTERRES
   111   54  179 1    
   112   55   56 2    
   113   55   57 1    
   114   57   58 1    
   115   57   59 1    
   116   57  180 1    
   117   58  181 1    
   118   58  182 1    
   119   58  183 1    
   120   59   60 am   BACKBONE|DICT|INTERRES
   121   59  184 1    
   122   60   61 2    
   123   60   62 1    
   124   62   63 1    
   125   62   64 1    
   126   62  185 1    
   127   63  186 1    
   128   63  187 1    
   129   63  188 1    
   130   64   65 am   BACKBONE|DICT|INTERRES
   131   64  189 1    
   132   65   66 2    
   133   67   68 2    
   134   67   69 am   BACKBONE|DICT|INTERRES
   135   69   70 1    
   136   69  190 1    
   137   70   71 1    
   138   70   72 1    
   139   70  191 1    
   140   71  192 1    
   141   71  193 1    
   142   71  194 1    
   143   72   73 2    
   144   72   74 am   BACKBONE|DICT|INTERRES
   145   74   75 1    
   146   74  195 1    
   147   75   76 1    
   148   75   77 1    
   149   75  196 1    
   150   76  197 1    
   151   76  198 1    
   152   76  199 1    
   153   77   78 2    
   154   77   79 am   BACKBONE|DICT|INTERRES
   155   79   80 1    
   156   79  200 1    
   157   80   81 1    
   158   80   82 1    
   159   80  201 1    
   160   81  202 1    
   161   81  203 1    
   162   81  204 1    
   163   82   83 2    
   164   82   84 am   BACKBONE|DICT|INTERRES
   165   84   85 1    
   166   84  205 1    
   167   85   86 1    
   168   85   87 1    
   169   85  206 1    
   170   86  207 1    
   171   86  208 1    
   172   86  209 1    
   173   87   88 2    
   174   87   89 am   BACKBONE|DICT|INTERRES
   175   89   90 1    
   176   89  210 1    
   177   90   91 1    
   178   90   92 1    
   179   90  211 1    
   180   91  212 1    
   181   91  213 1    
   182   91  214 1    
   183   92   93 2    
   184   92   94 am   BACKBONE|DICT|INTERRES
   185   94   95 1    
   186   94  215 1    
   187   95   96 1    
   188   95   97 1    
   189   95  216 1    
   190   96  217 1    
   191   96  218 1    
   192   96  219 1    
   193   97   98 2    
   194   97   99 am   BACKBONE|DICT|INTERRES
   195   99  100 1    
   196   99  220 1    
   197  100  101 1    
   198  100  102 1    
   199  100  221 1    
   200  101  222 1    
   201  101  223 1    
   202  101  224 1    
   203  102  103 2    
   204  102  104 am   BACKBONE|DICT|INTERRES
   205  104  105 1    
   206  104  225 1    
   207  105  106 1    
   208  105  107 1    
   209  105  226 1    
   210  106  227 1    
   211  106  228 1    
   212  106  229 1    
   213  107  108 2    
   214  107  109 am   BACKBONE|DICT|INTERRES
   215  109  110 1    
   216  109  230 1    
   217  110  111 1    
   218  110  112 1    
   219  110  231 1    
   220  111  232 1    
   221  111  233 1    
   222  111  234 1    
   223  112  113 2    
   224  112  114 am   BACKBONE|DICT|INTERRES
   225  114  115 1    
   226  114  235 1    
   227  115  116 1    
   228  115  117 1    
   229  115  236 1    
   230  116  237 1    
   231  116  238 1    
   232  116  239 1    
   233  117  118 2    
   234  117  119 am   BACKBONE|DICT|INTERRES
   235  119  120 1    
   236  119  240 1    
   237  120  121 1    
   238  120  124 1    
   239  120  241 1    
   240  121  122 am   BACKBONE|DICT|INTERRES
   241  121  123 2    
   242  122  242 1    
   243  122  243 1    
   244  124  125 1    
   245  124  244 1    
   246  124  245 1    
   247  125  126 1    
   248  126  246 1    
   249  126  247 1    
@<TRIPOS>SUBSTRUCTURE
     1 UNK         1 GROUP             0       ****    0 ROOT    
