@<TRIPOS>MOLECULE
3R540
247   249    1
SMALL
USER_CHARGES


@<TRIPOS>ATOM
      1 CA          2.8463  -16.2700  -48.9618 C.3       0 UNK        -0.1800 
      2 C           2.6483  -14.7913  -48.6586 C.2       0 UNK         0.5000 
      3 O           3.5109  -14.1764  -48.0327 O.2       0 UNK        -0.5000 
      4 N           1.5094  -14.2267  -49.0855 N.am      1 UNK        -0.5000 
      5 CA          1.1375  -12.8135  -48.9283 C.3       1 UNK         0.1400 
      6 C6         -0.2673  -12.5346  -49.5133 C.3       23 UNK        -0.0398 
      7 S7         -1.5851  -13.3370  -48.5357 S.3       23 UNK        -0.2404 
      8 C8         -2.4770  -14.2991  -49.7983 C.3       23 UNK        -0.0205 
      9 C9         -1.8547  -15.6697  -50.0143 C.ar      23 UNK        -0.0193 
     10 C10        -0.8693  -15.8586  -50.9858 C.ar      23 UNK        -0.1150 
     11 C11        -0.3050  -17.1215  -51.1821 C.ar      23 UNK        -0.0193 
     12 C12        -0.7447  -18.2011  -50.4106 C.ar      23 UNK        -0.1150 
     13 C13        -1.7448  -18.0344  -49.4423 C.ar      23 UNK        -0.0193 
     14 C14        -2.2816  -16.7578  -49.2481 C.ar      23 UNK        -0.1150 
     15 C15        -2.2802  -19.1802  -48.5777 C.3       23 UNK        -0.0205 
     16 S16        -1.5233  -20.8169  -48.8621 S.3       23 UNK        -0.2404 
     17 C17        -2.2794  -21.8043  -47.5282 C.3       23 UNK        -0.0398 
     18 CA         -1.3353  -22.9412  -47.0711 C.3       11 UNK         0.1400 
     19 N          -0.1658  -22.4581  -46.3365 N.am      11 UNK        -0.5000 
     20 C           0.9132  -23.2012  -46.0591 C.2       10 UNK         0.5000 
     21 O           1.0315  -24.3805  -46.3896 O.2       10 UNK        -0.5000 
     22 CA          2.0279  -22.5321  -45.2383 C.3       10 UNK         0.1400 
     23 CB          2.8530  -21.5735  -46.1104 C.3       10 UNK        -0.1800 
     24 N           1.5128  -21.8203  -44.0694 N.am      10 UNK        -0.5000 
     25 C           0.8797  -22.4035  -43.0417 C.2       9 UNK         0.5000 
     26 O           0.6820  -23.6167  -42.9577 O.2       9 UNK        -0.5000 
     27 CA          0.3426  -21.4688  -41.9418 C.3       9 UNK         0.1400 
     28 CB          1.4723  -21.0033  -41.0108 C.3       9 UNK        -0.1800 
     29 N          -0.3539  -20.3030  -42.4861 N.am      9 UNK        -0.5000 
     30 C          -1.4869  -20.3655  -43.1999 C.2       8 UNK         0.5000 
     31 O          -2.0835  -21.4110  -43.4533 O.2       8 UNK        -0.5000 
     32 CA         -2.0164  -19.0416  -43.7754 C.3       8 UNK         0.1400 
     33 CB         -2.7514  -18.2327  -42.6965 C.3       8 UNK        -0.1800 
     34 N          -0.9654  -18.2199  -44.3734 N.am      8 UNK        -0.5000 
     35 C          -0.1692  -18.6088  -45.3792 C.2       7 UNK         0.5000 
     36 O          -0.2302  -19.7119  -45.9145 O.2       7 UNK        -0.5000 
     37 CA          0.9092  -17.6151  -45.8309 C.3       7 UNK         0.1400 
     38 CB          0.2701  -16.4488  -46.6011 C.3       7 UNK        -0.1800 
     39 N           1.6897  -17.1049  -44.7044 N.am      7 UNK        -0.5000 
     40 C           2.3929  -17.8559  -43.8431 C.2       6 UNK         0.5000 
     41 O           2.5006  -19.0794  -43.9211 O.2       6 UNK        -0.5000 
     42 CA          3.0456  -17.1158  -42.6650 C.3       6 UNK         0.1400 
     43 CB          4.4041  -16.5241  -43.0708 C.3       6 UNK        -0.1800 
     44 N           2.1755  -16.0564  -42.1568 N.am      6 UNK        -0.5000 
     45 C           1.0649  -16.2748  -41.4384 C.2       5 UNK         0.5000 
     46 O           0.6958  -17.3904  -41.0685 O.2       5 UNK        -0.5000 
     47 CA          0.2040  -15.0384  -41.1166 C.3       5 UNK         0.1400 
     48 CB          0.7646  -14.2857  -39.9006 C.3       5 UNK        -0.1800 
     49 N           0.0955  -14.1182  -42.2517 N.am      5 UNK        -0.5000 
     50 C          -0.5453  -14.4076  -43.3926 C.2       4 UNK         0.5000 
     51 O          -1.1429  -15.4652  -43.5857 O.2       4 UNK        -0.5000 
     52 CA         -0.4861  -13.3627  -44.5224 C.3       4 UNK         0.1400 
     53 CB         -1.6740  -12.3952  -44.4263 C.3       4 UNK        -0.1800 
     54 N           0.7561  -12.5892  -44.5910 N.am      4 UNK        -0.5000 
     55 C           1.9958  -13.0797  -44.7199 C.2       3 UNK         0.5000 
     56 O           2.2597  -14.2801  -44.6527 O.2       3 UNK        -0.5000 
     57 CA          3.1076  -12.0456  -45.0056 C.3       3 UNK         0.1400 
     58 CB          4.5160  -12.6654  -44.9812 C.3       3 UNK        -0.1800 
     59 N           2.8920  -11.3807  -46.2965 N.am      3 UNK        -0.5000 
     60 C           1.9762  -10.4260  -46.5147 C.2       2 UNK         0.5000 
     61 O           1.2830   -9.9486  -45.6149 O.2       2 UNK        -0.5000 
     62 CA          1.7397   -9.9419  -47.9592 C.3       2 UNK         0.1400 
     63 CB          2.0943   -8.4510  -48.0814 C.3       2 UNK        -0.1800 
     64 N           2.4601  -10.6679  -49.0119 N.am      2 UNK        -0.5000 
     65 C           2.1997  -11.8685  -49.5540 C.2       1 UNK         0.5000 
     66 O           2.7977  -12.2353  -50.5669 O.2       1 UNK        -0.5000 
     67 C          -2.0971  -24.0338  -46.2995 C.2       11 UNK         0.5000 
     68 O          -2.5343  -24.9974  -46.9262 O.2       11 UNK        -0.5000 
     69 N          -2.2004  -23.9137  -44.9674 N.am      12 UNK        -0.5000 
     70 CA         -2.7826  -24.9416  -44.1009 C.3       12 UNK         0.1400 
     71 CB         -2.9210  -24.4077  -42.6675 C.3       12 UNK        -0.1800 
     72 C          -1.9819  -26.2570  -44.1174 C.2       12 UNK         0.5000 
     73 O          -2.5846  -27.3294  -44.1712 O.2       12 UNK        -0.5000 
     74 N          -0.6453  -26.1526  -44.1071 N.am      13 UNK        -0.5000 
     75 CA          0.2707  -27.2895  -44.2105 C.3       13 UNK         0.1400 
     76 CB          1.6922  -26.8362  -43.8441 C.3       13 UNK        -0.1800 
     77 C           0.2450  -27.9505  -45.6026 C.2       13 UNK         0.5000 
     78 O           0.2610  -29.1787  -45.6929 O.2       13 UNK        -0.5000 
     79 N           0.1939  -27.1280  -46.6589 N.am      14 UNK        -0.5000 
     80 CA          0.1562  -27.5615  -48.0578 C.3       14 UNK         0.1400 
     81 CB          0.5675  -26.3792  -48.9499 C.3       14 UNK        -0.1800 
     82 C          -1.2125  -28.1077  -48.5117 C.2       14 UNK         0.5000 
     83 O          -1.2729  -28.7712  -49.5475 O.2       14 UNK        -0.5000 
     84 N          -2.2768  -27.7930  -47.7585 N.am      15 UNK        -0.5000 
     85 CA         -3.6935  -27.9986  -48.0851 C.3       15 UNK         0.1400 
     86 CB         -4.0392  -29.4983  -48.1973 C.3       15 UNK        -0.1800 
     87 C          -4.1225  -27.1686  -49.3161 C.2       15 UNK         0.5000 
     88 O          -4.8423  -27.6585  -50.1887 O.2       15 UNK        -0.5000 
     89 N          -3.6487  -25.9193  -49.3536 N.am      16 UNK        -0.5000 
     90 CA         -3.9320  -24.9083  -50.3674 C.3       16 UNK         0.1400 
     91 CB         -2.6018  -24.2332  -50.7388 C.3       16 UNK        -0.1800 
     92 C          -4.9416  -23.8798  -49.8235 C.2       16 UNK         0.5000 
     93 O          -5.2806  -23.9136  -48.6373 O.2       16 UNK        -0.5000 
     94 N          -5.4002  -22.9743  -50.6951 N.am      17 UNK        -0.5000 
     95 CA         -6.3441  -21.9097  -50.3646 C.3       17 UNK         0.1400 
     96 CB         -7.7199  -22.2467  -50.9602 C.3       17 UNK        -0.1800 
     97 C          -5.8264  -20.5671  -50.8975 C.2       17 UNK         0.5000 
     98 O          -5.3355  -20.4982  -52.0299 O.2       17 UNK        -0.5000 
     99 N          -5.9718  -19.5226  -50.0722 N.am      18 UNK        -0.5000 
    100 CA        -5.6103  -18.1404  -50.3808 C.3       18 UNK         0.1400 
    101 CB        -5.7996  -17.2810  -49.1210 C.3       18 UNK        -0.1800 
    102 C         -6.4481  -17.5782  -51.5406 C.2       18 UNK         0.5000 
    103 O         -7.6541  -17.8270  -51.5973 O.2       18 UNK        -0.5000 
    104 N         -5.7814  -16.8460  -52.4429 N.am      19 UNK        -0.5000 
    105 CA        -6.3149  -16.2368  -53.6705 C.3       19 UNK         0.1400 
    106 CB        -7.4075  -15.1969  -53.3444 C.3       19 UNK        -0.1800 
    107 C         -6.7761  -17.2485  -54.7468 C.2       19 UNK         0.5000 
    108 O         -7.3209  -16.8290  -55.7694 O.2       19 UNK        -0.5000 
    109 N         -6.5402  -18.5471  -54.5174 N.am      20 UNK        -0.5000 
    110 CA        -6.8225  -19.6366  -55.4480 C.3       20 UNK         0.1400 
    111 CB        -7.7734  -20.6450  -54.7853 C.3       20 UNK        -0.1800 
    112 C         -5.5105  -20.3097  -55.8718 C.2       20 UNK         0.5000 
    113 O         -5.2757  -20.4773  -57.0691 O.2       20 UNK        -0.5000 
    114 N         -4.6632  -20.6577  -54.8913 N.am      21 UNK        -0.5000 
    115 CA        -3.3431  -21.2499  -55.1228 C.3       21 UNK         0.1400 
    116 CB        -2.8809  -21.9460  -53.8360 C.3       21 UNK        -0.1800 
    117 C         -2.2923  -20.2243  -55.5904 C.2       21 UNK         0.5000 
    118 O         -1.3169  -20.6113  -56.2355 O.2       21 UNK        -0.5000 
    119 N         -2.5149  -18.9474  -55.2630 N.am      22 UNK        -0.5000 
    120 CA        -1.6812  -17.8000  -55.6380 C.3       22 UNK         0.1400 
    121 C         -2.5589  -16.7389  -56.3464 C.2       22 UNK         0.5000 
    122 N         -2.0635  -16.1157  -57.4062 N.am      22 UNK        -0.7600 
    123 O         -3.6742  -16.4498  -55.9199 O.2       22 UNK        -0.5000 
    124 C124       -0.9788  -17.1766  -54.4053 C.3       23 UNK        -0.0398 
    125 S125        0.2235  -18.3123  -53.6369 S.3       23 UNK        -0.2404 
    126 C126        0.7907  -17.3227  -52.2189 C.3       23 UNK        -0.0205 
    127 H127        1.9326  -16.7338  -49.3323 H         1 UNK         0.0600 
    128 H128        3.1512  -16.7997  -48.0592 H         1 UNK         0.0600 
    129 H129        3.6251  -16.3979  -49.7133 H         1 UNK         0.0600 
    130 H130        0.8356  -14.7954  -49.5771 H         1 UNK         0.3000 
    131 H131        1.0949  -12.6420  -47.8550 H         1 UNK         0.0600 
    132 H132       -0.4877  -11.4667  -49.5212 H         1 UNK         0.0800 
    133 H133       -0.3154  -12.8511  -50.5560 H         1 UNK         0.0800 
    134 H134       -3.5116  -14.4173  -49.4729 H         1 UNK         0.0800 
    135 H135       -2.5231  -13.7438  -50.7363 H         1 UNK         0.0800 
    136 H136       -0.5418  -15.0243  -51.5897 H         1 UNK         0.1150 
    137 H137       -0.2988  -19.1688  -50.5847 H         1 UNK         0.1150 
    138 H138       -3.0380  -16.6070  -48.4915 H         1 UNK         0.1150 
    139 H139       -2.1565  -18.9072  -47.5305 H         1 UNK         0.0800 
    140 H140       -3.3525  -19.2756  -48.7452 H         1 UNK         0.0800 
    141 H141       -3.2193  -22.2020  -47.9135 H         1 UNK         0.0800 
    142 H142       -2.5383  -21.1635  -46.6837 H         1 UNK         0.0800 
    143 H143       -0.9492  -23.4280  -47.9678 H         1 UNK         0.0600 
    144 H144       -0.1744  -21.4738  -46.0692 H         1 UNK         0.3000 
    145 H145        2.6932  -23.3204  -44.8801 H         1 UNK         0.0600 
    146 H146        3.6946  -21.1613  -45.5536 H         1 UNK         0.0600 
    147 H147        3.2590  -22.0892  -46.9814 H         1 UNK         0.0600 
    148 H148        2.2529  -20.7384  -46.4727 H         1 UNK         0.0600 
    149 H149        1.6548  -20.8139  -44.0536 H         1 UNK         0.3000 
    150 H150       -0.3745  -22.0372  -41.3458 H         1 UNK         0.0600 
    151 H151        1.9903  -21.8558  -40.5697 H         1 UNK         0.0600 
    152 H152        1.0831  -20.3986  -40.1914 H         1 UNK         0.0600 
    153 H153        2.2146  -20.4062  -41.5412 H         1 UNK         0.0600 
    154 H154        0.0766  -19.4002  -42.3352 H         1 UNK         0.3000 
    155 H155       -2.7302  -19.2865  -44.5645 H         1 UNK         0.0600 
    156 H156       -2.0726  -17.9026  -41.9090 H         1 UNK         0.0600 
    157 H157       -3.2227  -17.3469  -43.1228 H         1 UNK         0.0600 
    158 H158       -3.5377  -18.8263  -42.2285 H         1 UNK         0.0600 
    159 H159       -0.8718  -17.2732  -44.0127 H         1 UNK         0.3000 
    160 H160        1.6030  -18.1327  -46.4960 H         1 UNK         0.0600 
    161 H161        0.0777  -16.7357  -47.6336 H         1 UNK         0.0600 
    162 H162        0.9170  -15.5749  -46.6183 H         1 UNK         0.0600 
    163 H163       -0.6833  -16.1375  -46.1747 H         1 UNK         0.0600 
    164 H164        1.7175  -16.0957  -44.5882 H         1 UNK         0.3000 
    165 H165        3.2160  -17.8397  -41.8650 H         1 UNK         0.0600 
    166 H166        4.8819  -16.0204  -42.2306 H         1 UNK         0.0600 
    167 H167        5.0825  -17.3085  -43.4085 H         1 UNK         0.0600 
    168 H168        4.3087  -15.8039  -43.8837 H         1 UNK         0.0600 
    169 H169        2.3640  -15.1210  -42.4894 H         1 UNK         0.3000 
    170 H170       -0.7996  -15.3893  -40.8667 H         1 UNK         0.0600 
    171 H171        1.7595  -13.8841  -40.0968 H         1 UNK         0.0600 
    172 H172        0.1168  -13.4557  -39.6181 H         1 UNK         0.0600 
    173 H173        0.8415  -14.9457  -39.0355 H         1 UNK         0.0600 
    174 H174        0.5633  -13.2273  -42.1727 H         1 UNK         0.3000 
    175 H175       -0.5751  -13.9001  -45.4669 H         1 UNK         0.0600 
    176 H176       -1.7079  -11.7274  -45.2875 H         1 UNK         0.0600 
    177 H177       -1.6216  -11.7820  -43.5259 H         1 UNK         0.0600 
    178 H178       -2.6199  -12.9383  -44.4016 H         1 UNK         0.0600 
    179 H179        0.6527  -11.5839  -44.6877 H         1 UNK         0.3000 
    180 H180        3.0678  -11.2980  -44.2106 H         1 UNK         0.0600 
    181 H181        4.6357  -13.4332  -45.7457 H         1 UNK         0.0600 
    182 H182        4.7197  -13.1314  -44.0164 H         1 UNK         0.0600 
    183 H183        5.2829  -11.9082  -45.1440 H         1 UNK         0.0600 
    184 H184        3.4061  -11.7570  -47.0817 H         1 UNK         0.3000 
    185 H185        0.6698  -10.0371  -48.1465 H         1 UNK         0.0600 
    186 H186        3.1576   -8.2756  -47.9122 H         1 UNK         0.0600 
    187 H187        1.8431   -8.0646  -49.0694 H         1 UNK         0.0600 
    188 H188        1.5439   -7.8519  -47.3545 H         1 UNK         0.0600 
    189 H189        3.1996  -10.1330  -49.4432 H         1 UNK         0.3000 
    190 H190       -1.8613  -23.0725  -44.5099 H         1 UNK         0.3000 
    191 H191       -3.7846  -25.1623  -44.4751 H         1 UNK         0.0600 
    192 H192       -3.5872  -23.5458  -42.6320 H         1 UNK         0.0600 
    193 H193       -3.3389  -25.1668  -42.0051 H         1 UNK         0.0600 
    194 H194       -1.9583  -24.1046  -42.2550 H         1 UNK         0.0600 
    195 H195       -0.2256  -25.2329  -44.0258 H         1 UNK         0.3000 
    196 H196       -0.0404  -28.0406  -43.4813 H         1 UNK         0.0600 
    197 H197        2.3921  -27.6715  -43.8876 H         1 UNK         0.0600 
    198 H198        1.7277  -26.4334  -42.8316 H         1 UNK         0.0600 
    199 H199        2.0585  -26.0646  -44.5216 H         1 UNK         0.0600 
    200 H200        0.2603  -26.1261  -46.4978 H         1 UNK         0.3000 
    201 H201        0.8890  -28.3599  -48.1913 H         1 UNK         0.0600 
    202 H202        1.5594  -26.0113  -48.6868 H         1 UNK         0.0600 
    203 H203       -0.1332  -25.5486  -48.8603 H         1 UNK         0.0600 
    204 H204        0.5973  -26.6705  -50.0006 H         1 UNK         0.0600 
    205 H205       -2.1075  -27.1919  -46.9618 H         1 UNK         0.3000 
    206 H206       -4.2555  -27.5973  -47.2404 H         1 UNK         0.0600 
    207 H207       -3.7130  -30.0445  -47.3122 H         1 UNK         0.0600 
    208 H208       -5.1164  -29.6416  -48.2885 H         1 UNK         0.0600 
    209 H209       -3.5760  -29.9618  -49.0684 H         1 UNK         0.0600 
    210 H210       -3.1592  -25.5834  -48.5263 H         1 UNK         0.3000 
    211 H211       -4.3586  -25.3703  -51.2599 H         1 UNK         0.0600 
    212 H212       -2.1413  -23.7541  -49.8774 H         1 UNK         0.0600 
    213 H213       -2.7391  -23.4647  -51.4963 H         1 UNK         0.0600 
    214 H214       -1.8905  -24.9575  -51.1364 H         1 UNK         0.0600 
    215 H215       -5.0395  -22.9510  -51.6387 H         1 UNK         0.3000 
    216 H216       -6.4547  -21.8189  -49.2819 H         1 UNK         0.0600 
    217 H217       -8.4264  -21.4294  -50.8094 H         1 UNK         0.0600 
    218 H218       -8.1421  -23.1337  -50.4877 H         1 UNK         0.0600 
    219 H219       -7.6599  -22.4398  -52.0309 H         1 UNK         0.0600 
    220 H220       -6.4303  -19.6680  -49.1850 H         1 UNK         0.3000 
    221 H221       -4.5556  -18.1267  -50.6632 H         1 UNK         0.0600 
    222 H222       -5.4822  -16.2529  -49.2992 H         1 UNK         0.0600 
    223 H223       -5.2146  -17.6631  -48.2847 H         1 UNK         0.0600 
    224 H224       -6.8445  -17.2508  -48.8091 H         1 UNK         0.0600 
    225 H225       -4.7908  -16.7056  -52.3005 H         1 UNK         0.3000 
    226 H226       -5.4802  -15.6931  -54.1136 H         1 UNK         0.0600 
    227 H227       -7.0651  -14.4869  -52.5917 H         1 UNK         0.0600 
    228 H228       -7.6759  -14.6219  -54.2314 H         1 UNK         0.0600 
    229 H229       -8.3198  -15.6657  -52.9753 H         1 UNK         0.0600 
    230 H230       -6.1095  -18.8041  -53.6407 H         1 UNK         0.3000 
    231 H231       -7.3071  -19.2598  -56.3510 H         1 UNK         0.0600 
    232 H232       -7.3452  -21.0640  -53.8758 H         1 UNK         0.0600 
    233 H233       -7.9955  -21.4741  -55.4582 H         1 UNK         0.0600 
    234 H234       -8.7209  -20.1752  -54.5211 H         1 UNK         0.0600 
    235 H235       -4.9333  -20.5342  -53.9195 H         1 UNK         0.3000 
    236 H236       -3.4326  -22.0088  -55.9030 H         1 UNK         0.0600 
    237 H237       -3.5879  -22.7219  -53.5444 H         1 UNK         0.0600 
    238 H238       -1.9101  -22.4238  -53.9742 H         1 UNK         0.0600 
    239 H239       -2.7867  -21.2425  -53.0074 H         1 UNK         0.0600 
    240 H240       -3.3761  -18.7172  -54.7903 H         1 UNK         0.3000 
    241 H241       -0.9122  -18.1179  -56.3450 H         1 UNK         0.0600 
    242 H242       -1.1472  -16.3300  -57.7693 H         1 UNK         0.3800 
    243 H243       -2.6240  -15.4143  -57.8652 H         1 UNK         0.3800 
    244 H244       -0.4440  -16.2681  -54.6880 H         1 UNK         0.0800 
    245 H245       -1.7172  -16.8819  -53.6577 H         1 UNK         0.0800 
    246 H246        1.1742  -16.3653  -52.5751 H         1 UNK         0.0800 
    247 H247        1.6333  -17.8330  -51.7503 H         1 UNK         0.0800 
@<TRIPOS>BOND
     1    1    2 1    
     2    1  127 1    
     3    1  128 1    
     4    1  129 1    
     5    2    3 2    
     6    2    4 am   BACKBONE|DICT|INTERRES
     7    4    5 1    
     8    4  130 1    
     9    5    6 1    
    10    5   65 1    
    11    5  131 1    
    12    6    7 1    
    13    6  132 1    
    14    6  133 1    
    15    7    8 1    
    16    8    9 1    
    17    8  134 1    
    18    8  135 1    
    19    9   10 ar   
    20    9   14 ar   
    21   10   11 ar   
    22   10  136 1    
    23   11   12 ar   
    24   11  126 1    
    25   12   13 ar   
    26   12  137 1    
    27   13   14 ar   
    28   13   15 1    
    29   14  138 1    
    30   15   16 1    
    31   15  139 1    
    32   15  140 1    
    33   16   17 1    
    34   17   18 1    
    35   17  141 1    
    36   17  142 1    
    37   18   19 1    
    38   18   67 1    
    39   18  143 1    
    40   19   20 am   BACKBONE|DICT|INTERRES
    41   19  144 1    
    42   20   21 2    
    43   20   22 1    
    44   22   23 1    
    45   22   24 1    
    46   22  145 1    
    47   23  146 1    
    48   23  147 1    
    49   23  148 1    
    50   24   25 am   BACKBONE|DICT|INTERRES
    51   24  149 1    
    52   25   26 2    
    53   25   27 1    
    54   27   28 1    
    55   27   29 1    
    56   27  150 1    
    57   28  151 1    
    58   28  152 1    
    59   28  153 1    
    60   29   30 am   BACKBONE|DICT|INTERRES
    61   29  154 1    
    62   30   31 2    
    63   30   32 1    
    64   32   33 1    
    65   32   34 1    
    66   32  155 1    
    67   33  156 1    
    68   33  157 1    
    69   33  158 1    
    70   34   35 am   BACKBONE|DICT|INTERRES
    71   34  159 1    
    72   35   36 2    
    73   35   37 1    
    74   37   38 1    
    75   37   39 1    
    76   37  160 1    
    77   38  161 1    
    78   38  162 1    
    79   38  163 1    
    80   39   40 am   BACKBONE|DICT|INTERRES
    81   39  164 1    
    82   40   41 2    
    83   40   42 1    
    84   42   43 1    
    85   42   44 1    
    86   42  165 1    
    87   43  166 1    
    88   43  167 1    
    89   43  168 1    
    90   44   45 am   BACKBONE|DICT|INTERRES
    91   44  169 1    
    92   45   46 2    
    93   45   47 1    
    94   47   48 1    
    95   47   49 1    
    96   47  170 1    
    97   48  171 1    
    98   48  172 1    
    99   48  173 1    
   100   49   50 am   BACKBONE|DICT|INTERRES
   101   49  174 1    
   102   50   51 2    
   103   50   52 1    
   104   52   53 1    
   105   52   54 1    
   106   52  175 1    
   107   53  176 1    
   108   53  177 1    
   109   53  178 1    
   110   54   55 am   BACKBONE|DICT|INTERRES
   111   54  179 1    
   112   55   56 2    
   113   55   57 1    
   114   57   58 1    
   115   57   59 1    
   116   57  180 1    
   117   58  181 1    
   118   58  182 1    
   119   58  183 1    
   120   59   60 am   BACKBONE|DICT|INTERRES
   121   59  184 1    
   122   60   61 2    
   123   60   62 1    
   124   62   63 1    
   125   62   64 1    
   126   62  185 1    
   127   63  186 1    
   128   63  187 1    
   129   63  188 1    
   130   64   65 am   BACKBONE|DICT|INTERRES
   131   64  189 1    
   132   65   66 2    
   133   67   68 2    
   134   67   69 am   BACKBONE|DICT|INTERRES
   135   69   70 1    
   136   69  190 1    
   137   70   71 1    
   138   70   72 1    
   139   70  191 1    
   140   71  192 1    
   141   71  193 1    
   142   71  194 1    
   143   72   73 2    
   144   72   74 am   BACKBONE|DICT|INTERRES
   145   74   75 1    
   146   74  195 1    
   147   75   76 1    
   148   75   77 1    
   149   75  196 1    
   150   76  197 1    
   151   76  198 1    
   152   76  199 1    
   153   77   78 2    
   154   77   79 am   BACKBONE|DICT|INTERRES
   155   79   80 1    
   156   79  200 1    
   157   80   81 1    
   158   80   82 1    
   159   80  201 1    
   160   81  202 1    
   161   81  203 1    
   162   81  204 1    
   163   82   83 2    
   164   82   84 am   BACKBONE|DICT|INTERRES
   165   84   85 1    
   166   84  205 1    
   167   85   86 1    
   168   85   87 1    
   169   85  206 1    
   170   86  207 1    
   171   86  208 1    
   172   86  209 1    
   173   87   88 2    
   174   87   89 am   BACKBONE|DICT|INTERRES
   175   89   90 1    
   176   89  210 1    
   177   90   91 1    
   178   90   92 1    
   179   90  211 1    
   180   91  212 1    
   181   91  213 1    
   182   91  214 1    
   183   92   93 2    
   184   92   94 am   BACKBONE|DICT|INTERRES
   185   94   95 1    
   186   94  215 1    
   187   95   96 1    
   188   95   97 1    
   189   95  216 1    
   190   96  217 1    
   191   96  218 1    
   192   96  219 1    
   193   97   98 2    
   194   97   99 am   BACKBONE|DICT|INTERRES
   195   99  100 1    
   196   99  220 1    
   197  100  101 1    
   198  100  102 1    
   199  100  221 1    
   200  101  222 1    
   201  101  223 1    
   202  101  224 1    
   203  102  103 2    
   204  102  104 am   BACKBONE|DICT|INTERRES
   205  104  105 1    
   206  104  225 1    
   207  105  106 1    
   208  105  107 1    
   209  105  226 1    
   210  106  227 1    
   211  106  228 1    
   212  106  229 1    
   213  107  108 2    
   214  107  109 am   BACKBONE|DICT|INTERRES
   215  109  110 1    
   216  109  230 1    
   217  110  111 1    
   218  110  112 1    
   219  110  231 1    
   220  111  232 1    
   221  111  233 1    
   222  111  234 1    
   223  112  113 2    
   224  112  114 am   BACKBONE|DICT|INTERRES
   225  114  115 1    
   226  114  235 1    
   227  115  116 1    
   228  115  117 1    
   229  115  236 1    
   230  116  237 1    
   231  116  238 1    
   232  116  239 1    
   233  117  118 2    
   234  117  119 am   BACKBONE|DICT|INTERRES
   235  119  120 1    
   236  119  240 1    
   237  120  121 1    
   238  120  124 1    
   239  120  241 1    
   240  121  122 am   BACKBONE|DICT|INTERRES
   241  121  123 2    
   242  122  242 1    
   243  122  243 1    
   244  124  125 1    
   245  124  244 1    
   246  124  245 1    
   247  125  126 1    
   248  126  246 1    
   249  126  247 1    
@<TRIPOS>SUBSTRUCTURE
     1 UNK         1 GROUP             0       ****    0 ROOT    
