@<TRIPOS>MOLECULE
3R540
247   249    1
SMALL
USER_CHARGES


@<TRIPOS>ATOM
      1 CA          0.3803  -12.9732  -47.9485 C.3       0 UNK        -0.1800 
      2 C           1.8612  -12.9153  -47.6096 C.2       0 UNK         0.5000 
      3 O           2.2390  -13.0969  -46.4527 O.2       0 UNK        -0.5000 
      4 N           2.7022  -12.6362  -48.6151 N.am      1 UNK        -0.5000 
      5 CA          4.1767  -12.5891  -48.5534 C.3       1 UNK         0.1400 
      6 C6          4.8277  -13.9682  -48.2432 C.3       23 UNK        -0.0398 
      7 S7          4.3122  -15.2971  -49.3845 S.3       23 UNK        -0.2404 
      8 C8          3.3293  -16.3275  -48.2539 C.3       23 UNK        -0.0205 
      9 C9          2.6461  -17.4788  -48.9714 C.ar      23 UNK        -0.0193 
     10 C10         1.5731  -17.2280  -49.8290 C.ar      23 UNK        -0.1150 
     11 C11         0.8851  -18.2813  -50.4361 C.ar      23 UNK        -0.0193 
     12 C12         1.2805  -19.5978  -50.1800 C.ar      23 UNK        -0.1150 
     13 C13         2.3668  -19.8636  -49.3387 C.ar      23 UNK        -0.0193 
     14 C14         3.0522  -18.7965  -48.7468 C.ar      23 UNK        -0.1150 
     15 C15         2.7876  -21.3067  -49.0750 C.3       23 UNK        -0.0205 
     16 S16         3.0570  -21.6933  -47.3083 S.3       23 UNK        -0.2404 
     17 C17         1.4919  -21.1526  -46.5396 C.3       23 UNK        -0.0398 
     18 CA          0.4799  -22.2979  -46.3131 C.3       11 UNK         0.1400 
     19 N          -0.5384  -21.9223  -45.3322 N.am      11 UNK        -0.5000 
     20 C          -1.4830  -22.7352  -44.8406 C.2       10 UNK         0.5000 
     21 O          -1.5666  -23.9329  -45.1085 O.2       10 UNK        -0.5000 
     22 CA         -2.5494  -22.0813  -43.9447 C.3       10 UNK         0.1400 
     23 CB         -2.0442  -21.9284  -42.5021 C.3       10 UNK        -0.1800 
     24 N          -2.9683  -20.7784  -44.4635 N.am      10 UNK        -0.5000 
     25 C          -3.6461  -20.6063  -45.6074 C.2       9 UNK         0.5000 
     26 O          -4.0460  -21.5315  -46.3144 O.2       9 UNK        -0.5000 
     27 CA         -3.8705  -19.1543  -46.0622 C.3       9 UNK         0.1400 
     28 CB         -5.0785  -18.5351  -45.3434 C.3       9 UNK        -0.1800 
     29 N          -2.6918  -18.3141  -45.8523 N.am      9 UNK        -0.5000 
     30 C          -1.5377  -18.4589  -46.5212 C.2       8 UNK         0.5000 
     31 O          -1.3654  -19.2985  -47.4014 O.2       8 UNK        -0.5000 
     32 CA         -0.3611  -17.5646  -46.0890 C.3       8 UNK         0.1400 
     33 CB         -0.3836  -16.2390  -46.8577 C.3       8 UNK        -0.1800 
     34 N          -0.3604  -17.2982  -44.6488 N.am      8 UNK        -0.5000 
     35 C          -0.2084  -18.2462  -43.7104 C.2       7 UNK         0.5000 
     36 O           0.0028  -19.4284  -43.9794 O.2       7 UNK        -0.5000 
     37 CA         -0.3531  -17.8360  -42.2325 C.3       7 UNK         0.1400 
     38 CB          1.0079  -17.8668  -41.5216 C.3       7 UNK        -0.1800 
     39 N          -0.9804  -16.5249  -42.0513 N.am      7 UNK        -0.5000 
     40 C          -2.2843  -16.2818  -42.2570 C.2       6 UNK         0.5000 
     41 O          -3.0851  -17.1484  -42.6103 O.2       6 UNK        -0.5000 
     42 CA         -2.7727  -14.8289  -42.0820 C.3       6 UNK         0.1400 
     43 CB         -3.3147  -14.6127  -40.6614 C.3       6 UNK        -0.1800 
     44 N          -1.7457  -13.8218  -42.3609 N.am      6 UNK        -0.5000 
     45 C          -1.1481  -13.6456  -43.5470 C.2       5 UNK         0.5000 
     46 O          -1.4265  -14.3055  -44.5470 O.2       5 UNK        -0.5000 
     47 CA         -0.0129  -12.6057  -43.6302 C.3       5 UNK         0.1400 
     48 CB          0.0158  -11.6018  -42.4567 C.3       5 UNK        -0.1800 
     49 N           1.2899  -13.2588  -43.7744 N.am      5 UNK        -0.5000 
     50 C           1.8346  -14.1686  -42.9535 C.2       4 UNK         0.5000 
     51 O           1.2941  -14.5858  -41.9280 O.2       4 UNK        -0.5000 
     52 CA          3.2317  -14.6823  -43.3347 C.3       4 UNK         0.1400 
     53 CB          3.1632  -15.7217  -44.4664 C.3       4 UNK        -0.1800 
     54 N           4.1254  -13.5813  -43.7052 N.am      4 UNK        -0.5000 
     55 C           4.7559  -12.8127  -42.8038 C.2       3 UNK         0.5000 
     56 O           4.6371  -12.9549  -41.5859 O.2       3 UNK        -0.5000 
     57 CA          5.7014  -11.7199  -43.3330 C.3       3 UNK         0.1400 
     58 CB          7.1104  -12.2928  -43.5503 C.3       3 UNK        -0.1800 
     59 N           5.2490  -11.0997  -44.5751 N.am      3 UNK        -0.5000 
     60 C           4.2823  -10.1811  -44.6772 C.2       2 UNK         0.5000 
     61 O           3.6070   -9.7938  -43.7233 O.2       2 UNK        -0.5000 
     62 CA          4.0308   -9.5835  -46.0783 C.3       2 UNK         0.1400 
     63 CB          5.1103   -8.5488  -46.4498 C.3       2 UNK        -0.1800 
     64 N           3.8583  -10.5899  -47.1333 N.am      2 UNK        -0.5000 
     65 C           4.7297  -11.4959  -47.6029 C.2       1 UNK         0.5000 
     66 O           5.9200  -11.5169  -47.2839 O.2       1 UNK        -0.5000 
     67 C          -0.1539  -22.7764  -47.6356 C.2       11 UNK         0.5000 
     68 O           0.1982  -23.8529  -48.1128 O.2       11 UNK        -0.5000 
     69 N          -1.1047  -22.0018  -48.1788 N.am      12 UNK        -0.5000 
     70 CA         -1.8629  -22.3321  -49.3873 C.3       12 UNK         0.1400 
     71 CB         -2.7702  -21.1507  -49.7641 C.3       12 UNK        -0.1800 
     72 C          -2.6797  -23.6300  -49.2504 C.2       12 UNK         0.5000 
     73 O          -2.7050  -24.4305  -50.1859 O.2       12 UNK        -0.5000 
     74 N          -3.2971  -23.8370  -48.0788 N.am      13 UNK        -0.5000 
     75 CA         -4.0120  -25.0651  -47.7333 C.3       13 UNK         0.1400 
     76 CB         -4.7900  -24.8637  -46.4242 C.3       13 UNK        -0.1800 
     77 C          -3.0767  -26.2860  -47.6438 C.2       13 UNK         0.5000 
     78 O          -3.3946  -27.3308  -48.2120 O.2       13 UNK        -0.5000 
     79 N          -1.9280  -26.1249  -46.9707 N.am      14 UNK        -0.5000 
     80 CA         -0.8916  -27.1512  -46.8252 C.3       14 UNK         0.1400 
     81 CB          0.1520  -26.6838  -45.7993 C.3       14 UNK        -0.1800 
     82 C          -0.2150  -27.5224  -48.1585 C.2       14 UNK         0.5000 
     83 O           0.0523  -28.7003  -48.3988 O.2       14 UNK        -0.5000 
     84 N           0.0209  -26.5170  -49.0114 N.am      15 UNK        -0.5000 
     85 CA          0.5614  -26.6618  -50.3647 C.3       15 UNK         0.1400 
     86 CB          1.0501  -25.2879  -50.8523 C.3       15 UNK        -0.1800 
     87 C          -0.4450  -27.2554  -51.3713 C.2       15 UNK         0.5000 
     88 O          -0.0311  -27.6549  -52.4604 O.2       15 UNK        -0.5000 
     89 N          -1.7331  -27.2908  -50.9980 N.am      16 UNK        -0.5000 
     90 CA         -2.8848  -27.7234  -51.7916 C.3       16 UNK         0.1400 
     91 CB         -2.8076  -29.2320  -52.1068 C.3       16 UNK        -0.1800 
     92 C          -3.0836  -26.8407  -53.0399 C.2       16 UNK         0.5000 
     93 O          -3.1816  -27.3495  -54.1591 O.2       16 UNK        -0.5000 
     94 N          -3.1185  -25.5202  -52.8142 N.am      17 UNK        -0.5000 
     95 CA         -3.3736  -24.4918  -53.8231 C.3       17 UNK         0.1400 
     96 CB         -3.1857  -23.1109  -53.1745 C.3       17 UNK        -0.1800 
     97 C          -4.7778  -24.6017  -54.4522 C.2       17 UNK         0.5000 
     98 O          -5.6839  -25.1990  -53.8646 O.2       17 UNK        -0.5000 
     99 N          -4.9347  -23.9912  -55.6340 N.am      18 UNK        -0.5000 
    100 CA        -6.1644  -23.9978  -56.4342 C.3       18 UNK         0.1400 
    101 CB        -5.8568  -23.3981  -57.8154 C.3       18 UNK        -0.1800 
    102 C         -7.3600  -23.2683  -55.7862 C.2       18 UNK         0.5000 
    103 O         -8.5006  -23.5202  -56.1780 O.2       18 UNK        -0.5000 
    104 N         -7.0897  -22.3896  -54.8156 N.am      19 UNK        -0.5000 
    105 CA        -8.0798  -21.6744  -54.0229 C.3       19 UNK         0.1400 
    106 CB        -8.4419  -20.3516  -54.7193 C.3       19 UNK        -0.1800 
    107 C         -7.5072  -21.4233  -52.6224 C.2       19 UNK         0.5000 
    108 O         -6.2856  -21.3434  -52.4603 O.2       19 UNK        -0.5000 
    109 N         -8.4055  -21.2793  -51.6411 N.am      20 UNK        -0.5000 
    110 CA        -8.0841  -20.8733  -50.2733 C.3       20 UNK         0.1400 
    111 CB        -9.3122  -21.1129  -49.3817 C.3       20 UNK        -0.1800 
    112 C         -7.6547  -19.3956  -50.2162 C.2       20 UNK         0.5000 
    113 O         -8.0289  -18.6119  -51.0937 O.2       20 UNK        -0.5000 
    114 N         -6.8674  -19.0455  -49.1882 N.am      21 UNK        -0.5000 
    115 CA        -6.3094  -17.7063  -48.9393 C.3       21 UNK         0.1400 
    116 CB        -7.4229  -16.7276  -48.5121 C.3       21 UNK        -0.1800 
    117 C         -5.4533  -17.1735  -50.1107 C.2       21 UNK         0.5000 
    118 O         -5.4348  -15.9684  -50.3658 O.2       21 UNK        -0.5000 
    119 N         -4.7864  -18.1016  -50.8113 N.am      22 UNK        -0.5000 
    120 CA        -4.0101  -17.8881  -52.0447 C.3       22 UNK         0.1400 
    121 C         -4.8747  -17.5531  -53.3010 C.2       22 UNK         0.5000 
    122 N         -6.1974  -17.6719  -53.2634 N.am      22 UNK        -0.7600 
    123 O         -4.3351  -17.2029  -54.3471 O.2       22 UNK        -0.5000 
    124 C124       -2.8208  -16.8993  -51.8712 C.3       23 UNK        -0.0398 
    125 S125       -1.7133  -17.3304  -50.4843 S.3       23 UNK        -0.2404 
    126 C126       -0.2713  -17.9854  -51.3784 C.3       23 UNK        -0.0205 
    127 H127        0.0648  -12.0621  -48.4568 H         1 UNK         0.0600 
    128 H128       -0.2183  -13.0826  -47.0437 H         1 UNK         0.0600 
    129 H129        0.1738  -13.8234  -48.5985 H         1 UNK         0.0600 
    130 H130        2.3158  -12.4820  -49.5362 H         1 UNK         0.3000 
    131 H131        4.5026  -12.2931  -49.5515 H         1 UNK         0.0600 
    132 H132        4.6205  -14.2659  -47.2140 H         1 UNK         0.0800 
    133 H133        5.9143  -13.8998  -48.3180 H         1 UNK         0.0800 
    134 H134        2.5664  -15.7153  -47.7748 H         1 UNK         0.0800 
    135 H135        3.9731  -16.6997  -47.4555 H         1 UNK         0.0800 
    136 H136        1.2612  -16.2090  -50.0117 H         1 UNK         0.1150 
    137 H137        0.7443  -20.4156  -50.6405 H         1 UNK         0.1150 
    138 H138        3.8868  -18.9955  -48.0893 H         1 UNK         0.1150 
    139 H139        2.0481  -22.0021  -49.4747 H         1 UNK         0.0800 
    140 H140        3.7125  -21.5025  -49.6186 H         1 UNK         0.0800 
    141 H141        1.0429  -20.3379  -47.1056 H         1 UNK         0.0800 
    142 H142        1.7667  -20.7175  -45.5779 H         1 UNK         0.0800 
    143 H143        1.0200  -23.1452  -45.8851 H         1 UNK         0.0600 
    144 H144       -0.5127  -20.9617  -45.0025 H         1 UNK         0.3000 
    145 H145       -3.4223  -22.7373  -43.9310 H         1 UNK         0.0600 
    146 H146       -2.8147  -21.5057  -41.8572 H         1 UNK         0.0600 
    147 H147       -1.1668  -21.2843  -42.4429 H         1 UNK         0.0600 
    148 H148       -1.7666  -22.8970  -42.0844 H         1 UNK         0.0600 
    149 H149       -2.6579  -19.9625  -43.9573 H         1 UNK         0.3000 
    150 H150       -4.0761  -19.1785  -47.1334 H         1 UNK         0.0600 
    151 H151       -5.9845  -19.1111  -45.5361 H         1 UNK         0.0600 
    152 H152       -5.2624  -17.5152  -45.6815 H         1 UNK         0.0600 
    153 H153       -4.9324  -18.5048  -44.2629 H         1 UNK         0.0600 
    154 H154       -2.7457  -17.6235  -45.1163 H         1 UNK         0.3000 
    155 H155        0.5681  -18.0821  -46.3350 H         1 UNK         0.0600 
    156 H156       -1.3279  -15.7107  -46.7264 H         1 UNK         0.0600 
    157 H157       -0.2605  -16.4088  -47.9261 H         1 UNK         0.0600 
    158 H158        0.4211  -15.5804  -46.5325 H         1 UNK         0.0600 
    159 H159       -0.5704  -16.3489  -44.3654 H         1 UNK         0.3000 
    160 H160       -0.9911  -18.5828  -41.7549 H         1 UNK         0.0600 
    161 H161        1.7250  -17.1908  -41.9846 H         1 UNK         0.0600 
    162 H162        1.4395  -18.8680  -41.5538 H         1 UNK         0.0600 
    163 H163        0.9126  -17.5882  -40.4720 H         1 UNK         0.0600 
    164 H164       -0.3630  -15.7556  -41.8092 H         1 UNK         0.3000 
    165 H165       -3.5912  -14.6734  -42.7878 H         1 UNK         0.0600 
    166 H166       -3.7437  -13.6167  -40.5495 H         1 UNK         0.0600 
    167 H167       -4.1016  -15.3318  -40.4297 H         1 UNK         0.0600 
    168 H168       -2.5321  -14.7289  -39.9105 H         1 UNK         0.0600 
    169 H169       -1.4303  -13.2669  -41.5786 H         1 UNK         0.3000 
    170 H170       -0.1804  -12.0397  -44.5477 H         1 UNK         0.0600 
    171 H171       -0.9388  -11.0832  -42.3590 H         1 UNK         0.0600 
    172 H172        0.2357  -12.0815  -41.5025 H         1 UNK         0.0600 
    173 H173        0.7787  -10.8404  -42.6212 H         1 UNK         0.0600 
    174 H174        1.7778  -13.0608  -44.6452 H         1 UNK         0.3000 
    175 H175        3.6456  -15.1890  -42.4599 H         1 UNK         0.0600 
    176 H176        2.7163  -15.3170  -45.3714 H         1 UNK         0.0600 
    177 H177        4.1558  -16.0931  -44.7210 H         1 UNK         0.0600 
    178 H178        2.5625  -16.5819  -44.1711 H         1 UNK         0.0600 
    179 H179        4.2262  -13.3755  -44.6882 H         1 UNK         0.3000 
    180 H180        5.7685  -10.9435  -42.5677 H         1 UNK         0.0600 
    181 H181        7.8128  -11.5114  -43.8411 H         1 UNK         0.0600 
    182 H182        7.1185  -13.0572  -44.3286 H         1 UNK         0.0600 
    183 H183        7.4931  -12.7492  -42.6364 H         1 UNK         0.0600 
    184 H184        5.7400  -11.3527  -45.4287 H         1 UNK         0.3000 
    185 H185        3.0791   -9.0525  -46.0231 H         1 UNK         0.0600 
    186 H186        6.1048   -8.9919  -46.5041 H         1 UNK         0.0600 
    187 H187        4.8966   -8.0862  -47.4133 H         1 UNK         0.0600 
    188 H188        5.1521   -7.7504  -45.7080 H         1 UNK         0.0600 
    189 H189        2.9059  -10.6999  -47.4515 H         1 UNK         0.3000 
    190 H190       -1.3014  -21.0948  -47.7601 H         1 UNK         0.3000 
    191 H191       -1.1446  -22.4794  -50.1961 H         1 UNK         0.0600 
    192 H192       -2.1819  -20.2536  -49.9543 H         1 UNK         0.0600 
    193 H193       -3.4817  -20.9203  -48.9711 H         1 UNK         0.0600 
    194 H194       -3.3417  -21.3615  -50.6680 H         1 UNK         0.0600 
    195 H195       -3.2721  -23.1069  -47.3748 H         1 UNK         0.3000 
    196 H196       -4.7367  -25.2613  -48.5264 H         1 UNK         0.0600 
    197 H197       -5.5033  -24.0441  -46.5131 H         1 UNK         0.0600 
    198 H198       -4.1272  -24.6387  -45.5889 H         1 UNK         0.0600 
    199 H199       -5.3540  -25.7600  -46.1638 H         1 UNK         0.0600 
    200 H200       -1.7564  -25.2406  -46.4989 H         1 UNK         0.3000 
    201 H201       -1.3690  -28.0525  -46.4354 H         1 UNK         0.0600 
    202 H202       -0.3059  -26.5019  -44.8269 H         1 UNK         0.0600 
    203 H203        0.6418  -25.7621  -46.1150 H         1 UNK         0.0600 
    204 H204        0.9276  -27.4375  -45.6582 H         1 UNK         0.0600 
    205 H205       -0.1536  -25.5637  -48.6986 H         1 UNK         0.3000 
    206 H206        1.4193  -27.3357  -50.3217 H         1 UNK         0.0600 
    207 H207        0.2308  -24.5701  -50.9098 H         1 UNK         0.0600 
    208 H208        1.8084  -24.8783  -50.1846 H         1 UNK         0.0600 
    209 H209        1.4961  -25.3581  -51.8451 H         1 UNK         0.0600 
    210 H210       -1.9588  -26.9118  -50.0877 H         1 UNK         0.3000 
    211 H211       -3.7627  -27.5660  -51.1631 H         1 UNK         0.0600 
    212 H212       -1.9756  -29.4701  -52.7699 H         1 UNK         0.0600 
    213 H213       -3.7210  -29.5735  -52.5950 H         1 UNK         0.0600 
    214 H214       -2.6882  -29.8177  -51.1952 H         1 UNK         0.0600 
    215 H215       -3.0128  -25.1895  -51.8574 H         1 UNK         0.3000 
    216 H216       -2.6315  -24.6130  -54.6148 H         1 UNK         0.0600 
    217 H217       -3.3060  -22.3084  -53.9030 H         1 UNK         0.0600 
    218 H218       -2.1907  -23.0085  -52.7406 H         1 UNK         0.0600 
    219 H219       -3.9164  -22.9451  -52.3819 H         1 UNK         0.0600 
    220 H220       -4.1461  -23.5083  -56.0401 H         1 UNK         0.3000 
    221 H221       -6.4623  -25.0390  -56.5742 H         1 UNK         0.0600 
    222 H222       -5.5295  -22.3604  -57.7388 H         1 UNK         0.0600 
    223 H223       -5.0758  -23.9614  -58.3265 H         1 UNK         0.0600 
    224 H224       -6.7395  -23.4168  -58.4562 H         1 UNK         0.0600 
    225 H225       -6.1351  -22.2693  -54.5030 H         1 UNK         0.3000 
    226 H226       -8.9774  -22.2878  -53.9173 H         1 UNK         0.0600 
    227 H227       -8.9021  -20.5302  -55.6912 H         1 UNK         0.0600 
    228 H228       -9.1506  -19.7741  -54.1243 H         1 UNK         0.0600 
    229 H229       -7.5601  -19.7296  -54.8762 H         1 UNK         0.0600 
    230 H230       -9.3875  -21.3218  -51.8710 H         1 UNK         0.3000 
    231 H231       -7.2598  -21.4930  -49.9132 H         1 UNK         0.0600 
    232 H232       -9.1012  -20.8518  -48.3439 H         1 UNK         0.0600 
    233 H233       -9.6121  -22.1610  -49.3964 H         1 UNK         0.0600 
    234 H234      -10.1658  -20.5144  -49.7030 H         1 UNK         0.0600 
    235 H235       -6.6155  -19.7560  -48.5156 H         1 UNK         0.3000 
    236 H236       -5.6263  -17.8021  -48.0981 H         1 UNK         0.0600 
    237 H237       -8.1196  -16.5262  -49.3264 H         1 UNK         0.0600 
    238 H238       -7.9936  -17.1233  -47.6721 H         1 UNK         0.0600 
    239 H239       -7.0044  -15.7716  -48.1956 H         1 UNK         0.0600 
    240 H240       -4.8904  -19.0656  -50.5332 H         1 UNK         0.3000 
    241 H241       -3.5773  -18.8630  -52.2717 H         1 UNK         0.0600 
    242 H242       -6.7301  -17.4493  -54.0882 H         1 UNK         0.3800 
    243 H243       -6.6816  -17.9663  -52.4220 H         1 UNK         0.3800 
    244 H244       -3.1874  -15.8856  -51.7073 H         1 UNK         0.0800 
    245 H245       -2.2318  -16.8509  -52.7882 H         1 UNK         0.0800 
    246 H246        0.0584  -17.2594  -52.1230 H         1 UNK         0.0800 
    247 H247       -0.5662  -18.8828  -51.9245 H         1 UNK         0.0800 
@<TRIPOS>BOND
     1    1    2 1    
     2    1  127 1    
     3    1  128 1    
     4    1  129 1    
     5    2    3 2    
     6    2    4 am   BACKBONE|DICT|INTERRES
     7    4    5 1    
     8    4  130 1    
     9    5    6 1    
    10    5   65 1    
    11    5  131 1    
    12    6    7 1    
    13    6  132 1    
    14    6  133 1    
    15    7    8 1    
    16    8    9 1    
    17    8  134 1    
    18    8  135 1    
    19    9   10 ar   
    20    9   14 ar   
    21   10   11 ar   
    22   10  136 1    
    23   11   12 ar   
    24   11  126 1    
    25   12   13 ar   
    26   12  137 1    
    27   13   14 ar   
    28   13   15 1    
    29   14  138 1    
    30   15   16 1    
    31   15  139 1    
    32   15  140 1    
    33   16   17 1    
    34   17   18 1    
    35   17  141 1    
    36   17  142 1    
    37   18   19 1    
    38   18   67 1    
    39   18  143 1    
    40   19   20 am   BACKBONE|DICT|INTERRES
    41   19  144 1    
    42   20   21 2    
    43   20   22 1    
    44   22   23 1    
    45   22   24 1    
    46   22  145 1    
    47   23  146 1    
    48   23  147 1    
    49   23  148 1    
    50   24   25 am   BACKBONE|DICT|INTERRES
    51   24  149 1    
    52   25   26 2    
    53   25   27 1    
    54   27   28 1    
    55   27   29 1    
    56   27  150 1    
    57   28  151 1    
    58   28  152 1    
    59   28  153 1    
    60   29   30 am   BACKBONE|DICT|INTERRES
    61   29  154 1    
    62   30   31 2    
    63   30   32 1    
    64   32   33 1    
    65   32   34 1    
    66   32  155 1    
    67   33  156 1    
    68   33  157 1    
    69   33  158 1    
    70   34   35 am   BACKBONE|DICT|INTERRES
    71   34  159 1    
    72   35   36 2    
    73   35   37 1    
    74   37   38 1    
    75   37   39 1    
    76   37  160 1    
    77   38  161 1    
    78   38  162 1    
    79   38  163 1    
    80   39   40 am   BACKBONE|DICT|INTERRES
    81   39  164 1    
    82   40   41 2    
    83   40   42 1    
    84   42   43 1    
    85   42   44 1    
    86   42  165 1    
    87   43  166 1    
    88   43  167 1    
    89   43  168 1    
    90   44   45 am   BACKBONE|DICT|INTERRES
    91   44  169 1    
    92   45   46 2    
    93   45   47 1    
    94   47   48 1    
    95   47   49 1    
    96   47  170 1    
    97   48  171 1    
    98   48  172 1    
    99   48  173 1    
   100   49   50 am   BACKBONE|DICT|INTERRES
   101   49  174 1    
   102   50   51 2    
   103   50   52 1    
   104   52   53 1    
   105   52   54 1    
   106   52  175 1    
   107   53  176 1    
   108   53  177 1    
   109   53  178 1    
   110   54   55 am   BACKBONE|DICT|INTERRES
   111   54  179 1    
   112   55   56 2    
   113   55   57 1    
   114   57   58 1    
   115   57   59 1    
   116   57  180 1    
   117   58  181 1    
   118   58  182 1    
   119   58  183 1    
   120   59   60 am   BACKBONE|DICT|INTERRES
   121   59  184 1    
   122   60   61 2    
   123   60   62 1    
   124   62   63 1    
   125   62   64 1    
   126   62  185 1    
   127   63  186 1    
   128   63  187 1    
   129   63  188 1    
   130   64   65 am   BACKBONE|DICT|INTERRES
   131   64  189 1    
   132   65   66 2    
   133   67   68 2    
   134   67   69 am   BACKBONE|DICT|INTERRES
   135   69   70 1    
   136   69  190 1    
   137   70   71 1    
   138   70   72 1    
   139   70  191 1    
   140   71  192 1    
   141   71  193 1    
   142   71  194 1    
   143   72   73 2    
   144   72   74 am   BACKBONE|DICT|INTERRES
   145   74   75 1    
   146   74  195 1    
   147   75   76 1    
   148   75   77 1    
   149   75  196 1    
   150   76  197 1    
   151   76  198 1    
   152   76  199 1    
   153   77   78 2    
   154   77   79 am   BACKBONE|DICT|INTERRES
   155   79   80 1    
   156   79  200 1    
   157   80   81 1    
   158   80   82 1    
   159   80  201 1    
   160   81  202 1    
   161   81  203 1    
   162   81  204 1    
   163   82   83 2    
   164   82   84 am   BACKBONE|DICT|INTERRES
   165   84   85 1    
   166   84  205 1    
   167   85   86 1    
   168   85   87 1    
   169   85  206 1    
   170   86  207 1    
   171   86  208 1    
   172   86  209 1    
   173   87   88 2    
   174   87   89 am   BACKBONE|DICT|INTERRES
   175   89   90 1    
   176   89  210 1    
   177   90   91 1    
   178   90   92 1    
   179   90  211 1    
   180   91  212 1    
   181   91  213 1    
   182   91  214 1    
   183   92   93 2    
   184   92   94 am   BACKBONE|DICT|INTERRES
   185   94   95 1    
   186   94  215 1    
   187   95   96 1    
   188   95   97 1    
   189   95  216 1    
   190   96  217 1    
   191   96  218 1    
   192   96  219 1    
   193   97   98 2    
   194   97   99 am   BACKBONE|DICT|INTERRES
   195   99  100 1    
   196   99  220 1    
   197  100  101 1    
   198  100  102 1    
   199  100  221 1    
   200  101  222 1    
   201  101  223 1    
   202  101  224 1    
   203  102  103 2    
   204  102  104 am   BACKBONE|DICT|INTERRES
   205  104  105 1    
   206  104  225 1    
   207  105  106 1    
   208  105  107 1    
   209  105  226 1    
   210  106  227 1    
   211  106  228 1    
   212  106  229 1    
   213  107  108 2    
   214  107  109 am   BACKBONE|DICT|INTERRES
   215  109  110 1    
   216  109  230 1    
   217  110  111 1    
   218  110  112 1    
   219  110  231 1    
   220  111  232 1    
   221  111  233 1    
   222  111  234 1    
   223  112  113 2    
   224  112  114 am   BACKBONE|DICT|INTERRES
   225  114  115 1    
   226  114  235 1    
   227  115  116 1    
   228  115  117 1    
   229  115  236 1    
   230  116  237 1    
   231  116  238 1    
   232  116  239 1    
   233  117  118 2    
   234  117  119 am   BACKBONE|DICT|INTERRES
   235  119  120 1    
   236  119  240 1    
   237  120  121 1    
   238  120  124 1    
   239  120  241 1    
   240  121  122 am   BACKBONE|DICT|INTERRES
   241  121  123 2    
   242  122  242 1    
   243  122  243 1    
   244  124  125 1    
   245  124  244 1    
   246  124  245 1    
   247  125  126 1    
   248  126  246 1    
   249  126  247 1    
@<TRIPOS>SUBSTRUCTURE
     1 UNK         1 GROUP             0       ****    0 ROOT    
