@<TRIPOS>MOLECULE
3R540
247   249    1
SMALL
USER_CHARGES


@<TRIPOS>ATOM
      1 CA         -1.9248  -17.3367  -48.6978 C.3       0 UNK        -0.1800 
      2 C          -1.4015  -15.9100  -48.7778 C.2       0 UNK         0.5000 
      3 O          -2.1868  -14.9622  -48.7465 O.2       0 UNK        -0.5000 
      4 N          -0.0762  -15.7624  -48.8903 N.am      1 UNK        -0.5000 
      5 CA          0.6398  -14.4828  -48.8833 C.3       1 UNK         0.1400 
      6 C6          2.1123  -14.6641  -49.3368 C.3       23 UNK        -0.0398 
      7 S7          2.2784  -14.6209  -51.1545 S.3       23 UNK        -0.2404 
      8 C8          2.6616  -16.3549  -51.5903 C.3       23 UNK        -0.0205 
      9 C9          1.4605  -17.2911  -51.7399 C.ar      23 UNK        -0.0193 
     10 C10         0.1580  -16.8227  -51.9597 C.ar      23 UNK        -0.1150 
     11 C11        -0.9081  -17.7140  -52.1079 C.ar      23 UNK        -0.0193 
     12 C12        -0.6655  -19.0876  -52.0596 C.ar      23 UNK        -0.1150 
     13 C13         0.6284  -19.5742  -51.8666 C.ar      23 UNK        -0.0193 
     14 C14         1.6831  -18.6719  -51.7027 C.ar      23 UNK        -0.1150 
     15 C15         0.8863  -21.0741  -51.8513 C.3       23 UNK        -0.0205 
     16 S16         1.0930  -21.7187  -50.1626 S.3       23 UNK        -0.2404 
     17 C17        -0.5464  -21.3705  -49.4456 C.3       23 UNK        -0.0398 
     18 CA         -0.8002  -22.1540  -48.1382 C.3       11 UNK         0.1400 
     19 N           0.2158  -21.8763  -47.1209 N.am      11 UNK        -0.5000 
     20 C           0.3578  -22.5233  -45.9596 C.2       10 UNK         0.5000 
     21 O          -0.4000  -23.4158  -45.5814 O.2       10 UNK        -0.5000 
     22 CA          1.5094  -22.0722  -45.0491 C.3       10 UNK         0.1400 
     23 CB          2.8650  -22.6111  -45.5405 C.3       10 UNK        -0.1800 
     24 N           1.5463  -20.6241  -44.8287 N.am      10 UNK        -0.5000 
     25 C           1.8372  -19.6241  -45.6739 C.2       9 UNK         0.5000 
     26 O           2.1070  -19.7772  -46.8652 O.2       9 UNK        -0.5000 
     27 CA          1.8027  -18.2047  -45.0770 C.3       9 UNK         0.1400 
     28 CB          0.4054  -17.5916  -45.2524 C.3       9 UNK        -0.1800 
     29 N           2.1561  -18.1909  -43.6562 N.am      9 UNK        -0.5000 
     30 C           3.3757  -18.4655  -43.1689 C.2       8 UNK         0.5000 
     31 O           4.3694  -18.6577  -43.8699 O.2       8 UNK        -0.5000 
     32 CA          3.4904  -18.5867  -41.6397 C.3       8 UNK         0.1400 
     33 CB          3.6864  -17.2095  -40.9877 C.3       8 UNK        -0.1800 
     34 N           2.3160  -19.2459  -41.0653 N.am      8 UNK        -0.5000 
     35 C           2.0769  -20.5638  -41.1441 C.2       7 UNK         0.5000 
     36 O           2.8554  -21.3715  -41.6501 O.2       7 UNK        -0.5000 
     37 CA          0.7313  -21.0637  -40.5875 C.3       7 UNK         0.1400 
     38 CB          0.8682  -21.4508  -39.1077 C.3       7 UNK        -0.1800 
     39 N          -0.3369  -20.0743  -40.7281 N.am      7 UNK        -0.5000 
     40 C          -0.9324  -19.7579  -41.8857 C.2       6 UNK         0.5000 
     41 O          -0.6806  -20.3029  -42.9606 O.2       6 UNK        -0.5000 
     42 CA         -1.9651  -18.6190  -41.8351 C.3       6 UNK         0.1400 
     43 CB         -3.3645  -19.1784  -41.5389 C.3       6 UNK        -0.1800 
     44 N          -1.6327  -17.5748  -40.8615 N.am      6 UNK        -0.5000 
     45 C          -0.5696  -16.7674  -40.9643 C.2       5 UNK         0.5000 
     46 O           0.2731  -16.8552  -41.8615 O.2       5 UNK        -0.5000 
     47 CA         -0.3981  -15.7059  -39.8737 C.3       5 UNK         0.1400 
     48 CB          0.5379  -16.2060  -38.7592 C.3       5 UNK        -0.1800 
     49 N           0.1402  -14.5049  -40.5005 N.am      5 UNK        -0.5000 
     50 C           0.0632  -13.2638  -40.0084 C.2       4 UNK         0.5000 
     51 O          -0.4094  -13.0070  -38.8997 O.2       4 UNK        -0.5000 
     52 CA          0.5332  -12.1053  -40.9150 C.3       4 UNK         0.1400 
     53 CB          1.3545  -11.0485  -40.1462 C.3       4 UNK        -0.1800 
     54 N           1.2100  -12.5261  -42.1503 N.am      4 UNK        -0.5000 
     55 C           2.4408  -13.0418  -42.2945 C.2       3 UNK         0.5000 
     56 O           3.2026  -13.2720  -41.3554 O.2       3 UNK        -0.5000 
     57 CA          2.8952  -13.3797  -43.7313 C.3       3 UNK         0.1400 
     58 CB          3.1460  -14.8863  -43.8746 C.3       3 UNK        -0.1800 
     59 N           1.9252  -12.9831  -44.7544 N.am      3 UNK        -0.5000 
     60 C           1.8017  -11.7658  -45.2924 C.2       2 UNK         0.5000 
     61 O           2.5346  -10.8193  -45.0007 O.2       2 UNK        -0.5000 
     62 CA          0.6568  -11.5889  -46.3172 C.3       2 UNK         0.1400 
     63 CB          0.5313  -10.1379  -46.8163 C.3       2 UNK        -0.1800 
     64 N           0.7629  -12.4737  -47.4825 N.am      2 UNK        -0.5000 
     65 C           0.5552  -13.7979  -47.4996 C.2       1 UNK         0.5000 
     66 O           0.3167  -14.4611  -46.4867 O.2       1 UNK        -0.5000 
     67 C          -2.2309  -21.8903  -47.6311 C.2       11 UNK         0.5000 
     68 O          -3.1595  -22.5567  -48.0864 O.2       11 UNK        -0.5000 
     69 N          -2.3881  -20.9404  -46.6990 N.am      12 UNK        -0.5000 
     70 CA         -3.6578  -20.6467  -46.0371 C.3       12 UNK         0.1400 
     71 CB         -3.5673  -19.2877  -45.3309 C.3       12 UNK        -0.1800 
     72 C          -4.0623  -21.7565  -45.0513 C.2       12 UNK         0.5000 
     73 O          -5.2139  -22.1899  -45.0710 O.2       12 UNK        -0.5000 
     74 N          -3.1038  -22.2211  -44.2353 N.am      13 UNK        -0.5000 
     75 CA         -3.2933  -23.3148  -43.2781 C.3       13 UNK         0.1400 
     76 CB         -2.0962  -23.3747  -42.3172 C.3       13 UNK        -0.1800 
     77 C          -3.5145  -24.6761  -43.9633 C.2       13 UNK         0.5000 
     78 O          -4.3527  -25.4568  -43.5116 O.2       13 UNK        -0.5000 
     79 N          -2.7801  -24.9221  -45.0563 N.am      14 UNK        -0.5000 
     80 CA         -2.8965  -26.1191  -45.8923 C.3       14 UNK         0.1400 
     81 CB         -1.6323  -26.2349  -46.7592 C.3       14 UNK        -0.1800 
     82 C          -4.1524  -26.1286  -46.7880 C.2       14 UNK         0.5000 
     83 O          -4.4897  -27.1802  -47.3321 O.2       14 UNK        -0.5000 
     84 N          -4.7894  -24.9593  -46.9565 N.am      15 UNK        -0.5000 
     85 CA         -5.9174  -24.6620  -47.8498 C.3       15 UNK         0.1400 
     86 CB         -7.1617  -25.4992  -47.4906 C.3       15 UNK        -0.1800 
     87 C          -5.5579  -24.7416  -49.3506 C.2       15 UNK         0.5000 
     88 O          -6.4510  -24.7593  -50.1987 O.2       15 UNK        -0.5000 
     89 N          -4.2540  -24.7323  -49.6590 N.am      16 UNK        -0.5000 
     90 CA         -3.6940  -24.6740  -51.0078 C.3       16 UNK         0.1400 
     91 CB         -2.1919  -24.9857  -50.9435 C.3       16 UNK        -0.1800 
     92 C          -3.9302  -23.3117  -51.6819 C.2       16 UNK         0.5000 
     93 O          -4.0035  -23.2510  -52.9077 O.2       16 UNK        -0.5000 
     94 N          -4.0963  -22.2512  -50.8772 N.am      17 UNK        -0.5000 
     95 CA         -4.4006  -20.8832  -51.3088 C.3       17 UNK         0.1400 
     96 CB         -4.4273  -19.9691  -50.0740 C.3       17 UNK        -0.1800 
     97 C          -5.7018  -20.7366  -52.1260 C.2       17 UNK         0.5000 
     98 O          -5.8399  -19.7638  -52.8663 O.2       17 UNK        -0.5000 
     99 N          -6.6201  -21.7043  -51.9987 N.am      18 UNK        -0.5000 
    100 CA        -7.8407  -21.7959  -52.7990 C.3       18 UNK         0.1400 
    101 CB        -8.8322  -22.7233  -52.0796 C.3       18 UNK        -0.1800 
    102 C         -7.5887  -22.2930  -54.2385 C.2       18 UNK         0.5000 
    103 O         -8.4073  -22.0151  -55.1160 O.2       18 UNK        -0.5000 
    104 N         -6.4888  -23.0280  -54.4551 N.am      19 UNK        -0.5000 
    105 CA        -6.1231  -23.6344  -55.7370 C.3       19 UNK         0.1400 
    106 CB        -5.7756  -25.1127  -55.4980 C.3       19 UNK        -0.1800 
    107 C         -4.9404  -22.9155  -56.4099 C.2       19 UNK         0.5000 
    108 O         -4.8694  -22.8975  -57.6398 O.2       19 UNK        -0.5000 
    109 N         -4.0258  -22.3604  -55.6035 N.am      20 UNK        -0.5000 
    110 CA        -2.8186  -21.6558  -56.0337 C.3       20 UNK         0.1400 
    111 CB        -1.9886  -21.3056  -54.7882 C.3       20 UNK        -0.1800 
    112 C         -3.1073  -20.3800  -56.8482 C.2       20 UNK         0.5000 
    113 O         -4.1359  -19.7301  -56.6472 O.2       20 UNK        -0.5000 
    114 N         -2.1605  -20.0268  -57.7276 N.am      21 UNK        -0.5000 
    115 CA        -2.1811  -18.7896  -58.5129 C.3       21 UNK         0.1400 
    116 CB        -1.2350  -18.9442  -59.7141 C.3       21 UNK        -0.1800 
    117 C         -1.7990  -17.5479  -57.6822 C.2       21 UNK         0.5000 
    118 O         -2.2017  -16.4396  -58.0372 O.2       21 UNK        -0.5000 
    119 N         -1.0341  -17.7596  -56.6007 N.am      22 UNK        -0.5000 
    120 CA        -0.5988  -16.7479  -55.6183 C.3       22 UNK         0.1400 
    121 C          0.4158  -15.6956  -56.1638 C.2       22 UNK         0.5000 
    122 N          1.0771  -15.9377  -57.2893 N.am      22 UNK        -0.7600 
    123 O          0.6339  -14.6553  -55.5488 O.2       22 UNK        -0.5000 
    124 C124       -1.7845  -16.0923  -54.8527 C.3       23 UNK        -0.0398 
    125 S125       -2.8653  -17.3185  -54.0361 S.3       23 UNK        -0.2404 
    126 C126       -2.3247  -17.1959  -52.3046 C.3       23 UNK        -0.0205 
    127 H127       -2.0262  -17.6385  -47.6569 H         1 UNK         0.0600 
    128 H128       -2.9015  -17.4124  -49.1747 H         1 UNK         0.0600 
    129 H129       -1.2495  -18.0331  -49.1929 H         1 UNK         0.0600 
    130 H130        0.5068  -16.5851  -48.9201 H         1 UNK         0.3000 
    131 H131        0.1320  -13.8192  -49.5870 H         1 UNK         0.0600 
    132 H132        2.5420  -15.5812  -48.9307 H         1 UNK         0.0800 
    133 H133        2.7454  -13.8569  -48.9632 H         1 UNK         0.0800 
    134 H134        3.3625  -16.7593  -50.8585 H         1 UNK         0.0800 
    135 H135        3.1912  -16.3469  -52.5438 H         1 UNK         0.0800 
    136 H136       -0.0388  -15.7621  -52.0106 H         1 UNK         0.1150 
    137 H137       -1.4843  -19.7792  -52.1800 H         1 UNK         0.1150 
    138 H138        2.6846  -19.0504  -51.5518 H         1 UNK         0.1150 
    139 H139        0.0761  -21.6111  -52.3472 H         1 UNK         0.0800 
    140 H140        1.7887  -21.2914  -52.4243 H         1 UNK         0.0800 
    141 H141       -0.6184  -20.2969  -49.2685 H         1 UNK         0.0800 
    142 H142       -1.3047  -21.6163  -50.1912 H         1 UNK         0.0800 
    143 H143       -0.7382  -23.2195  -48.3657 H         1 UNK         0.0600 
    144 H144        0.8952  -21.1510  -47.3378 H         1 UNK         0.3000 
    145 H145        1.3211  -22.5098  -44.0673 H         1 UNK         0.0600 
    146 H146        3.6674  -22.3320  -44.8573 H         1 UNK         0.0600 
    147 H147        2.8506  -23.7000  -45.5991 H         1 UNK         0.0600 
    148 H148        3.1221  -22.2358  -46.5314 H         1 UNK         0.0600 
    149 H149        1.2284  -20.3459  -43.9086 H         1 UNK         0.3000 
    150 H150        2.5240  -17.5889  -45.6179 H         1 UNK         0.0600 
    151 H151        0.3538  -16.5931  -44.8191 H         1 UNK         0.0600 
    152 H152       -0.3652  -18.1983  -44.7771 H         1 UNK         0.0600 
    153 H153        0.1502  -17.5006  -46.3083 H         1 UNK         0.0600 
    154 H154        1.4136  -17.9552  -43.0048 H         1 UNK         0.3000 
    155 H155        4.3717  -19.1919  -41.4159 H         1 UNK         0.0600 
    156 H156        3.7810  -17.2952  -39.9053 H         1 UNK         0.0600 
    157 H157        2.8581  -16.5338  -41.2017 H         1 UNK         0.0600 
    158 H158        4.5970  -16.7343  -41.3539 H         1 UNK         0.0600 
    159 H159        1.6087  -18.6469  -40.6676 H         1 UNK         0.3000 
    160 H160        0.4521  -21.9577  -41.1495 H         1 UNK         0.0600 
    161 H161        1.1322  -20.5926  -38.4884 H         1 UNK         0.0600 
    162 H162        1.6444  -22.2052  -38.9720 H         1 UNK         0.0600 
    163 H163       -0.0616  -21.8703  -38.7230 H         1 UNK         0.0600 
    164 H164       -0.6193  -19.5844  -39.8922 H         1 UNK         0.3000 
    165 H165       -1.9840  -18.1490  -42.8193 H         1 UNK         0.0600 
    166 H166       -3.4216  -19.6146  -40.5409 H         1 UNK         0.0600 
    167 H167       -4.1234  -18.3992  -41.6098 H         1 UNK         0.0600 
    168 H168       -3.6346  -19.9586  -42.2518 H         1 UNK         0.0600 
    169 H169       -2.2781  -17.4486  -40.0948 H         1 UNK         0.3000 
    170 H170       -1.3788  -15.4783  -39.4505 H         1 UNK         0.0600 
    171 H171        0.1671  -17.1331  -38.3206 H         1 UNK         0.0600 
    172 H172        1.5436  -16.3961  -39.1327 H         1 UNK         0.0600 
    173 H173        0.6170  -15.4772  -37.9527 H         1 UNK         0.0600 
    174 H174        0.5257  -14.6515  -41.4242 H         1 UNK         0.3000 
    175 H175       -0.3823  -11.6131  -41.2460 H         1 UNK         0.0600 
    176 H176        1.6706  -10.2385  -40.8035 H         1 UNK         0.0600 
    177 H177        0.7639  -10.6022  -39.3454 H         1 UNK         0.0600 
    178 H178        2.2453  -11.4784  -39.6879 H         1 UNK         0.0600 
    179 H179        0.6706  -12.4072  -42.9955 H         1 UNK         0.3000 
    180 H180        3.8365  -12.8564  -43.9114 H         1 UNK         0.0600 
    181 H181        2.2502  -15.4566  -43.6297 H         1 UNK         0.0600 
    182 H182        3.4451  -15.1475  -44.8898 H         1 UNK         0.0600 
    183 H183        3.9429  -15.2159  -43.2081 H         1 UNK         0.0600 
    184 H184        1.3067  -13.7099  -45.1090 H         1 UNK         0.3000 
    185 H185       -0.2703  -11.8339  -45.7948 H         1 UNK         0.0600 
    186 H186       -0.3321  -10.0190  -47.4713 H         1 UNK         0.0600 
    187 H187        0.3997   -9.4458  -45.9834 H         1 UNK         0.0600 
    188 H188        1.4178   -9.8237  -47.3688 H         1 UNK         0.0600 
    189 H189        0.9846  -12.0128  -48.3534 H         1 UNK         0.3000 
    190 H190       -1.5715  -20.4484  -46.3695 H         1 UNK         0.3000 
    191 H191       -4.4395  -20.5792  -46.7970 H         1 UNK         0.0600 
    192 H192       -4.4541  -19.0952  -44.7254 H         1 UNK         0.0600 
    193 H193       -2.7000  -19.2412  -44.6754 H         1 UNK         0.0600 
    194 H194       -3.4877  -18.4745  -46.0508 H         1 UNK         0.0600 
    195 H195       -2.1775  -21.8195  -44.2830 H         1 UNK         0.3000 
    196 H196       -4.1863  -23.0972  -42.6883 H         1 UNK         0.0600 
    197 H197       -2.1744  -24.2295  -41.6441 H         1 UNK         0.0600 
    198 H198       -2.0510  -22.4821  -41.6950 H         1 UNK         0.0600 
    199 H199       -1.1502  -23.4622  -42.8527 H         1 UNK         0.0600 
    200 H200       -2.0524  -24.2586  -45.3129 H         1 UNK         0.3000 
    201 H201       -2.9484  -26.9942  -45.2414 H         1 UNK         0.0600 
    202 H202       -0.7342  -26.2811  -46.1427 H         1 UNK         0.0600 
    203 H203       -1.5299  -25.3854  -47.4351 H         1 UNK         0.0600 
    204 H204       -1.6542  -27.1391  -47.3688 H         1 UNK         0.0600 
    205 H205       -4.4147  -24.1573  -46.4678 H         1 UNK         0.3000 
    206 H206       -6.1656  -23.6160  -47.6639 H         1 UNK         0.0600 
    207 H207       -7.3922  -25.4259  -46.4277 H         1 UNK         0.0600 
    208 H208       -8.0383  -25.1486  -48.0365 H         1 UNK         0.0600 
    209 H209       -7.0287  -26.5532  -47.7350 H         1 UNK         0.0600 
    210 H210       -3.6038  -24.6218  -48.8938 H         1 UNK         0.3000 
    211 H211       -4.1825  -25.4374  -51.6168 H         1 UNK         0.0600 
    212 H212       -1.6508  -24.2469  -50.3528 H         1 UNK         0.0600 
    213 H213       -1.7522  -24.9917  -51.9419 H         1 UNK         0.0600 
    214 H214       -2.0107  -25.9663  -50.5028 H         1 UNK         0.0600 
    215 H215       -4.0022  -22.3992  -49.8773 H         1 UNK         0.3000 
    216 H216       -3.5895  -20.5563  -51.9588 H         1 UNK         0.0600 
    217 H217       -4.7039  -18.9489  -50.3425 H         1 UNK         0.0600 
    218 H218       -3.4488  -19.9227  -49.5974 H         1 UNK         0.0600 
    219 H219       -5.1469  -20.3184  -49.3328 H         1 UNK         0.0600 
    220 H220       -6.4348  -22.4708  -51.3665 H         1 UNK         0.3000 
    221 H221       -8.2909  -20.8031  -52.8653 H         1 UNK         0.0600 
    222 H222       -8.4371  -23.7354  -51.9812 H         1 UNK         0.0600 
    223 H223       -9.0637  -22.3553  -51.0799 H         1 UNK         0.0600 
    224 H224       -9.7733  -22.7900  -52.6270 H         1 UNK         0.0600 
    225 H225       -5.8360  -23.1702  -53.6930 H         1 UNK         0.3000 
    226 H226       -6.9657  -23.5972  -56.4306 H         1 UNK         0.0600 
    227 H227       -5.5061  -25.6074  -56.4320 H         1 UNK         0.0600 
    228 H228       -4.9345  -25.2236  -54.8121 H         1 UNK         0.0600 
    229 H229       -6.6239  -25.6528  -55.0773 H         1 UNK         0.0600 
    230 H230       -4.1315  -22.4848  -54.6016 H         1 UNK         0.3000 
    231 H231       -2.2423  -22.3430  -56.6566 H         1 UNK         0.0600 
    232 H232       -1.0503  -20.8196  -55.0580 H         1 UNK         0.0600 
    233 H233       -1.7379  -22.1972  -54.2132 H         1 UNK         0.0600 
    234 H234       -2.5334  -20.6247  -54.1341 H         1 UNK         0.0600 
    235 H235       -1.3519  -20.6205  -57.8455 H         1 UNK         0.3000 
    236 H236       -3.1925  -18.6339  -58.8945 H         1 UNK         0.0600 
    237 H237       -0.2054  -19.1164  -59.3983 H         1 UNK         0.0600 
    238 H238       -1.5363  -19.7783  -60.3481 H         1 UNK         0.0600 
    239 H239       -1.2425  -18.0471  -60.3348 H         1 UNK         0.0600 
    240 H240       -0.7525  -18.7070  -56.4014 H         1 UNK         0.3000 
    241 H241       -0.0206  -17.3067  -54.8822 H         1 UNK         0.0600 
    242 H242        1.7380  -15.2582  -57.6322 H         1 UNK         0.3800 
    243 H243        0.9179  -16.7879  -57.8052 H         1 UNK         0.3800 
    244 H244       -2.3956  -15.4988  -55.5334 H         1 UNK         0.0800 
    245 H245       -1.4194  -15.3926  -54.0998 H         1 UNK         0.0800 
    246 H246       -2.4129  -16.1632  -51.9633 H         1 UNK         0.0800 
    247 H247       -3.0091  -17.7777  -51.6874 H         1 UNK         0.0800 
@<TRIPOS>BOND
     1    1    2 1    
     2    1  127 1    
     3    1  128 1    
     4    1  129 1    
     5    2    3 2    
     6    2    4 am   BACKBONE|DICT|INTERRES
     7    4    5 1    
     8    4  130 1    
     9    5    6 1    
    10    5   65 1    
    11    5  131 1    
    12    6    7 1    
    13    6  132 1    
    14    6  133 1    
    15    7    8 1    
    16    8    9 1    
    17    8  134 1    
    18    8  135 1    
    19    9   10 ar   
    20    9   14 ar   
    21   10   11 ar   
    22   10  136 1    
    23   11   12 ar   
    24   11  126 1    
    25   12   13 ar   
    26   12  137 1    
    27   13   14 ar   
    28   13   15 1    
    29   14  138 1    
    30   15   16 1    
    31   15  139 1    
    32   15  140 1    
    33   16   17 1    
    34   17   18 1    
    35   17  141 1    
    36   17  142 1    
    37   18   19 1    
    38   18   67 1    
    39   18  143 1    
    40   19   20 am   BACKBONE|DICT|INTERRES
    41   19  144 1    
    42   20   21 2    
    43   20   22 1    
    44   22   23 1    
    45   22   24 1    
    46   22  145 1    
    47   23  146 1    
    48   23  147 1    
    49   23  148 1    
    50   24   25 am   BACKBONE|DICT|INTERRES
    51   24  149 1    
    52   25   26 2    
    53   25   27 1    
    54   27   28 1    
    55   27   29 1    
    56   27  150 1    
    57   28  151 1    
    58   28  152 1    
    59   28  153 1    
    60   29   30 am   BACKBONE|DICT|INTERRES
    61   29  154 1    
    62   30   31 2    
    63   30   32 1    
    64   32   33 1    
    65   32   34 1    
    66   32  155 1    
    67   33  156 1    
    68   33  157 1    
    69   33  158 1    
    70   34   35 am   BACKBONE|DICT|INTERRES
    71   34  159 1    
    72   35   36 2    
    73   35   37 1    
    74   37   38 1    
    75   37   39 1    
    76   37  160 1    
    77   38  161 1    
    78   38  162 1    
    79   38  163 1    
    80   39   40 am   BACKBONE|DICT|INTERRES
    81   39  164 1    
    82   40   41 2    
    83   40   42 1    
    84   42   43 1    
    85   42   44 1    
    86   42  165 1    
    87   43  166 1    
    88   43  167 1    
    89   43  168 1    
    90   44   45 am   BACKBONE|DICT|INTERRES
    91   44  169 1    
    92   45   46 2    
    93   45   47 1    
    94   47   48 1    
    95   47   49 1    
    96   47  170 1    
    97   48  171 1    
    98   48  172 1    
    99   48  173 1    
   100   49   50 am   BACKBONE|DICT|INTERRES
   101   49  174 1    
   102   50   51 2    
   103   50   52 1    
   104   52   53 1    
   105   52   54 1    
   106   52  175 1    
   107   53  176 1    
   108   53  177 1    
   109   53  178 1    
   110   54   55 am   BACKBONE|DICT|INTERRES
   111   54  179 1    
   112   55   56 2    
   113   55   57 1    
   114   57   58 1    
   115   57   59 1    
   116   57  180 1    
   117   58  181 1    
   118   58  182 1    
   119   58  183 1    
   120   59   60 am   BACKBONE|DICT|INTERRES
   121   59  184 1    
   122   60   61 2    
   123   60   62 1    
   124   62   63 1    
   125   62   64 1    
   126   62  185 1    
   127   63  186 1    
   128   63  187 1    
   129   63  188 1    
   130   64   65 am   BACKBONE|DICT|INTERRES
   131   64  189 1    
   132   65   66 2    
   133   67   68 2    
   134   67   69 am   BACKBONE|DICT|INTERRES
   135   69   70 1    
   136   69  190 1    
   137   70   71 1    
   138   70   72 1    
   139   70  191 1    
   140   71  192 1    
   141   71  193 1    
   142   71  194 1    
   143   72   73 2    
   144   72   74 am   BACKBONE|DICT|INTERRES
   145   74   75 1    
   146   74  195 1    
   147   75   76 1    
   148   75   77 1    
   149   75  196 1    
   150   76  197 1    
   151   76  198 1    
   152   76  199 1    
   153   77   78 2    
   154   77   79 am   BACKBONE|DICT|INTERRES
   155   79   80 1    
   156   79  200 1    
   157   80   81 1    
   158   80   82 1    
   159   80  201 1    
   160   81  202 1    
   161   81  203 1    
   162   81  204 1    
   163   82   83 2    
   164   82   84 am   BACKBONE|DICT|INTERRES
   165   84   85 1    
   166   84  205 1    
   167   85   86 1    
   168   85   87 1    
   169   85  206 1    
   170   86  207 1    
   171   86  208 1    
   172   86  209 1    
   173   87   88 2    
   174   87   89 am   BACKBONE|DICT|INTERRES
   175   89   90 1    
   176   89  210 1    
   177   90   91 1    
   178   90   92 1    
   179   90  211 1    
   180   91  212 1    
   181   91  213 1    
   182   91  214 1    
   183   92   93 2    
   184   92   94 am   BACKBONE|DICT|INTERRES
   185   94   95 1    
   186   94  215 1    
   187   95   96 1    
   188   95   97 1    
   189   95  216 1    
   190   96  217 1    
   191   96  218 1    
   192   96  219 1    
   193   97   98 2    
   194   97   99 am   BACKBONE|DICT|INTERRES
   195   99  100 1    
   196   99  220 1    
   197  100  101 1    
   198  100  102 1    
   199  100  221 1    
   200  101  222 1    
   201  101  223 1    
   202  101  224 1    
   203  102  103 2    
   204  102  104 am   BACKBONE|DICT|INTERRES
   205  104  105 1    
   206  104  225 1    
   207  105  106 1    
   208  105  107 1    
   209  105  226 1    
   210  106  227 1    
   211  106  228 1    
   212  106  229 1    
   213  107  108 2    
   214  107  109 am   BACKBONE|DICT|INTERRES
   215  109  110 1    
   216  109  230 1    
   217  110  111 1    
   218  110  112 1    
   219  110  231 1    
   220  111  232 1    
   221  111  233 1    
   222  111  234 1    
   223  112  113 2    
   224  112  114 am   BACKBONE|DICT|INTERRES
   225  114  115 1    
   226  114  235 1    
   227  115  116 1    
   228  115  117 1    
   229  115  236 1    
   230  116  237 1    
   231  116  238 1    
   232  116  239 1    
   233  117  118 2    
   234  117  119 am   BACKBONE|DICT|INTERRES
   235  119  120 1    
   236  119  240 1    
   237  120  121 1    
   238  120  124 1    
   239  120  241 1    
   240  121  122 am   BACKBONE|DICT|INTERRES
   241  121  123 2    
   242  122  242 1    
   243  122  243 1    
   244  124  125 1    
   245  124  244 1    
   246  124  245 1    
   247  125  126 1    
   248  126  246 1    
   249  126  247 1    
@<TRIPOS>SUBSTRUCTURE
     1 UNK         1 GROUP             0       ****    0 ROOT    
