@<TRIPOS>MOLECULE
3R540
247   249    1
SMALL
USER_CHARGES


@<TRIPOS>ATOM
      1 CA         -1.0487   -8.7364  -49.4642 C.3       0 UNK        -0.1800 
      2 C          -0.1632   -9.9674  -49.3323 C.2       0 UNK         0.5000 
      3 O           1.0202   -9.9103  -49.6667 O.2       0 UNK        -0.5000 
      4 N          -0.7294  -11.0778  -48.8423 N.am      1 UNK        -0.5000 
      5 CA         -0.0429  -12.3683  -48.6744 C.3       1 UNK         0.1400 
      6 C6         -1.0335  -13.5615  -48.6235 C.3       23 UNK        -0.0398 
      7 S7         -2.1818  -13.5938  -50.0405 S.3       23 UNK        -0.2404 
      8 C8         -1.2166  -14.5211  -51.2742 C.3       23 UNK        -0.0205 
      9 C9         -1.2489  -16.0242  -51.0369 C.ar      23 UNK        -0.0193 
     10 C10        -2.4447  -16.7272  -51.2000 C.ar      23 UNK        -0.1150 
     11 C11        -2.4746  -18.1147  -51.0555 C.ar      23 UNK        -0.0193 
     12 C12        -1.2966  -18.8025  -50.7496 C.ar      23 UNK        -0.1150 
     13 C13        -0.0887  -18.1148  -50.5762 C.ar      23 UNK        -0.0193 
     14 C14        -0.0797  -16.7219  -50.7157 C.ar      23 UNK        -0.1150 
     15 C15         1.2382  -18.8336  -50.3191 C.3       23 UNK        -0.0205 
     16 S16         1.1218  -20.5236  -49.6315 S.3       23 UNK        -0.2404 
     17 C17         0.7947  -20.1867  -47.8706 C.3       23 UNK        -0.0398 
     18 CA         -0.2859  -21.1198  -47.2706 C.3       11 UNK         0.1400 
     19 N          -0.1636  -21.2292  -45.8128 N.am      11 UNK        -0.5000 
     20 C          -0.8881  -22.0503  -45.0381 C.2       10 UNK         0.5000 
     21 O          -1.7138  -22.8500  -45.4728 O.2       10 UNK        -0.5000 
     22 CA         -0.7074  -21.9197  -43.5160 C.3       10 UNK         0.1400 
     23 CB          0.5510  -22.6620  -43.0433 C.3       10 UNK        -0.1800 
     24 N          -0.6603  -20.5255  -43.0781 N.am      10 UNK        -0.5000 
     25 C          -1.6696  -19.6525  -43.2151 C.2       9 UNK         0.5000 
     26 O          -2.7739  -19.9481  -43.6716 O.2       9 UNK        -0.5000 
     27 CA         -1.3754  -18.1924  -42.8272 C.3       9 UNK         0.1400 
     28 CB         -1.4236  -18.0218  -41.3017 C.3       9 UNK        -0.1800 
     29 N          -0.0821  -17.7350  -43.3386 N.am      9 UNK        -0.5000 
     30 C           0.2436  -17.6698  -44.6380 C.2       8 UNK         0.5000 
     31 O          -0.5406  -17.9155  -45.5530 O.2       8 UNK        -0.5000 
     32 CA          1.7043  -17.3296  -44.9752 C.3       8 UNK         0.1400 
     33 CB          1.9359  -15.8167  -44.9641 C.3       8 UNK        -0.1800 
     34 N           2.6438  -17.9724  -44.0598 N.am      8 UNK        -0.5000 
     35 C           2.8980  -19.2870  -44.0438 C.2       7 UNK         0.5000 
     36 O           2.3870  -20.0906  -44.8233 O.2       7 UNK        -0.5000 
     37 CA          3.8512  -19.7874  -42.9440 C.3       7 UNK         0.1400 
     38 CB          5.3155  -19.5811  -43.3587 C.3       7 UNK        -0.1800 
     39 N           3.6114  -19.1310  -41.6572 N.am      7 UNK        -0.5000 
     40 C           2.4988  -19.2931  -40.9279 C.2       6 UNK         0.5000 
     41 O           1.5704  -20.0314  -41.2553 O.2       6 UNK        -0.5000 
     42 CA          2.3867  -18.4625  -39.6364 C.3       6 UNK         0.1400 
     43 CB          3.0703  -19.1885  -38.4684 C.3       6 UNK        -0.1800 
     44 N           2.9316  -17.1059  -39.7516 N.am      6 UNK        -0.5000 
     45 C           2.4739  -16.1698  -40.5929 C.2       5 UNK         0.5000 
     46 O           1.6009  -16.3774  -41.4385 O.2       5 UNK        -0.5000 
     47 CA          3.1240  -14.7796  -40.4994 C.3       5 UNK         0.1400 
     48 CB          4.1829  -14.6071  -41.5990 C.3       5 UNK        -0.1800 
     49 N           2.1096  -13.7378  -40.6405 N.am      5 UNK        -0.5000 
     50 C           1.2631  -13.3664  -39.6672 C.2       4 UNK         0.5000 
     51 O           1.3391  -13.7739  -38.5072 O.2       4 UNK        -0.5000 
     52 CA          0.1323  -12.3873  -40.0500 C.3       4 UNK         0.1400 
     53 CB          0.5648  -10.9356  -39.7945 C.3       4 UNK        -0.1800 
     54 N          -0.2639  -12.5270  -41.4503 N.am      4 UNK        -0.5000 
     55 C          -0.9102  -13.5861  -41.9534 C.2       3 UNK         0.5000 
     56 O          -1.4667  -14.4264  -41.2475 O.2       3 UNK        -0.5000 
     57 CA         -0.9246  -13.7592  -43.4900 C.3       3 UNK         0.1400 
     58 CB         -2.3544  -13.9525  -44.0217 C.3       3 UNK        -0.1800 
     59 N          -0.2740  -12.6958  -44.2694 N.am      3 UNK        -0.5000 
     60 C           1.0233  -12.3514  -44.2535 C.2       2 UNK         0.5000 
     61 O           1.8460  -12.8341  -43.4746 O.2       2 UNK        -0.5000 
     62 CA          1.4457  -11.2599  -45.2586 C.3       2 UNK         0.1400 
     63 CB          2.9756  -11.1561  -45.4339 C.3       2 UNK        -0.1800 
     64 N           0.7616  -11.3979  -46.5510 N.am      2 UNK        -0.5000 
     65 C           0.8848  -12.3991  -47.4389 C.2       1 UNK         0.5000 
     66 O           1.6718  -13.3364  -47.3123 O.2       1 UNK        -0.5000 
     67 C          -1.7071  -20.6987  -47.6990 C.2       11 UNK         0.5000 
     68 O          -2.3020  -21.3506  -48.5576 O.2       11 UNK        -0.5000 
     69 N          -2.2412  -19.6513  -47.0544 N.am      12 UNK        -0.5000 
     70 CA         -3.5922  -19.1358  -47.2706 C.3       12 UNK         0.1400 
     71 CB         -3.7849  -17.8445  -46.4610 C.3       12 UNK        -0.1800 
     72 C          -4.6929  -20.1642  -46.9476 C.2       12 UNK         0.5000 
     73 O          -5.6694  -20.2566  -47.6917 O.2       12 UNK        -0.5000 
     74 N          -4.5072  -20.9263  -45.8609 N.am      13 UNK        -0.5000 
     75 CA         -5.4039  -22.0017  -45.4390 C.3       13 UNK         0.1400 
     76 CB         -5.0748  -22.4023  -43.9926 C.3       13 UNK        -0.1800 
     77 C          -5.3504  -23.2272  -46.3709 C.2       13 UNK         0.5000 
     78 O          -6.3999  -23.7753  -46.7103 O.2       13 UNK        -0.5000 
     79 N          -4.1358  -23.6392  -46.7589 N.am      14 UNK        -0.5000 
     80 CA         -3.8794  -24.7805  -47.6391 C.3       14 UNK         0.1400 
     81 CB         -2.3847  -25.1261  -47.5847 C.3       14 UNK        -0.1800 
     82 C          -4.3204  -24.5367  -49.0926 C.2       14 UNK         0.5000 
     83 O          -4.8026  -25.4659  -49.7427 O.2       14 UNK        -0.5000 
     84 N          -4.1424  -23.2977  -49.5709 N.am      15 UNK        -0.5000 
     85 CA         -4.4691  -22.8078  -50.9088 C.3       15 UNK         0.1400 
     86 CB         -5.9947  -22.6329  -51.0649 C.3       15 UNK        -0.1800 
     87 C          -3.8059  -23.6607  -52.0056 C.2       15 UNK         0.5000 
     88 O          -2.5774  -23.7034  -52.0619 O.2       15 UNK        -0.5000 
     89 N          -4.6079  -24.3689  -52.8116 N.am      16 UNK        -0.5000 
     90 CA         -4.1685  -25.2386  -53.9071 C.3       16 UNK         0.1400 
     91 CB         -5.4076  -25.7429  -54.6624 C.3       16 UNK        -0.1800 
     92 C          -3.2638  -26.4169  -53.4869 C.2       16 UNK         0.5000 
     93 O          -2.5969  -26.9954  -54.3454 O.2       16 UNK        -0.5000 
     94 N          -3.2409  -26.7557  -52.1900 N.am      17 UNK        -0.5000 
     95 CA         -2.3263  -27.7461  -51.6223 C.3       17 UNK         0.1400 
     96 CB         -2.9421  -28.3215  -50.3376 C.3       17 UNK        -0.1800 
     97 C          -0.9099  -27.1891  -51.3579 C.2       17 UNK         0.5000 
     98 O           0.0067  -27.9887  -51.1629 O.2       17 UNK        -0.5000 
     99 N          -0.7440  -25.8575  -51.3445 N.am      18 UNK        -0.5000 
    100 CA         0.5293  -25.1771  -51.0866 C.3       18 UNK         0.1400 
    101 CB         0.3966  -24.3220  -49.8164 C.3       18 UNK        -0.1800 
    102 C          0.9834  -24.3028  -52.2680 C.2       18 UNK         0.5000 
    103 O          2.1834  -24.2394  -52.5401 O.2       18 UNK        -0.5000 
    104 N          0.0353  -23.6423  -52.9390 N.am      19 UNK        -0.5000 
    105 CA         0.2568  -22.7043  -54.0342 C.3       19 UNK         0.1400 
    106 CB         0.1233  -21.2679  -53.4847 C.3       19 UNK        -0.1800 
    107 C         -0.7126  -23.0173  -55.1905 C.2       19 UNK         0.5000 
    108 O         -1.0503  -24.1821  -55.4116 O.2       19 UNK        -0.5000 
    109 N         -1.1209  -21.9792  -55.9296 N.am      20 UNK        -0.5000 
    110 CA        -2.1172  -22.0350  -56.9999 C.3       20 UNK         0.1400 
    111 CB        -1.8888  -20.8250  -57.9241 C.3       20 UNK        -0.1800 
    112 C         -3.5544  -22.0515  -56.4369 C.2       20 UNK         0.5000 
    113 O         -3.7489  -22.1130  -55.2218 O.2       20 UNK        -0.5000 
    114 N         -4.5540  -21.9534  -57.3234 N.am      21 UNK        -0.5000 
    115 CA        -5.9793  -21.8333  -56.9922 C.3       21 UNK         0.1400 
    116 CB        -6.8078  -22.2216  -58.2298 C.3       21 UNK        -0.1800 
    117 C         -6.3429  -20.4314  -56.4435 C.2       21 UNK         0.5000 
    118 O         -7.2004  -19.7414  -56.9970 O.2       21 UNK        -0.5000 
    119 N         -5.6547  -20.0323  -55.3713 N.am      22 UNK        -0.5000 
    120 CA        -5.7722  -18.7503  -54.6613 C.3       22 UNK         0.1400 
    121 C         -6.9821  -18.6437  -53.6868 C.2       22 UNK         0.5000 
    122 N         -7.7569  -19.6985  -53.4648 N.am      22 UNK        -0.7600 
    123 O         -7.2318  -17.5767  -53.1331 O.2       22 UNK        -0.5000 
    124 C124       -4.4312  -18.3828  -53.9712 C.3       23 UNK        -0.0398 
    125 S125       -3.8088  -19.7008  -52.8688 S.3       23 UNK        -0.2404 
    126 C126       -3.7719  -18.8798  -51.2495 C.3       23 UNK        -0.0205 
    127 H127       -2.0679   -8.9320  -49.1297 H         1 UNK         0.0600 
    128 H128       -1.0888   -8.4134  -50.5045 H         1 UNK         0.0600 
    129 H129       -0.6458   -7.9182  -48.8673 H         1 UNK         0.0600 
    130 H130       -1.7130  -11.0728  -48.6106 H         1 UNK         0.3000 
    131 H131        0.6015  -12.5175  -49.5434 H         1 UNK         0.0600 
    132 H132       -1.6348  -13.5190  -47.7136 H         1 UNK         0.0800 
    133 H133       -0.4965  -14.5114  -48.5842 H         1 UNK         0.0800 
    134 H134       -1.6316  -14.3169  -52.2622 H         1 UNK         0.0800 
    135 H135       -0.1918  -14.1477  -51.2954 H         1 UNK         0.0800 
    136 H136       -3.3487  -16.1919  -51.4544 H         1 UNK         0.1150 
    137 H137       -1.3299  -19.8798  -50.6745 H         1 UNK         0.1150 
    138 H138        0.8504  -16.1816  -50.6072 H         1 UNK         0.1150 
    139 H139        1.7678  -18.8978  -51.2703 H         1 UNK         0.0800 
    140 H140        1.8667  -18.2315  -49.6610 H         1 UNK         0.0800 
    141 H141        1.7429  -20.3343  -47.3536 H         1 UNK         0.0800 
    142 H142        0.5360  -19.1365  -47.7264 H         1 UNK         0.0800 
    143 H143       -0.1169  -22.1262  -47.6599 H         1 UNK         0.0600 
    144 H144        0.5319  -20.6369  -45.3712 H         1 UNK         0.3000 
    145 H145       -1.5721  -22.3863  -43.0397 H         1 UNK         0.0600 
    146 H146        0.6350  -22.6405  -41.9566 H         1 UNK         0.0600 
    147 H147        0.5234  -23.7092  -43.3469 H         1 UNK         0.0600 
    148 H148        1.4595  -22.2240  -43.4564 H         1 UNK         0.0600 
    149 H149        0.2006  -20.2163  -42.6364 H         1 UNK         0.3000 
    150 H150       -2.1485  -17.5601  -43.2684 H         1 UNK         0.0600 
    151 H151       -2.4158  -18.2584  -40.9161 H         1 UNK         0.0600 
    152 H152       -1.1951  -16.9986  -41.0082 H         1 UNK         0.0600 
    153 H153       -0.7127  -18.6754  -40.7975 H         1 UNK         0.0600 
    154 H154        0.6067  -17.4505  -42.6468 H         1 UNK         0.3000 
    155 H155        1.9032  -17.6922  -45.9860 H         1 UNK         0.0600 
    156 H156        2.9232  -15.5614  -45.3486 H         1 UNK         0.0600 
    157 H157        1.8549  -15.4117  -43.9567 H         1 UNK         0.0600 
    158 H158        1.2014  -15.3056  -45.5868 H         1 UNK         0.0600 
    159 H159        3.0596  -17.3882  -43.3501 H         1 UNK         0.3000 
    160 H160        3.6799  -20.8586  -42.8176 H         1 UNK         0.0600 
    161 H161        5.5582  -18.5242  -43.4757 H         1 UNK         0.0600 
    162 H162        5.5242  -20.0733  -44.3096 H         1 UNK         0.0600 
    163 H163        5.9973  -20.0025  -42.6197 H         1 UNK         0.0600 
    164 H164        4.3266  -18.5054  -41.3172 H         1 UNK         0.3000 
    165 H165        1.3248  -18.3693  -39.4006 H         1 UNK         0.0600 
    166 H166        4.1460  -19.2802  -38.6241 H         1 UNK         0.0600 
    167 H167        2.9103  -18.6611  -37.5278 H         1 UNK         0.0600 
    168 H168        2.6693  -20.1957  -38.3463 H         1 UNK         0.0600 
    169 H169        3.6611  -16.8605  -39.0979 H         1 UNK         0.3000 
    170 H170        3.6119  -14.6723  -39.5283 H         1 UNK         0.0600 
    171 H171        4.9695  -15.3568  -41.5071 H         1 UNK         0.0600 
    172 H172        3.7513  -14.7036  -42.5957 H         1 UNK         0.0600 
    173 H173        4.6576  -13.6277  -41.5369 H         1 UNK         0.0600 
    174 H174        1.9585  -13.3925  -41.5837 H         1 UNK         0.3000 
    175 H175       -0.7314  -12.6065  -39.4187 H         1 UNK         0.0600 
    176 H176       -0.2454  -10.2388  -40.0104 H         1 UNK         0.0600 
    177 H177        0.8477  -10.7911  -38.7510 H         1 UNK         0.0600 
    178 H178        1.4218  -10.6565  -40.4090 H         1 UNK         0.0600 
    179 H179        0.1726  -11.8958  -42.1054 H         1 UNK         0.3000 
    180 H180       -0.3792  -14.6826  -43.6852 H         1 UNK         0.0600 
    181 H181       -2.3511  -14.1859  -45.0868 H         1 UNK         0.0600 
    182 H182       -2.8556  -14.7796  -43.5170 H         1 UNK         0.0600 
    183 H183       -2.9617  -13.0590  -43.8727 H         1 UNK         0.0600 
    184 H184       -0.8721  -12.2098  -44.9208 H         1 UNK         0.3000 
    185 H185        1.1047  -10.3144  -44.8349 H         1 UNK         0.0600 
    186 H186        3.2384  -10.3877  -46.1609 H         1 UNK         0.0600 
    187 H187        3.4573  -10.8903  -44.4923 H         1 UNK         0.0600 
    188 H188        3.4137  -12.0977  -45.7657 H         1 UNK         0.0600 
    189 H189        0.0943  -10.6721  -46.7717 H         1 UNK         0.3000 
    190 H190       -1.6695  -19.1466  -46.3807 H         1 UNK         0.3000 
    191 H191       -3.6782  -18.8777  -48.3256 H         1 UNK         0.0600 
    192 H192       -4.7781  -17.4251  -46.6251 H         1 UNK         0.0600 
    193 H193       -3.0587  -17.0854  -46.7531 H         1 UNK         0.0600 
    194 H194       -3.6735  -18.0186  -45.3907 H         1 UNK         0.0600 
    195 H195       -3.7032  -20.7430  -45.2685 H         1 UNK         0.3000 
    196 H196       -6.4254  -21.6158  -45.4561 H         1 UNK         0.0600 
    197 H197       -5.7406  -23.1928  -43.6444 H         1 UNK         0.0600 
    198 H198       -5.1902  -21.5566  -43.3144 H         1 UNK         0.0600 
    199 H199       -4.0518  -22.7675  -43.8980 H         1 UNK         0.0600 
    200 H200       -3.3148  -23.1636  -46.3913 H         1 UNK         0.3000 
    201 H201       -4.4420  -25.6370  -47.2624 H         1 UNK         0.0600 
    202 H202       -2.0909  -25.4445  -46.5845 H         1 UNK         0.0600 
    203 H203       -1.7742  -24.2634  -47.8513 H         1 UNK         0.0600 
    204 H204       -2.1309  -25.9331  -48.2712 H         1 UNK         0.0600 
    205 H205       -3.6433  -22.6304  -48.9875 H         1 UNK         0.3000 
    206 H206       -4.0081  -21.8266  -50.9791 H         1 UNK         0.0600 
    207 H207       -6.3802  -21.9427  -50.3140 H         1 UNK         0.0600 
    208 H208       -6.2439  -22.2133  -52.0405 H         1 UNK         0.0600 
    209 H209       -6.5330  -23.5744  -50.9522 H         1 UNK         0.0600 
    210 H210       -5.6038  -24.3076  -52.6623 H         1 UNK         0.3000 
    211 H211       -3.5806  -24.6291  -54.5930 H         1 UNK         0.0600 
    212 H212       -6.0561  -26.3370  -54.0176 H         1 UNK         0.0600 
    213 H213       -5.1227  -26.3686  -55.5093 H         1 UNK         0.0600 
    214 H214       -5.9925  -24.9126  -55.0584 H         1 UNK         0.0600 
    215 H215       -3.8291  -26.2487  -51.5378 H         1 UNK         0.3000 
    216 H216       -2.2179  -28.5714  -52.3293 H         1 UNK         0.0600 
    217 H217       -2.2973  -29.0854  -49.9013 H         1 UNK         0.0600 
    218 H218       -3.9064  -28.7882  -50.5392 H         1 UNK         0.0600 
    219 H219       -3.0968  -27.5533  -49.5821 H         1 UNK         0.0600 
    220 H220       -1.5373  -25.2593  -51.5530 H         1 UNK         0.3000 
    221 H221        1.3249  -25.9042  -50.9125 H         1 UNK         0.0600 
    222 H222        0.2320  -24.9496  -48.9415 H         1 UNK         0.0600 
    223 H223        1.3051  -23.7470  -49.6323 H         1 UNK         0.0600 
    224 H224       -0.4305  -23.6139  -49.8908 H         1 UNK         0.0600 
    225 H225       -0.9397  -23.7464  -52.6611 H         1 UNK         0.3000 
    226 H226        1.2635  -22.8280  -54.4373 H         1 UNK         0.0600 
    227 H227       -0.8930  -21.0610  -53.1455 H         1 UNK         0.0600 
    228 H228        0.7899  -21.1122  -52.6368 H         1 UNK         0.0600 
    229 H229        0.3888  -20.5208  -54.2329 H         1 UNK         0.0600 
    230 H230       -0.8244  -21.0556  -55.6516 H         1 UNK         0.3000 
    231 H231       -1.9715  -22.9502  -57.5769 H         1 UNK         0.0600 
    232 H232       -2.5220  -20.8712  -58.8104 H         1 UNK         0.0600 
    233 H233       -0.8573  -20.7873  -58.2749 H         1 UNK         0.0600 
    234 H234       -2.1023  -19.8843  -57.4146 H         1 UNK         0.0600 
    235 H235       -4.3237  -21.8781  -58.3034 H         1 UNK         0.3000 
    236 H236       -6.2115  -22.5522  -56.2038 H         1 UNK         0.0600 
    237 H237       -6.6212  -21.5482  -59.0672 H         1 UNK         0.0600 
    238 H238       -6.5767  -23.2357  -58.5564 H         1 UNK         0.0600 
    239 H239       -7.8760  -22.1891  -58.0122 H         1 UNK         0.0600 
    240 H240       -4.9561  -20.6723  -55.0004 H         1 UNK         0.3000 
    241 H241       -5.9546  -17.9848  -55.4169 H         1 UNK         0.0600 
    242 H242       -8.5418  -19.6147  -52.8391 H         1 UNK         0.3800 
    243 H243       -7.5676  -20.5756  -53.9201 H         1 UNK         0.3800 
    244 H244       -3.6705  -18.2134  -54.7332 H         1 UNK         0.0800 
    245 H245       -4.5131  -17.4389  -53.4301 H         1 UNK         0.0800 
    246 H246       -4.6401  -18.2288  -51.1356 H         1 UNK         0.0800 
    247 H247       -3.8579  -19.6366  -50.4710 H         1 UNK         0.0800 
@<TRIPOS>BOND
     1    1    2 1    
     2    1  127 1    
     3    1  128 1    
     4    1  129 1    
     5    2    3 2    
     6    2    4 am   BACKBONE|DICT|INTERRES
     7    4    5 1    
     8    4  130 1    
     9    5    6 1    
    10    5   65 1    
    11    5  131 1    
    12    6    7 1    
    13    6  132 1    
    14    6  133 1    
    15    7    8 1    
    16    8    9 1    
    17    8  134 1    
    18    8  135 1    
    19    9   10 ar   
    20    9   14 ar   
    21   10   11 ar   
    22   10  136 1    
    23   11   12 ar   
    24   11  126 1    
    25   12   13 ar   
    26   12  137 1    
    27   13   14 ar   
    28   13   15 1    
    29   14  138 1    
    30   15   16 1    
    31   15  139 1    
    32   15  140 1    
    33   16   17 1    
    34   17   18 1    
    35   17  141 1    
    36   17  142 1    
    37   18   19 1    
    38   18   67 1    
    39   18  143 1    
    40   19   20 am   BACKBONE|DICT|INTERRES
    41   19  144 1    
    42   20   21 2    
    43   20   22 1    
    44   22   23 1    
    45   22   24 1    
    46   22  145 1    
    47   23  146 1    
    48   23  147 1    
    49   23  148 1    
    50   24   25 am   BACKBONE|DICT|INTERRES
    51   24  149 1    
    52   25   26 2    
    53   25   27 1    
    54   27   28 1    
    55   27   29 1    
    56   27  150 1    
    57   28  151 1    
    58   28  152 1    
    59   28  153 1    
    60   29   30 am   BACKBONE|DICT|INTERRES
    61   29  154 1    
    62   30   31 2    
    63   30   32 1    
    64   32   33 1    
    65   32   34 1    
    66   32  155 1    
    67   33  156 1    
    68   33  157 1    
    69   33  158 1    
    70   34   35 am   BACKBONE|DICT|INTERRES
    71   34  159 1    
    72   35   36 2    
    73   35   37 1    
    74   37   38 1    
    75   37   39 1    
    76   37  160 1    
    77   38  161 1    
    78   38  162 1    
    79   38  163 1    
    80   39   40 am   BACKBONE|DICT|INTERRES
    81   39  164 1    
    82   40   41 2    
    83   40   42 1    
    84   42   43 1    
    85   42   44 1    
    86   42  165 1    
    87   43  166 1    
    88   43  167 1    
    89   43  168 1    
    90   44   45 am   BACKBONE|DICT|INTERRES
    91   44  169 1    
    92   45   46 2    
    93   45   47 1    
    94   47   48 1    
    95   47   49 1    
    96   47  170 1    
    97   48  171 1    
    98   48  172 1    
    99   48  173 1    
   100   49   50 am   BACKBONE|DICT|INTERRES
   101   49  174 1    
   102   50   51 2    
   103   50   52 1    
   104   52   53 1    
   105   52   54 1    
   106   52  175 1    
   107   53  176 1    
   108   53  177 1    
   109   53  178 1    
   110   54   55 am   BACKBONE|DICT|INTERRES
   111   54  179 1    
   112   55   56 2    
   113   55   57 1    
   114   57   58 1    
   115   57   59 1    
   116   57  180 1    
   117   58  181 1    
   118   58  182 1    
   119   58  183 1    
   120   59   60 am   BACKBONE|DICT|INTERRES
   121   59  184 1    
   122   60   61 2    
   123   60   62 1    
   124   62   63 1    
   125   62   64 1    
   126   62  185 1    
   127   63  186 1    
   128   63  187 1    
   129   63  188 1    
   130   64   65 am   BACKBONE|DICT|INTERRES
   131   64  189 1    
   132   65   66 2    
   133   67   68 2    
   134   67   69 am   BACKBONE|DICT|INTERRES
   135   69   70 1    
   136   69  190 1    
   137   70   71 1    
   138   70   72 1    
   139   70  191 1    
   140   71  192 1    
   141   71  193 1    
   142   71  194 1    
   143   72   73 2    
   144   72   74 am   BACKBONE|DICT|INTERRES
   145   74   75 1    
   146   74  195 1    
   147   75   76 1    
   148   75   77 1    
   149   75  196 1    
   150   76  197 1    
   151   76  198 1    
   152   76  199 1    
   153   77   78 2    
   154   77   79 am   BACKBONE|DICT|INTERRES
   155   79   80 1    
   156   79  200 1    
   157   80   81 1    
   158   80   82 1    
   159   80  201 1    
   160   81  202 1    
   161   81  203 1    
   162   81  204 1    
   163   82   83 2    
   164   82   84 am   BACKBONE|DICT|INTERRES
   165   84   85 1    
   166   84  205 1    
   167   85   86 1    
   168   85   87 1    
   169   85  206 1    
   170   86  207 1    
   171   86  208 1    
   172   86  209 1    
   173   87   88 2    
   174   87   89 am   BACKBONE|DICT|INTERRES
   175   89   90 1    
   176   89  210 1    
   177   90   91 1    
   178   90   92 1    
   179   90  211 1    
   180   91  212 1    
   181   91  213 1    
   182   91  214 1    
   183   92   93 2    
   184   92   94 am   BACKBONE|DICT|INTERRES
   185   94   95 1    
   186   94  215 1    
   187   95   96 1    
   188   95   97 1    
   189   95  216 1    
   190   96  217 1    
   191   96  218 1    
   192   96  219 1    
   193   97   98 2    
   194   97   99 am   BACKBONE|DICT|INTERRES
   195   99  100 1    
   196   99  220 1    
   197  100  101 1    
   198  100  102 1    
   199  100  221 1    
   200  101  222 1    
   201  101  223 1    
   202  101  224 1    
   203  102  103 2    
   204  102  104 am   BACKBONE|DICT|INTERRES
   205  104  105 1    
   206  104  225 1    
   207  105  106 1    
   208  105  107 1    
   209  105  226 1    
   210  106  227 1    
   211  106  228 1    
   212  106  229 1    
   213  107  108 2    
   214  107  109 am   BACKBONE|DICT|INTERRES
   215  109  110 1    
   216  109  230 1    
   217  110  111 1    
   218  110  112 1    
   219  110  231 1    
   220  111  232 1    
   221  111  233 1    
   222  111  234 1    
   223  112  113 2    
   224  112  114 am   BACKBONE|DICT|INTERRES
   225  114  115 1    
   226  114  235 1    
   227  115  116 1    
   228  115  117 1    
   229  115  236 1    
   230  116  237 1    
   231  116  238 1    
   232  116  239 1    
   233  117  118 2    
   234  117  119 am   BACKBONE|DICT|INTERRES
   235  119  120 1    
   236  119  240 1    
   237  120  121 1    
   238  120  124 1    
   239  120  241 1    
   240  121  122 am   BACKBONE|DICT|INTERRES
   241  121  123 2    
   242  122  242 1    
   243  122  243 1    
   244  124  125 1    
   245  124  244 1    
   246  124  245 1    
   247  125  126 1    
   248  126  246 1    
   249  126  247 1    
@<TRIPOS>SUBSTRUCTURE
     1 UNK         1 GROUP             0       ****    0 ROOT    
