@<TRIPOS>MOLECULE
3R540
247   249    1
SMALL
USER_CHARGES


@<TRIPOS>ATOM
      1 CA          6.5321  -17.3249  -50.2360 C.3       0 UNK        -0.1800 
      2 C           5.3211  -17.1116  -49.3391 C.2       0 UNK         0.5000 
      3 O           5.4830  -16.8230  -48.1543 O.2       0 UNK        -0.5000 
      4 N           4.1136  -17.2617  -49.8997 N.am      1 UNK        -0.5000 
      5 CA          2.7925  -17.1095  -49.2667 C.3       1 UNK         0.1400 
      6 C6          2.5636  -15.7544  -48.5457 C.3       23 UNK        -0.0398 
      7 S7          2.8420  -14.3167  -49.6364 S.3       23 UNK        -0.2404 
      8 C8          1.1817  -13.5697  -49.7200 C.3       23 UNK        -0.0205 
      9 C9          0.1343  -14.5011  -50.3168 C.ar      23 UNK        -0.0193 
     10 C10         0.3231  -15.0670  -51.5823 C.ar      23 UNK        -0.1150 
     11 C11        -0.6417  -15.9143  -52.1336 C.ar      23 UNK        -0.0193 
     12 C12        -1.8132  -16.1711  -51.4183 C.ar      23 UNK        -0.1150 
     13 C13        -2.0145  -15.6199  -50.1507 C.ar      23 UNK        -0.0193 
     14 C14        -1.0347  -14.7868  -49.6039 C.ar      23 UNK        -0.1150 
     15 C15        -3.2894  -15.9280  -49.3748 C.3       23 UNK        -0.0205 
     16 S16        -3.4925  -17.7107  -49.0578 S.3       23 UNK        -0.2404 
     17 C17        -2.0319  -18.0539  -48.0150 C.3       23 UNK        -0.0398 
     18 CA         -2.2568  -18.9969  -46.8036 C.3       11 UNK         0.1400 
     19 N          -2.9529  -18.3727  -45.6669 N.am      11 UNK        -0.5000 
     20 C          -4.2400  -18.0410  -45.4865 C.2       10 UNK         0.5000 
     21 O          -5.1402  -18.2819  -46.2884 O.2       10 UNK        -0.5000 
     22 CA         -4.5900  -17.3618  -44.1520 C.3       10 UNK         0.1400 
     23 CB         -4.7728  -18.4175  -43.0500 C.3       10 UNK        -0.1800 
     24 N          -3.5482  -16.4199  -43.7438 N.am      10 UNK        -0.5000 
     25 C          -3.6113  -15.0909  -43.9060 C.2       9 UNK         0.5000 
     26 O          -4.5904  -14.5017  -44.3654 O.2       9 UNK        -0.5000 
     27 CA         -2.3693  -14.2748  -43.4901 C.3       9 UNK         0.1400 
     28 CB         -2.4958  -13.8043  -42.0334 C.3       9 UNK        -0.1800 
     29 N          -1.1184  -15.0174  -43.6397 N.am      9 UNK        -0.5000 
     30 C          -0.5980  -15.4089  -44.8103 C.2       8 UNK         0.5000 
     31 O          -1.0646  -15.0970  -45.9055 O.2       8 UNK        -0.5000 
     32 CA          0.6349  -16.3295  -44.7534 C.3       8 UNK         0.1400 
     33 CB          1.9153  -15.5172  -44.9913 C.3       8 UNK        -0.1800 
     34 N           0.7765  -17.0888  -43.5055 N.am      8 UNK        -0.5000 
     35 C          -0.1041  -17.9724  -43.0133 C.2       7 UNK         0.5000 
     36 O          -1.1866  -18.2206  -43.5413 O.2       7 UNK        -0.5000 
     37 CA          0.2658  -18.6653  -41.6920 C.3       7 UNK         0.1400 
     38 CB          1.1131  -19.9215  -41.9464 C.3       7 UNK        -0.1800 
     39 N           0.9802  -17.7649  -40.7888 N.am      7 UNK        -0.5000 
     40 C           0.3959  -16.7940  -40.0724 C.2       6 UNK         0.5000 
     41 O          -0.8176  -16.5872  -40.0615 O.2       6 UNK        -0.5000 
     42 CA          1.3298  -15.8876  -39.2490 C.3       6 UNK         0.1400 
     43 CB          1.6077  -16.5074  -37.8711 C.3       6 UNK        -0.1800 
     44 N           2.6012  -15.6319  -39.9277 N.am      6 UNK        -0.5000 
     45 C           2.7323  -14.8833  -41.0320 C.2       5 UNK         0.5000 
     46 O           1.8008  -14.2756  -41.5595 O.2       5 UNK        -0.5000 
     47 CA          4.1340  -14.8349  -41.6723 C.3       5 UNK         0.1400 
     48 CB          4.9414  -13.6564  -41.1083 C.3       5 UNK        -0.1800 
     49 N           4.9032  -16.0727  -41.5021 N.am      5 UNK        -0.5000 
     50 C           4.5545  -17.2649  -42.0027 C.2       4 UNK         0.5000 
     51 O           3.5171  -17.4652  -42.6394 O.2       4 UNK        -0.5000 
     52 CA          5.4913  -18.4375  -41.6915 C.3       4 UNK         0.1400 
     53 CB          5.1952  -19.0105  -40.2942 C.3       4 UNK        -0.1800 
     54 N           5.3029  -19.4782  -42.6964 N.am      4 UNK        -0.5000 
     55 C           6.2300  -20.3641  -43.0793 C.2       3 UNK         0.5000 
     56 O           7.3645  -20.4073  -42.6008 O.2       3 UNK        -0.5000 
     57 CA          5.8372  -21.3872  -44.1670 C.3       3 UNK         0.1400 
     58 CB          5.6025  -22.7697  -43.5375 C.3       3 UNK        -0.1800 
     59 N           4.6473  -21.0192  -44.9396 N.am      3 UNK        -0.5000 
     60 C           4.5975  -20.0384  -45.8499 C.2       2 UNK         0.5000 
     61 O           5.5661  -19.3358  -46.1469 O.2       2 UNK        -0.5000 
     62 CA          3.2357  -19.8073  -46.5266 C.3       2 UNK         0.1400 
     63 CB          2.1228  -19.5947  -45.4817 C.3       2 UNK        -0.1800 
     64 N           3.3326  -18.6634  -47.4299 N.am      2 UNK        -0.5000 
     65 C           2.4336  -18.2987  -48.3507 C.2       1 UNK         0.5000 
     66 O           1.3596  -18.8756  -48.5159 O.2       1 UNK        -0.5000 
     67 C          -2.7377  -20.4033  -47.2290 C.2       11 UNK         0.5000 
     68 O          -1.9578  -21.1270  -47.8478 O.2       11 UNK        -0.5000 
     69 N          -3.9743  -20.7861  -46.8836 N.am      12 UNK        -0.5000 
     70 CA         -4.6885  -21.9996  -47.2950 C.3       12 UNK         0.1400 
     71 CB         -6.0220  -22.0686  -46.5370 C.3       12 UNK        -0.1800 
     72 C          -3.9199  -23.3251  -47.1360 C.2       12 UNK         0.5000 
     73 O          -4.1115  -24.2291  -47.9494 O.2       12 UNK        -0.5000 
     74 N          -3.0515  -23.4092  -46.1198 N.am      13 UNK        -0.5000 
     75 CA         -2.1780  -24.5554  -45.8600 C.3       13 UNK         0.1400 
     76 CB         -1.4911  -24.3600  -44.4996 C.3       13 UNK        -0.1800 
     77 C          -1.1263  -24.7930  -46.9634 C.2       13 UNK         0.5000 
     78 O          -0.7700  -25.9439  -47.2180 O.2       13 UNK        -0.5000 
     79 N          -0.6588  -23.7099  -47.5972 N.am      14 UNK        -0.5000 
     80 CA          0.2909  -23.7357  -48.7098 C.3       14 UNK         0.1400 
     81 CB          1.3178  -22.6115  -48.5110 C.3       14 UNK        -0.1800 
     82 C          -0.4274  -23.5776  -50.0607 C.2       14 UNK         0.5000 
     83 O          -0.0084  -24.1814  -51.0477 O.2       14 UNK        -0.5000 
     84 N          -1.5116  -22.7918  -50.0771 N.am      15 UNK        -0.5000 
     85 CA         -2.3241  -22.4613  -51.2483 C.3       15 UNK         0.1400 
     86 CB         -2.9827  -21.0925  -51.0106 C.3       15 UNK        -0.1800 
     87 C          -3.3639  -23.5391  -51.6275 C.2       15 UNK         0.5000 
     88 O          -4.2959  -23.2306  -52.3716 O.2       15 UNK        -0.5000 
     89 N          -3.1995  -24.7699  -51.1203 N.am      16 UNK        -0.5000 
     90 CA         -3.9739  -25.9771  -51.4334 C.3       16 UNK         0.1400 
     91 CB         -3.7174  -26.4093  -52.8929 C.3       16 UNK        -0.1800 
     92 C          -5.4732  -25.8215  -51.1138 C.2       16 UNK         0.5000 
     93 O          -6.3126  -25.9004  -52.0110 O.2       16 UNK        -0.5000 
     94 N          -5.7735  -25.5389  -49.8381 N.am      17 UNK        -0.5000 
     95 CA         -7.1037  -25.2239  -49.2963 C.3       17 UNK         0.1400 
     96 CB         -8.0697  -26.4191  -49.4357 C.3       17 UNK        -0.1800 
     97 C          -7.6736  -23.9097  -49.8727 C.2       17 UNK         0.5000 
     98 O          -8.8890  -23.7553  -49.9970 O.2       17 UNK        -0.5000 
     99 N          -6.7560  -22.9963  -50.2188 N.am      18 UNK        -0.5000 
    100 CA        -6.9602  -21.6925  -50.8514 C.3       18 UNK         0.1400 
    101 CB        -7.8060  -20.7567  -49.9641 C.3       18 UNK        -0.1800 
    102 C         -7.4636  -21.7643  -52.3089 C.2       18 UNK         0.5000 
    103 O         -7.9515  -20.7609  -52.8306 O.2       18 UNK        -0.5000 
    104 N         -7.2991  -22.9203  -52.9682 N.am      19 UNK        -0.5000 
    105 CA        -7.6042  -23.1076  -54.3883 C.3       19 UNK         0.1400 
    106 CB        -7.6366  -24.6091  -54.7073 C.3       19 UNK        -0.1800 
    107 C         -6.6033  -22.3871  -55.3130 C.2       19 UNK         0.5000 
    108 O         -6.9789  -21.9904  -56.4166 O.2       19 UNK        -0.5000 
    109 N         -5.3593  -22.2240  -54.8452 N.am      20 UNK        -0.5000 
    110 CA        -4.2546  -21.5836  -55.5578 C.3       20 UNK         0.1400 
    111 CB        -3.1034  -22.5981  -55.6839 C.3       20 UNK        -0.1800 
    112 C         -3.8090  -20.2892  -54.8491 C.2       20 UNK         0.5000 
    113 O         -2.6401  -19.9108  -54.9445 O.2       20 UNK        -0.5000 
    114 N         -4.7321  -19.6238  -54.1389 N.am      21 UNK        -0.5000 
    115 CA        -4.4822  -18.4321  -53.3208 C.3       21 UNK         0.1400 
    116 CB        -5.5799  -18.3099  -52.2494 C.3       21 UNK        -0.1800 
    117 C         -4.3037  -17.1307  -54.1340 C.2       21 UNK         0.5000 
    118 O         -4.9618  -16.1303  -53.8452 O.2       21 UNK        -0.5000 
    119 N         -3.3979  -17.1568  -55.1200 N.am      22 UNK        -0.5000 
    120 CA        -2.9472  -16.0030  -55.9220 C.3       22 UNK         0.1400 
    121 C         -4.0451  -15.3421  -56.8171 C.2       22 UNK         0.5000 
    122 N         -5.1709  -15.9961  -57.0762 N.am      22 UNK        -0.7600 
    123 O         -3.8621  -14.2395  -57.3264 O.2       22 UNK        -0.5000 
    124 C124       -2.1413  -14.9801  -55.0602 C.3       23 UNK        -0.0398 
    125 S125       -0.3858  -15.4503  -54.8819 S.3       23 UNK        -0.2404 
    126 C126       -0.3921  -16.6000  -53.4692 C.3       23 UNK        -0.0205 
    127 H127        7.1362  -16.4182  -50.2712 H         1 UNK         0.0600 
    128 H128        6.2431  -17.5806  -51.2557 H         1 UNK         0.0600 
    129 H129        7.1503  -18.1329  -49.8446 H         1 UNK         0.0600 
    130 H130        4.0749  -17.5181  -50.8762 H         1 UNK         0.3000 
    131 H131        2.0808  -17.1472  -50.0936 H         1 UNK         0.0600 
    132 H132        3.2262  -15.6554  -47.6859 H         1 UNK         0.0800 
    133 H133        1.5480  -15.7101  -48.1486 H         1 UNK         0.0800 
    134 H134        1.2337  -12.6668  -50.3295 H         1 UNK         0.0800 
    135 H135        0.8916  -13.2477  -48.7185 H         1 UNK         0.0800 
    136 H136        1.2300  -14.8601  -52.1332 H         1 UNK         0.1150 
    137 H137       -2.5647  -16.8237  -51.8299 H         1 UNK         0.1150 
    138 H138       -1.1845  -14.3583  -48.6223 H         1 UNK         0.1150 
    139 H139       -3.3083  -15.3941  -48.4230 H         1 UNK         0.0800 
    140 H140       -4.1468  -15.5716  -49.9471 H         1 UNK         0.0800 
    141 H141       -1.6147  -17.1125  -47.6570 H         1 UNK         0.0800 
    142 H142       -1.2670  -18.4746  -48.6695 H         1 UNK         0.0800 
    143 H143       -1.2611  -19.1817  -46.3975 H         1 UNK         0.0600 
    144 H144       -2.3364  -18.2071  -44.8735 H         1 UNK         0.3000 
    145 H145       -5.5422  -16.8428  -44.2809 H         1 UNK         0.0600 
    146 H146       -5.0754  -17.9550  -42.1104 H         1 UNK         0.0600 
    147 H147       -5.5463  -19.1368  -43.3223 H         1 UNK         0.0600 
    148 H148       -3.8540  -18.9761  -42.8662 H         1 UNK         0.0600 
    149 H149       -2.6881  -16.8256  -43.3947 H         1 UNK         0.3000 
    150 H150       -2.3195  -13.3938  -44.1334 H         1 UNK         0.0600 
    151 H151       -3.4027  -13.2155  -41.8901 H         1 UNK         0.0600 
    152 H152       -1.6516  -13.1767  -41.7466 H         1 UNK         0.0600 
    153 H153       -2.5374  -14.6464  -41.3412 H         1 UNK         0.0600 
    154 H154       -0.6482  -15.2978  -42.7905 H         1 UNK         0.3000 
    155 H155        0.5294  -17.0468  -45.5690 H         1 UNK         0.0600 
    156 H156        2.1137  -14.8388  -44.1633 H         1 UNK         0.0600 
    157 H157        1.8320  -14.9033  -45.8877 H         1 UNK         0.0600 
    158 H158        2.7822  -16.1672  -45.1129 H         1 UNK         0.0600 
    159 H159        1.6703  -16.9999  -43.0318 H         1 UNK         0.3000 
    160 H160       -0.6635  -18.9792  -41.2117 H         1 UNK         0.0600 
    161 H161        1.3100  -20.4564  -41.0173 H         1 UNK         0.0600 
    162 H162        2.0736  -19.6815  -42.4012 H         1 UNK         0.0600 
    163 H163        0.5959  -20.6115  -42.6144 H         1 UNK         0.0600 
    164 H164        1.9869  -17.8347  -40.7820 H         1 UNK         0.3000 
    165 H165        0.8215  -14.9326  -39.0988 H         1 UNK         0.0600 
    166 H166        2.2113  -15.8416  -37.2540 H         1 UNK         0.0600 
    167 H167        0.6774  -16.6934  -37.3326 H         1 UNK         0.0600 
    168 H168        2.1348  -17.4587  -37.9546 H         1 UNK         0.0600 
    169 H169        3.4215  -16.0837  -39.5519 H         1 UNK         0.3000 
    170 H170        4.0025  -14.6725  -42.7434 H         1 UNK         0.0600 
    171 H171        4.4052  -12.7158  -41.2427 H         1 UNK         0.0600 
    172 H172        5.1353  -13.7742  -40.0414 H         1 UNK         0.0600 
    173 H173        5.9010  -13.5564  -41.6158 H         1 UNK         0.0600 
    174 H174        5.7636  -15.9950  -40.9789 H         1 UNK         0.3000 
    175 H175        6.5197  -18.0722  -41.7303 H         1 UNK         0.0600 
    176 H176        4.1744  -19.3889  -40.2236 H         1 UNK         0.0600 
    177 H177        5.8714  -19.8309  -40.0530 H         1 UNK         0.0600 
    178 H178        5.3207  -18.2519  -39.5209 H         1 UNK         0.0600 
    179 H179        4.4102  -19.4501  -43.1699 H         1 UNK         0.3000 
    180 H180        6.6804  -21.4665  -44.8564 H         1 UNK         0.0600 
    181 H181        4.7608  -22.7580  -42.8438 H         1 UNK         0.0600 
    182 H182        6.4806  -23.1016  -42.9818 H         1 UNK         0.0600 
    183 H183        5.4005  -23.5223  -44.3000 H         1 UNK         0.0600 
    184 H184        3.8139  -21.5575  -44.7530 H         1 UNK         0.3000 
    185 H185        3.0104  -20.6913  -47.1237 H         1 UNK         0.0600 
    186 H186        1.9714  -20.4853  -44.8721 H         1 UNK         0.0600 
    187 H187        2.3786  -18.7752  -44.8126 H         1 UNK         0.0600 
    188 H188        1.1622  -19.3704  -45.9425 H         1 UNK         0.0600 
    189 H189        4.2198  -18.1647  -47.3854 H         1 UNK         0.3000 
    190 H190       -4.5450  -20.0671  -46.4492 H         1 UNK         0.3000 
    191 H191       -4.9117  -21.8848  -48.3554 H         1 UNK         0.0600 
    192 H192       -6.6177  -22.9217  -46.8634 H         1 UNK         0.0600 
    193 H193       -6.6202  -21.1730  -46.7050 H         1 UNK         0.0600 
    194 H194       -5.8664  -22.1670  -45.4620 H         1 UNK         0.0600 
    195 H195       -2.9566  -22.6139  -45.5059 H         1 UNK         0.3000 
    196 H196       -2.8040  -25.4484  -45.8035 H         1 UNK         0.0600 
    197 H197       -0.8484  -25.2085  -44.2610 H         1 UNK         0.0600 
    198 H198       -2.2233  -24.2730  -43.6965 H         1 UNK         0.0600 
    199 H199       -0.8697  -23.4635  -44.4871 H         1 UNK         0.0600 
    200 H200       -1.0506  -22.8029  -47.3660 H         1 UNK         0.3000 
    201 H201        0.8304  -24.6850  -48.7274 H         1 UNK         0.0600 
    202 H202        1.8761  -22.7573  -47.5866 H         1 UNK         0.0600 
    203 H203        0.8404  -21.6315  -48.4648 H         1 UNK         0.0600 
    204 H204        2.0395  -22.5884  -49.3284 H         1 UNK         0.0600 
    205 H205       -1.7513  -22.2955  -49.2223 H         1 UNK         0.3000 
    206 H206       -1.6618  -22.3604  -52.1105 H         1 UNK         0.0600 
    207 H207       -2.2341  -20.3173  -50.8448 H         1 UNK         0.0600 
    208 H208       -3.5760  -20.7879  -51.8697 H         1 UNK         0.0600 
    209 H209       -3.6432  -21.1055  -50.1457 H         1 UNK         0.0600 
    210 H210       -2.4215  -24.9025  -50.4906 H         1 UNK         0.3000 
    211 H211       -3.5975  -26.7686  -50.7837 H         1 UNK         0.0600 
    212 H212       -2.6538  -26.5602  -53.0772 H         1 UNK         0.0600 
    213 H213       -4.0782  -25.6684  -53.6075 H         1 UNK         0.0600 
    214 H214       -4.2225  -27.3499  -53.1155 H         1 UNK         0.0600 
    215 H215       -5.0068  -25.3976  -49.1842 H         1 UNK         0.3000 
    216 H216       -6.9584  -25.0463  -48.2300 H         1 UNK         0.0600 
    217 H217       -8.9942  -26.2380  -48.8865 H         1 UNK         0.0600 
    218 H218       -7.6286  -27.3315  -49.0345 H         1 UNK         0.0600 
    219 H219       -8.3419  -26.6056  -50.4748 H         1 UNK         0.0600 
    220 H220       -5.7912  -23.2775  -50.1191 H         1 UNK         0.3000 
    221 H221       -5.9630  -21.2612  -50.9153 H         1 UNK         0.0600 
    222 H222       -8.8404  -21.0923  -49.8893 H         1 UNK         0.0600 
    223 H223       -7.3979  -20.6931  -48.9562 H         1 UNK         0.0600 
    224 H224       -7.8223  -19.7432  -50.3664 H         1 UNK         0.0600 
    225 H225       -6.8628  -23.7007  -52.4926 H         1 UNK         0.3000 
    226 H226       -8.5969  -22.6965  -54.5832 H         1 UNK         0.0600 
    227 H227       -7.9370  -24.7820  -55.7414 H         1 UNK         0.0600 
    228 H228       -6.6573  -25.0693  -54.5695 H         1 UNK         0.0600 
    229 H229       -8.3469  -25.1346  -54.0686 H         1 UNK         0.0600 
    230 H230       -5.1331  -22.5860  -53.9203 H         1 UNK         0.3000 
    231 H231       -4.5621  -21.2965  -56.5649 H         1 UNK         0.0600 
    232 H232       -3.4365  -23.5112  -56.1776 H         1 UNK         0.0600 
    233 H233       -2.7023  -22.8740  -54.7081 H         1 UNK         0.0600 
    234 H234       -2.2821  -22.1926  -56.2759 H         1 UNK         0.0600 
    235 H235       -5.6777  -19.9798  -54.1363 H         1 UNK         0.3000 
    236 H236       -3.5405  -18.5884  -52.7929 H         1 UNK         0.0600 
    237 H237       -5.5655  -19.1634  -51.5768 H         1 UNK         0.0600 
    238 H238       -5.4325  -17.4257  -51.6279 H         1 UNK         0.0600 
    239 H239       -6.5735  -18.2408  -52.6935 H         1 UNK         0.0600 
    240 H240       -2.9192  -18.0369  -55.2892 H         1 UNK         0.3000 
    241 H241       -2.2615  -16.4232  -56.6585 H         1 UNK         0.0600 
    242 H242       -5.3401  -16.9022  -56.6706 H         1 UNK         0.3800 
    243 H243       -5.8686  -15.5704  -57.6662 H         1 UNK         0.3800 
    244 H244       -2.1298  -13.9914  -55.5201 H         1 UNK         0.0800 
    245 H245       -2.5903  -14.8309  -54.0779 H         1 UNK         0.0800 
    246 H246        0.5803  -17.0925  -53.4262 H         1 UNK         0.0800 
    247 H247       -1.1167  -17.3957  -53.6434 H         1 UNK         0.0800 
@<TRIPOS>BOND
     1    1    2 1    
     2    1  127 1    
     3    1  128 1    
     4    1  129 1    
     5    2    3 2    
     6    2    4 am   BACKBONE|DICT|INTERRES
     7    4    5 1    
     8    4  130 1    
     9    5    6 1    
    10    5   65 1    
    11    5  131 1    
    12    6    7 1    
    13    6  132 1    
    14    6  133 1    
    15    7    8 1    
    16    8    9 1    
    17    8  134 1    
    18    8  135 1    
    19    9   10 ar   
    20    9   14 ar   
    21   10   11 ar   
    22   10  136 1    
    23   11   12 ar   
    24   11  126 1    
    25   12   13 ar   
    26   12  137 1    
    27   13   14 ar   
    28   13   15 1    
    29   14  138 1    
    30   15   16 1    
    31   15  139 1    
    32   15  140 1    
    33   16   17 1    
    34   17   18 1    
    35   17  141 1    
    36   17  142 1    
    37   18   19 1    
    38   18   67 1    
    39   18  143 1    
    40   19   20 am   BACKBONE|DICT|INTERRES
    41   19  144 1    
    42   20   21 2    
    43   20   22 1    
    44   22   23 1    
    45   22   24 1    
    46   22  145 1    
    47   23  146 1    
    48   23  147 1    
    49   23  148 1    
    50   24   25 am   BACKBONE|DICT|INTERRES
    51   24  149 1    
    52   25   26 2    
    53   25   27 1    
    54   27   28 1    
    55   27   29 1    
    56   27  150 1    
    57   28  151 1    
    58   28  152 1    
    59   28  153 1    
    60   29   30 am   BACKBONE|DICT|INTERRES
    61   29  154 1    
    62   30   31 2    
    63   30   32 1    
    64   32   33 1    
    65   32   34 1    
    66   32  155 1    
    67   33  156 1    
    68   33  157 1    
    69   33  158 1    
    70   34   35 am   BACKBONE|DICT|INTERRES
    71   34  159 1    
    72   35   36 2    
    73   35   37 1    
    74   37   38 1    
    75   37   39 1    
    76   37  160 1    
    77   38  161 1    
    78   38  162 1    
    79   38  163 1    
    80   39   40 am   BACKBONE|DICT|INTERRES
    81   39  164 1    
    82   40   41 2    
    83   40   42 1    
    84   42   43 1    
    85   42   44 1    
    86   42  165 1    
    87   43  166 1    
    88   43  167 1    
    89   43  168 1    
    90   44   45 am   BACKBONE|DICT|INTERRES
    91   44  169 1    
    92   45   46 2    
    93   45   47 1    
    94   47   48 1    
    95   47   49 1    
    96   47  170 1    
    97   48  171 1    
    98   48  172 1    
    99   48  173 1    
   100   49   50 am   BACKBONE|DICT|INTERRES
   101   49  174 1    
   102   50   51 2    
   103   50   52 1    
   104   52   53 1    
   105   52   54 1    
   106   52  175 1    
   107   53  176 1    
   108   53  177 1    
   109   53  178 1    
   110   54   55 am   BACKBONE|DICT|INTERRES
   111   54  179 1    
   112   55   56 2    
   113   55   57 1    
   114   57   58 1    
   115   57   59 1    
   116   57  180 1    
   117   58  181 1    
   118   58  182 1    
   119   58  183 1    
   120   59   60 am   BACKBONE|DICT|INTERRES
   121   59  184 1    
   122   60   61 2    
   123   60   62 1    
   124   62   63 1    
   125   62   64 1    
   126   62  185 1    
   127   63  186 1    
   128   63  187 1    
   129   63  188 1    
   130   64   65 am   BACKBONE|DICT|INTERRES
   131   64  189 1    
   132   65   66 2    
   133   67   68 2    
   134   67   69 am   BACKBONE|DICT|INTERRES
   135   69   70 1    
   136   69  190 1    
   137   70   71 1    
   138   70   72 1    
   139   70  191 1    
   140   71  192 1    
   141   71  193 1    
   142   71  194 1    
   143   72   73 2    
   144   72   74 am   BACKBONE|DICT|INTERRES
   145   74   75 1    
   146   74  195 1    
   147   75   76 1    
   148   75   77 1    
   149   75  196 1    
   150   76  197 1    
   151   76  198 1    
   152   76  199 1    
   153   77   78 2    
   154   77   79 am   BACKBONE|DICT|INTERRES
   155   79   80 1    
   156   79  200 1    
   157   80   81 1    
   158   80   82 1    
   159   80  201 1    
   160   81  202 1    
   161   81  203 1    
   162   81  204 1    
   163   82   83 2    
   164   82   84 am   BACKBONE|DICT|INTERRES
   165   84   85 1    
   166   84  205 1    
   167   85   86 1    
   168   85   87 1    
   169   85  206 1    
   170   86  207 1    
   171   86  208 1    
   172   86  209 1    
   173   87   88 2    
   174   87   89 am   BACKBONE|DICT|INTERRES
   175   89   90 1    
   176   89  210 1    
   177   90   91 1    
   178   90   92 1    
   179   90  211 1    
   180   91  212 1    
   181   91  213 1    
   182   91  214 1    
   183   92   93 2    
   184   92   94 am   BACKBONE|DICT|INTERRES
   185   94   95 1    
   186   94  215 1    
   187   95   96 1    
   188   95   97 1    
   189   95  216 1    
   190   96  217 1    
   191   96  218 1    
   192   96  219 1    
   193   97   98 2    
   194   97   99 am   BACKBONE|DICT|INTERRES
   195   99  100 1    
   196   99  220 1    
   197  100  101 1    
   198  100  102 1    
   199  100  221 1    
   200  101  222 1    
   201  101  223 1    
   202  101  224 1    
   203  102  103 2    
   204  102  104 am   BACKBONE|DICT|INTERRES
   205  104  105 1    
   206  104  225 1    
   207  105  106 1    
   208  105  107 1    
   209  105  226 1    
   210  106  227 1    
   211  106  228 1    
   212  106  229 1    
   213  107  108 2    
   214  107  109 am   BACKBONE|DICT|INTERRES
   215  109  110 1    
   216  109  230 1    
   217  110  111 1    
   218  110  112 1    
   219  110  231 1    
   220  111  232 1    
   221  111  233 1    
   222  111  234 1    
   223  112  113 2    
   224  112  114 am   BACKBONE|DICT|INTERRES
   225  114  115 1    
   226  114  235 1    
   227  115  116 1    
   228  115  117 1    
   229  115  236 1    
   230  116  237 1    
   231  116  238 1    
   232  116  239 1    
   233  117  118 2    
   234  117  119 am   BACKBONE|DICT|INTERRES
   235  119  120 1    
   236  119  240 1    
   237  120  121 1    
   238  120  124 1    
   239  120  241 1    
   240  121  122 am   BACKBONE|DICT|INTERRES
   241  121  123 2    
   242  122  242 1    
   243  122  243 1    
   244  124  125 1    
   245  124  244 1    
   246  124  245 1    
   247  125  126 1    
   248  126  246 1    
   249  126  247 1    
@<TRIPOS>SUBSTRUCTURE
     1 UNK         1 GROUP             0       ****    0 ROOT    
