@<TRIPOS>MOLECULE
3R540
247   249    1
SMALL
USER_CHARGES


@<TRIPOS>ATOM
      1 CA         -2.3456  -19.5824  -50.0760 C.3       0 UNK        -0.1800 
      2 C          -1.3791  -18.4195  -50.0374 C.2       0 UNK         0.5000 
      3 O          -0.3656  -18.4450  -50.7336 O.2       0 UNK        -0.5000 
      4 N          -1.7077  -17.4090  -49.2342 N.am      1 UNK        -0.5000 
      5 CA         -0.9579  -16.1749  -49.0685 C.3       1 UNK         0.1400 
      6 C6          0.1221  -16.3458  -47.9771 C.3       23 UNK        -0.0398 
      7 S7          1.3271  -14.9846  -47.8225 S.3       23 UNK        -0.2404 
      8 C8          2.0801  -14.8433  -49.4813 C.3       23 UNK        -0.0205 
      9 C9          2.5052  -16.1617  -50.1238 C.ar      23 UNK        -0.0193 
     10 C10         2.3284  -16.3310  -51.4990 C.ar      23 UNK        -0.1150 
     11 C11         2.7029  -17.5177  -52.1334 C.ar      23 UNK        -0.0193 
     12 C12         3.2419  -18.5576  -51.3652 C.ar      23 UNK        -0.1150 
     13 C13         3.4307  -18.4061  -49.9866 C.ar      23 UNK        -0.0193 
     14 C14         3.0837  -17.1958  -49.3795 C.ar      23 UNK        -0.1150 
     15 C15         4.0407  -19.5267  -49.1499 C.3       23 UNK        -0.0205 
     16 S16         3.2669  -21.1556  -49.4242 S.3       23 UNK        -0.2404 
     17 C17         1.5696  -20.9166  -48.7970 C.3       23 UNK        -0.0398 
     18 CA          0.9788  -22.2587  -48.3000 C.3       11 UNK         0.1400 
     19 N           1.6227  -22.7364  -47.0743 N.am      11 UNK        -0.5000 
     20 C           1.5335  -23.9907  -46.6119 C.2       10 UNK         0.5000 
     21 O           0.9199  -24.8909  -47.1848 O.2       10 UNK        -0.5000 
     22 CA          2.2058  -24.2696  -45.2558 C.3       10 UNK         0.1400 
     23 CB          3.7217  -24.4507  -45.4254 C.3       10 UNK        -0.1800 
     24 N           1.9466  -23.2125  -44.2766 N.am      10 UNK        -0.5000 
     25 C           0.7355  -22.9287  -43.7770 C.2       9 UNK         0.5000 
     26 O          -0.2844  -23.5511  -44.0674 O.2       9 UNK        -0.5000 
     27 CA          0.6358  -21.7288  -42.8204 C.3       9 UNK         0.1400 
     28 CB          0.8701  -22.1693  -41.3684 C.3       9 UNK        -0.1800 
     29 N           1.5487  -20.6324  -43.1410 N.am      9 UNK        -0.5000 
     30 C           1.5607  -19.9263  -44.2785 C.2       8 UNK         0.5000 
     31 O           0.8747  -20.2071  -45.2649 O.2       8 UNK        -0.5000 
     32 CA          2.4934  -18.6967  -44.2971 C.3       8 UNK         0.1400 
     33 CB          2.3264  -17.8530  -45.5699 C.3       8 UNK        -0.1800 
     34 N           2.2731  -17.8286  -43.1392 N.am      8 UNK        -0.5000 
     35 C           2.7543  -18.0194  -41.9039 C.2       7 UNK         0.5000 
     36 O           3.4634  -18.9763  -41.5905 O.2       7 UNK        -0.5000 
     37 CA          2.3241  -17.0026  -40.8358 C.3       7 UNK         0.1400 
     38 CB          3.0534  -15.6628  -41.0257 C.3       7 UNK        -0.1800 
     39 N           0.8797  -16.7855  -40.8962 N.am      7 UNK        -0.5000 
     40 C          -0.0247  -17.4678  -40.1798 C.2       6 UNK         0.5000 
     41 O           0.2692  -18.3053  -39.3262 O.2       6 UNK        -0.5000 
     42 CA         -1.5123  -17.1704  -40.4627 C.3       6 UNK         0.1400 
     43 CB         -2.0261  -16.0629  -39.5303 C.3       6 UNK        -0.1800 
     44 N          -1.7678  -16.7807  -41.8503 N.am      6 UNK        -0.5000 
     45 C          -1.6458  -17.6014  -42.9030 C.2       5 UNK         0.5000 
     46 O          -1.4014  -18.8019  -42.7999 O.2       5 UNK        -0.5000 
     47 CA         -1.7969  -16.9783  -44.3070 C.3       5 UNK         0.1400 
     48 CB         -3.2238  -17.1988  -44.8338 C.3       5 UNK        -0.1800 
     49 N          -1.4921  -15.5441  -44.3819 N.am      5 UNK        -0.5000 
     50 C          -0.3574  -14.9418  -43.9979 C.2       4 UNK         0.5000 
     51 O           0.6121  -15.5605  -43.5588 O.2       4 UNK        -0.5000 
     52 CA         -0.3058  -13.3996  -44.0591 C.3       4 UNK         0.1400 
     53 CB          1.0367  -12.8842  -44.6016 C.3       4 UNK        -0.1800 
     54 N          -1.3939  -12.7934  -44.8297 N.am      4 UNK        -0.5000 
     55 C          -2.6431  -12.5802  -44.4030 C.2       3 UNK         0.5000 
     56 O          -3.0412  -12.9252  -43.2905 O.2       3 UNK        -0.5000 
     57 CA         -3.6255  -11.9003  -45.3802 C.3       3 UNK         0.1400 
     58 CB         -3.5281  -10.3663  -45.2789 C.3       3 UNK        -0.1800 
     59 N          -3.5345  -12.3496  -46.7790 N.am      3 UNK        -0.5000 
     60 C          -2.5336  -12.1933  -47.6566 C.2       2 UNK         0.5000 
     61 O          -1.4589  -11.6497  -47.3941 O.2       2 UNK        -0.5000 
     62 CA         -2.7598  -12.7762  -49.0622 C.3       2 UNK         0.1400 
     63 CB         -2.5320  -11.7147  -50.1502 C.3       2 UNK        -0.1800 
     64 N          -1.8661  -13.9063  -49.3004 N.am      2 UNK        -0.5000 
     65 C          -1.9926  -15.0991  -48.7090 C.2       1 UNK         0.5000 
     66 O          -2.8911  -15.3763  -47.9102 O.2       1 UNK        -0.5000 
     67 C          -0.5492  -22.1914  -48.1227 C.2       11 UNK         0.5000 
     68 O          -1.2793  -22.6440  -49.0053 O.2       11 UNK        -0.5000 
     69 N          -1.0068  -21.6945  -46.9641 N.am      12 UNK        -0.5000 
     70 CA         -2.4200  -21.6504  -46.5837 C.3       12 UNK         0.1400 
     71 CB         -2.5657  -20.9358  -45.2362 C.3       12 UNK        -0.1800 
     72 C          -3.0789  -23.0404  -46.5431 C.2       12 UNK         0.5000 
     73 O          -4.1907  -23.1928  -47.0458 O.2       12 UNK        -0.5000 
     74 N          -2.3700  -24.0345  -45.9910 N.am      13 UNK        -0.5000 
     75 CA         -2.7908  -25.4347  -45.9630 C.3       13 UNK         0.1400 
     76 CB         -1.8761  -26.2288  -45.0184 C.3       13 UNK        -0.1800 
     77 C          -2.8180  -26.0817  -47.3596 C.2       13 UNK         0.5000 
     78 O          -3.7333  -26.8544  -47.6438 O.2       13 UNK        -0.5000 
     79 N          -1.8303  -25.7518  -48.2051 N.am      14 UNK        -0.5000 
     80 CA         -1.7138  -26.2489  -49.5774 C.3       14 UNK         0.1400 
     81 CB         -0.3347  -25.8854  -50.1499 C.3       14 UNK        -0.1800 
     82 C          -2.8387  -25.7377  -50.4949 C.2       14 UNK         0.5000 
     83 O          -3.4190  -26.5282  -51.2404 O.2       14 UNK        -0.5000 
     84 N          -3.1362  -24.4338  -50.4148 N.am      15 UNK        -0.5000 
     85 CA         -4.2180  -23.7963  -51.1693 C.3       15 UNK         0.1400 
     86 CB         -3.9530  -22.2884  -51.2384 C.3       15 UNK        -0.1800 
     87 C          -5.6125  -24.0598  -50.5695 C.2       15 UNK         0.5000 
     88 O          -6.6027  -23.9871  -51.2975 O.2       15 UNK        -0.5000 
     89 N          -5.6601  -24.3347  -49.2577 N.am      16 UNK        -0.5000 
     90 CA         -6.8461  -24.5160  -48.4125 C.3       16 UNK         0.1400 
     91 CB         -7.6867  -25.7239  -48.8761 C.3       16 UNK        -0.1800 
     92 C          -7.6790  -23.2250  -48.2420 C.2       16 UNK         0.5000 
     93 O          -8.8703  -23.2996  -47.9351 O.2       16 UNK        -0.5000 
     94 N          -7.0374  -22.0653  -48.4264 N.am      17 UNK        -0.5000 
     95 CA         -7.6038  -20.7229  -48.3484 C.3       17 UNK         0.1400 
     96 CB         -8.5680  -20.4769  -49.5263 C.3       17 UNK        -0.1800 
     97 C          -6.4511  -19.7113  -48.3966 C.2       17 UNK         0.5000 
     98 O          -5.3636  -20.0461  -48.8717 O.2       17 UNK        -0.5000 
     99 N          -6.7144  -18.4707  -47.9692 N.am      18 UNK        -0.5000 
    100 CA        -5.7902  -17.3333  -48.0481 C.3       18 UNK         0.1400 
    101 CB        -6.1693  -16.3121  -46.9600 C.3       18 UNK        -0.1800 
    102 C         -5.7640  -16.7174  -49.4670 C.2       18 UNK         0.5000 
    103 O         -6.0234  -15.5245  -49.6355 O.2       18 UNK        -0.5000 
    104 N         -5.4979  -17.5679  -50.4646 N.am      19 UNK        -0.5000 
    105 CA        -5.4576  -17.2432  -51.8876 C.3       19 UNK         0.1400 
    106 CB        -6.1795  -18.3698  -52.6563 C.3       19 UNK        -0.1800 
    107 C         -3.9950  -17.0201  -52.3206 C.2       19 UNK         0.5000 
    108 O         -3.3457  -16.1100  -51.8042 O.2       19 UNK        -0.5000 
    109 N         -3.4909  -17.8562  -53.2352 N.am      20 UNK        -0.5000 
    110 CA        -2.1031  -17.8878  -53.6780 C.3       20 UNK         0.1400 
    111 CB        -1.9057  -16.9507  -54.8823 C.3       20 UNK        -0.1800 
    112 C         -1.7583  -19.3415  -54.0248 C.2       20 UNK         0.5000 
    113 O         -2.2957  -19.8711  -54.9991 O.2       20 UNK        -0.5000 
    114 N         -0.8763  -19.9667  -53.2333 N.am      21 UNK        -0.5000 
    115 CA        -0.3939  -21.3388  -53.4561 C.3       21 UNK         0.1400 
    116 CB         0.3514  -21.8211  -52.2030 C.3       21 UNK        -0.1800 
    117 C          0.5186  -21.4770  -54.6924 C.2       21 UNK         0.5000 
    118 O          0.6952  -22.5815  -55.2068 O.2       21 UNK        -0.5000 
    119 N          1.0852  -20.3489  -55.1293 N.am      22 UNK        -0.5000 
    120 CA         2.0244  -20.2104  -56.2501 C.3       22 UNK         0.1400 
    121 C          1.3745  -20.3358  -57.6602 C.2       22 UNK         0.5000 
    122 N          0.0529  -20.3722  -57.7882 N.am      22 UNK        -0.7600 
    123 O          2.0855  -20.4053  -58.6589 O.2       22 UNK        -0.5000 
    124 C124        2.8365  -18.8919  -56.1337 C.3       23 UNK        -0.0398 
    125 S125        3.6684  -18.6997  -54.5163 S.3       23 UNK        -0.2404 
    126 C126        2.4556  -17.6558  -53.6333 C.3       23 UNK        -0.0205 
    127 H127       -2.8355  -19.7088  -49.1140 H         1 UNK         0.0600 
    128 H128       -1.8138  -20.4997  -50.3097 H         1 UNK         0.0600 
    129 H129       -3.1068  -19.4289  -50.8382 H         1 UNK         0.0600 
    130 H130       -2.5777  -17.4180  -48.7197 H         1 UNK         0.3000 
    131 H131       -0.4953  -15.9169  -50.0229 H         1 UNK         0.0600 
    132 H132        0.6781  -17.2665  -48.1526 H         1 UNK         0.0800 
    133 H133       -0.3519  -16.4811  -47.0046 H         1 UNK         0.0800 
    134 H134        2.9579  -14.2006  -49.4054 H         1 UNK         0.0800 
    135 H135        1.3767  -14.3169  -50.1276 H         1 UNK         0.0800 
    136 H136        1.8897  -15.5332  -52.0817 H         1 UNK         0.1150 
    137 H137        3.5131  -19.4917  -51.8351 H         1 UNK         0.1150 
    138 H138        3.2478  -17.0617  -48.3204 H         1 UNK         0.1150 
    139 H139        5.0993  -19.6017  -49.4009 H         1 UNK         0.0800 
    140 H140        3.9970  -19.2915  -48.0862 H         1 UNK         0.0800 
    141 H141        0.9749  -20.5022  -49.6114 H         1 UNK         0.0800 
    142 H142        1.5636  -20.1690  -48.0026 H         1 UNK         0.0800 
    143 H143        1.1596  -23.0040  -49.0782 H         1 UNK         0.0600 
    144 H144        2.1018  -22.0445  -46.5175 H         1 UNK         0.3000 
    145 H145        1.7921  -25.2018  -44.8651 H         1 UNK         0.0600 
    146 H146        4.1936  -24.7261  -44.4822 H         1 UNK         0.0600 
    147 H147        3.9413  -25.2439  -46.1414 H         1 UNK         0.0600 
    148 H148        4.2006  -23.5401  -45.7876 H         1 UNK         0.0600 
    149 H149        2.7318  -22.6496  -43.9848 H         1 UNK         0.3000 
    150 H150       -0.3794  -21.3365  -42.8924 H         1 UNK         0.0600 
    151 H151        0.1865  -22.9719  -41.0881 H         1 UNK         0.0600 
    152 H152        0.7022  -21.3438  -40.6759 H         1 UNK         0.0600 
    153 H153        1.8868  -22.5339  -41.2171 H         1 UNK         0.0600 
    154 H154        2.1609  -20.3179  -42.3964 H         1 UNK         0.3000 
    155 H155        3.5193  -19.0692  -44.2742 H         1 UNK         0.0600 
    156 H156        1.3279  -17.4223  -45.6239 H         1 UNK         0.0600 
    157 H157        2.4769  -18.4531  -46.4662 H         1 UNK         0.0600 
    158 H158        3.0443  -17.0333  -45.6003 H         1 UNK         0.0600 
    159 H159        1.6767  -17.0201  -43.3018 H         1 UNK         0.3000 
    160 H160        2.6020  -17.3992  -39.8569 H         1 UNK         0.0600 
    161 H161        2.8239  -15.2043  -41.9883 H         1 UNK         0.0600 
    162 H162        4.1345  -15.7981  -40.9766 H         1 UNK         0.0600 
    163 H163        2.7789  -14.9532  -40.2451 H         1 UNK         0.0600 
    164 H164        0.5543  -16.1646  -41.6277 H         1 UNK         0.3000 
    165 H165       -2.0773  -18.0818  -40.2553 H         1 UNK         0.0600 
    166 H166       -3.0943  -15.8946  -39.6685 H         1 UNK         0.0600 
    167 H167       -1.8732  -16.3313  -38.4841 H         1 UNK         0.0600 
    168 H168       -1.5110  -15.1176  -39.7056 H         1 UNK         0.0600 
    169 H169       -1.9940  -15.8116  -42.0196 H         1 UNK         0.3000 
    170 H170       -1.1001  -17.5049  -44.9613 H         1 UNK         0.0600 
    171 H171       -3.5462  -18.2318  -44.7067 H         1 UNK         0.0600 
    172 H172       -3.9459  -16.5705  -44.3111 H         1 UNK         0.0600 
    173 H173       -3.2885  -16.9718  -45.8963 H         1 UNK         0.0600 
    174 H174       -2.2341  -14.9513  -44.7232 H         1 UNK         0.3000 
    175 H175       -0.3887  -13.0569  -43.0259 H         1 UNK         0.0600 
    176 H176        1.1648  -13.1284  -45.6545 H         1 UNK         0.0600 
    177 H177        1.1063  -11.8007  -44.5040 H         1 UNK         0.0600 
    178 H178        1.8805  -13.3103  -44.0573 H         1 UNK         0.0600 
    179 H179       -1.1655  -12.4667  -45.7660 H         1 UNK         0.3000 
    180 H180       -4.6270  -12.1821  -45.0512 H         1 UNK         0.0600 
    181 H181       -2.5451   -9.9983  -45.5740 H         1 UNK         0.0600 
    182 H182       -3.7048  -10.0328  -44.2555 H         1 UNK         0.0600 
    183 H183       -4.2718   -9.8813  -45.9111 H         1 UNK         0.0600 
    184 H184       -4.3388  -12.8727  -47.0972 H         1 UNK         0.3000 
    185 H185       -3.7912  -13.1269  -49.1455 H         1 UNK         0.0600 
    186 H186       -2.7442  -12.1159  -51.1415 H         1 UNK         0.0600 
    187 H187       -3.1881  -10.8565  -49.9998 H         1 UNK         0.0600 
    188 H188       -1.5050  -11.3470  -50.1497 H         1 UNK         0.0600 
    189 H189       -1.0929  -13.7403  -49.9265 H         1 UNK         0.3000 
    190 H190       -0.3413  -21.3204  -46.2930 H         1 UNK         0.3000 
    191 H191       -2.9478  -21.0621  -47.3344 H         1 UNK         0.0600 
    192 H192       -3.6152  -20.7521  -45.0041 H         1 UNK         0.0600 
    193 H193       -2.0540  -19.9744  -45.2481 H         1 UNK         0.0600 
    194 H194       -2.1483  -21.5235  -44.4196 H         1 UNK         0.0600 
    195 H195       -1.4887  -23.8171  -45.5338 H         1 UNK         0.3000 
    196 H196       -3.8056  -25.4720  -45.5613 H         1 UNK         0.0600 
    197 H197       -2.1703  -27.2782  -44.9778 H         1 UNK         0.0600 
    198 H198       -1.9262  -25.8379  -44.0020 H         1 UNK         0.0600 
    199 H199       -0.8348  -26.1901  -45.3403 H         1 UNK         0.0600 
    200 H200       -1.0903  -25.1406  -47.8794 H         1 UNK         0.3000 
    201 H201       -1.7846  -27.3381  -49.5428 H         1 UNK         0.0600 
    202 H202        0.4672  -26.3111  -49.5467 H         1 UNK         0.0600 
    203 H203       -0.1846  -24.8068  -50.1932 H         1 UNK         0.0600 
    204 H204       -0.2190  -26.2722  -51.1631 H         1 UNK         0.0600 
    205 H205       -2.5783  -23.8372  -49.8084 H         1 UNK         0.3000 
    206 H206       -4.2158  -24.1870  -52.1891 H         1 UNK         0.0600 
    207 H207       -3.0066  -22.0773  -51.7355 H         1 UNK         0.0600 
    208 H208       -4.7369  -21.7716  -51.7934 H         1 UNK         0.0600 
    209 H209       -3.9168  -21.8559  -50.2387 H         1 UNK         0.0600 
    210 H210       -4.7881  -24.2996  -48.7430 H         1 UNK         0.3000 
    211 H211       -6.4636  -24.7533  -47.4189 H         1 UNK         0.0600 
    212 H212       -8.1838  -25.5334  -49.8273 H         1 UNK         0.0600 
    213 H213       -8.4615  -25.9629  -48.1470 H         1 UNK         0.0600 
    214 H214       -7.0666  -26.6130  -48.9916 H         1 UNK         0.0600 
    215 H215       -6.0437  -22.0797  -48.6254 H         1 UNK         0.3000 
    216 H216       -8.1319  -20.6128  -47.3994 H         1 UNK         0.0600 
    217 H217       -8.9612  -19.4598  -49.5102 H         1 UNK         0.0600 
    218 H218       -9.4248  -21.1494  -49.4925 H         1 UNK         0.0600 
    219 H219       -8.0693  -20.6205  -50.4860 H         1 UNK         0.0600 
    220 H220       -7.6429  -18.2606  -47.6319 H         1 UNK         0.3000 
    221 H221       -4.7788  -17.6832  -47.8318 H         1 UNK         0.0600 
    222 H222       -5.4749  -15.4711  -46.9533 H         1 UNK         0.0600 
    223 H223       -7.1716  -15.9110  -47.1142 H         1 UNK         0.0600 
    224 H224       -6.1370  -16.7634  -45.9683 H         1 UNK         0.0600 
    225 H225       -5.3011  -18.5302  -50.2115 H         1 UNK         0.3000 
    226 H226       -5.9936  -16.3111  -52.0773 H         1 UNK         0.0600 
    227 H227       -5.7106  -19.3420  -52.4977 H         1 UNK         0.0600 
    228 H228       -7.2172  -18.4534  -52.3324 H         1 UNK         0.0600 
    229 H229       -6.1979  -18.1713  -53.7287 H         1 UNK         0.0600 
    230 H230       -4.0774  -18.5874  -53.6149 H         1 UNK         0.3000 
    231 H231       -1.4460  -17.5465  -52.8779 H         1 UNK         0.0600 
    232 H232       -2.5626  -17.2143  -55.7122 H         1 UNK         0.0600 
    233 H233       -0.8787  -16.9947  -55.2469 H         1 UNK         0.0600 
    234 H234       -2.1104  -15.9149  -54.6111 H         1 UNK         0.0600 
    235 H235       -0.5092  -19.4795  -52.4194 H         1 UNK         0.3000 
    236 H236       -1.2578  -21.9879  -53.6130 H         1 UNK         0.0600 
    237 H237        1.1917  -21.1690  -51.9611 H         1 UNK         0.0600 
    238 H238       -0.3110  -21.8573  -51.3416 H         1 UNK         0.0600 
    239 H239        0.7463  -22.8285  -52.3409 H         1 UNK         0.0600 
    240 H240        0.8747  -19.5025  -54.6272 H         1 UNK         0.3000 
    241 H241        2.7323  -21.0379  -56.1758 H         1 UNK         0.0600 
    242 H242       -0.3539  -20.4575  -58.7065 H         1 UNK         0.3800 
    243 H243       -0.5456  -20.3271  -56.9772 H         1 UNK         0.3800 
    244 H244        3.6094  -18.8590  -56.9035 H         1 UNK         0.0800 
    245 H245        2.1959  -18.0270  -56.3157 H         1 UNK         0.0800 
    246 H246        2.4599  -16.6706  -54.1026 H         1 UNK         0.0800 
    247 H247        1.4505  -18.0522  -53.7632 H         1 UNK         0.0800 
@<TRIPOS>BOND
     1    1    2 1    
     2    1  127 1    
     3    1  128 1    
     4    1  129 1    
     5    2    3 2    
     6    2    4 am   BACKBONE|DICT|INTERRES
     7    4    5 1    
     8    4  130 1    
     9    5    6 1    
    10    5   65 1    
    11    5  131 1    
    12    6    7 1    
    13    6  132 1    
    14    6  133 1    
    15    7    8 1    
    16    8    9 1    
    17    8  134 1    
    18    8  135 1    
    19    9   10 ar   
    20    9   14 ar   
    21   10   11 ar   
    22   10  136 1    
    23   11   12 ar   
    24   11  126 1    
    25   12   13 ar   
    26   12  137 1    
    27   13   14 ar   
    28   13   15 1    
    29   14  138 1    
    30   15   16 1    
    31   15  139 1    
    32   15  140 1    
    33   16   17 1    
    34   17   18 1    
    35   17  141 1    
    36   17  142 1    
    37   18   19 1    
    38   18   67 1    
    39   18  143 1    
    40   19   20 am   BACKBONE|DICT|INTERRES
    41   19  144 1    
    42   20   21 2    
    43   20   22 1    
    44   22   23 1    
    45   22   24 1    
    46   22  145 1    
    47   23  146 1    
    48   23  147 1    
    49   23  148 1    
    50   24   25 am   BACKBONE|DICT|INTERRES
    51   24  149 1    
    52   25   26 2    
    53   25   27 1    
    54   27   28 1    
    55   27   29 1    
    56   27  150 1    
    57   28  151 1    
    58   28  152 1    
    59   28  153 1    
    60   29   30 am   BACKBONE|DICT|INTERRES
    61   29  154 1    
    62   30   31 2    
    63   30   32 1    
    64   32   33 1    
    65   32   34 1    
    66   32  155 1    
    67   33  156 1    
    68   33  157 1    
    69   33  158 1    
    70   34   35 am   BACKBONE|DICT|INTERRES
    71   34  159 1    
    72   35   36 2    
    73   35   37 1    
    74   37   38 1    
    75   37   39 1    
    76   37  160 1    
    77   38  161 1    
    78   38  162 1    
    79   38  163 1    
    80   39   40 am   BACKBONE|DICT|INTERRES
    81   39  164 1    
    82   40   41 2    
    83   40   42 1    
    84   42   43 1    
    85   42   44 1    
    86   42  165 1    
    87   43  166 1    
    88   43  167 1    
    89   43  168 1    
    90   44   45 am   BACKBONE|DICT|INTERRES
    91   44  169 1    
    92   45   46 2    
    93   45   47 1    
    94   47   48 1    
    95   47   49 1    
    96   47  170 1    
    97   48  171 1    
    98   48  172 1    
    99   48  173 1    
   100   49   50 am   BACKBONE|DICT|INTERRES
   101   49  174 1    
   102   50   51 2    
   103   50   52 1    
   104   52   53 1    
   105   52   54 1    
   106   52  175 1    
   107   53  176 1    
   108   53  177 1    
   109   53  178 1    
   110   54   55 am   BACKBONE|DICT|INTERRES
   111   54  179 1    
   112   55   56 2    
   113   55   57 1    
   114   57   58 1    
   115   57   59 1    
   116   57  180 1    
   117   58  181 1    
   118   58  182 1    
   119   58  183 1    
   120   59   60 am   BACKBONE|DICT|INTERRES
   121   59  184 1    
   122   60   61 2    
   123   60   62 1    
   124   62   63 1    
   125   62   64 1    
   126   62  185 1    
   127   63  186 1    
   128   63  187 1    
   129   63  188 1    
   130   64   65 am   BACKBONE|DICT|INTERRES
   131   64  189 1    
   132   65   66 2    
   133   67   68 2    
   134   67   69 am   BACKBONE|DICT|INTERRES
   135   69   70 1    
   136   69  190 1    
   137   70   71 1    
   138   70   72 1    
   139   70  191 1    
   140   71  192 1    
   141   71  193 1    
   142   71  194 1    
   143   72   73 2    
   144   72   74 am   BACKBONE|DICT|INTERRES
   145   74   75 1    
   146   74  195 1    
   147   75   76 1    
   148   75   77 1    
   149   75  196 1    
   150   76  197 1    
   151   76  198 1    
   152   76  199 1    
   153   77   78 2    
   154   77   79 am   BACKBONE|DICT|INTERRES
   155   79   80 1    
   156   79  200 1    
   157   80   81 1    
   158   80   82 1    
   159   80  201 1    
   160   81  202 1    
   161   81  203 1    
   162   81  204 1    
   163   82   83 2    
   164   82   84 am   BACKBONE|DICT|INTERRES
   165   84   85 1    
   166   84  205 1    
   167   85   86 1    
   168   85   87 1    
   169   85  206 1    
   170   86  207 1    
   171   86  208 1    
   172   86  209 1    
   173   87   88 2    
   174   87   89 am   BACKBONE|DICT|INTERRES
   175   89   90 1    
   176   89  210 1    
   177   90   91 1    
   178   90   92 1    
   179   90  211 1    
   180   91  212 1    
   181   91  213 1    
   182   91  214 1    
   183   92   93 2    
   184   92   94 am   BACKBONE|DICT|INTERRES
   185   94   95 1    
   186   94  215 1    
   187   95   96 1    
   188   95   97 1    
   189   95  216 1    
   190   96  217 1    
   191   96  218 1    
   192   96  219 1    
   193   97   98 2    
   194   97   99 am   BACKBONE|DICT|INTERRES
   195   99  100 1    
   196   99  220 1    
   197  100  101 1    
   198  100  102 1    
   199  100  221 1    
   200  101  222 1    
   201  101  223 1    
   202  101  224 1    
   203  102  103 2    
   204  102  104 am   BACKBONE|DICT|INTERRES
   205  104  105 1    
   206  104  225 1    
   207  105  106 1    
   208  105  107 1    
   209  105  226 1    
   210  106  227 1    
   211  106  228 1    
   212  106  229 1    
   213  107  108 2    
   214  107  109 am   BACKBONE|DICT|INTERRES
   215  109  110 1    
   216  109  230 1    
   217  110  111 1    
   218  110  112 1    
   219  110  231 1    
   220  111  232 1    
   221  111  233 1    
   222  111  234 1    
   223  112  113 2    
   224  112  114 am   BACKBONE|DICT|INTERRES
   225  114  115 1    
   226  114  235 1    
   227  115  116 1    
   228  115  117 1    
   229  115  236 1    
   230  116  237 1    
   231  116  238 1    
   232  116  239 1    
   233  117  118 2    
   234  117  119 am   BACKBONE|DICT|INTERRES
   235  119  120 1    
   236  119  240 1    
   237  120  121 1    
   238  120  124 1    
   239  120  241 1    
   240  121  122 am   BACKBONE|DICT|INTERRES
   241  121  123 2    
   242  122  242 1    
   243  122  243 1    
   244  124  125 1    
   245  124  244 1    
   246  124  245 1    
   247  125  126 1    
   248  126  246 1    
   249  126  247 1    
@<TRIPOS>SUBSTRUCTURE
     1 UNK         1 GROUP             0       ****    0 ROOT    
