@<TRIPOS>MOLECULE
3R540
247   249    1
SMALL
USER_CHARGES


@<TRIPOS>ATOM
      1 CA         -2.8852   -9.5922  -45.3071 C.3       0 UNK        -0.1800 
      2 C          -1.8415  -10.6983  -45.2587 C.2       0 UNK         0.5000 
      3 O          -0.8867  -10.6045  -44.4879 O.2       0 UNK        -0.5000 
      4 N          -2.0281  -11.7520  -46.0658 N.am      1 UNK        -0.5000 
      5 CA         -1.1227  -12.9035  -46.2068 C.3       1 UNK         0.1400 
      6 C6         -1.6359  -13.9111  -47.2605 C.3       23 UNK        -0.0398 
      7 S7         -1.6506  -13.2149  -48.9458 S.3       23 UNK        -0.2404 
      8 C8         -3.0924  -14.0591  -49.6778 C.3       23 UNK        -0.0205 
      9 C9         -3.0255  -15.5738  -49.5265 C.ar      23 UNK        -0.0193 
     10 C10        -1.9544  -16.2926  -50.0666 C.ar      23 UNK        -0.1150 
     11 C11        -1.8767  -17.6781  -49.9050 C.ar      23 UNK        -0.0193 
     12 C12        -2.8887  -18.3485  -49.2154 C.ar      23 UNK        -0.1150 
     13 C13        -3.9569  -17.6411  -48.6590 C.ar      23 UNK        -0.0193 
     14 C14        -4.0253  -16.2551  -48.8244 C.ar      23 UNK        -0.1150 
     15 C15        -5.0179  -18.3763  -47.8546 C.3       23 UNK        -0.0205 
     16 S16        -4.7626  -18.2226  -46.0510 S.3       23 UNK        -0.2404 
     17 C17        -3.0198  -18.7266  -45.8176 C.3       23 UNK        -0.0398 
     18 CA         -2.7509  -20.2216  -46.1195 C.3       11 UNK         0.1400 
     19 N          -1.3501  -20.4695  -46.4749 N.am      11 UNK        -0.5000 
     20 C          -0.9011  -21.5802  -47.0770 C.2       10 UNK         0.5000 
     21 O          -1.6353  -22.4912  -47.4508 O.2       10 UNK        -0.5000 
     22 CA          0.6230  -21.7294  -47.2527 C.3       10 UNK         0.1400 
     23 CB          1.1101  -21.0450  -48.5359 C.3       10 UNK        -0.1800 
     24 N           1.3797  -21.2235  -46.1080 N.am      10 UNK        -0.5000 
     25 C           1.3343  -21.7618  -44.8817 C.2       9 UNK         0.5000 
     26 O           0.6877  -22.7720  -44.6057 O.2       9 UNK        -0.5000 
     27 CA          2.0916  -21.0173  -43.7671 C.3       9 UNK         0.1400 
     28 CB          3.5887  -21.3581  -43.7953 C.3       9 UNK        -0.1800 
     29 N           1.9181  -19.5666  -43.8439 N.am      9 UNK        -0.5000 
     30 C           0.7452  -18.9305  -43.7114 C.2       8 UNK         0.5000 
     31 O          -0.3192  -19.4952  -43.4639 O.2       8 UNK        -0.5000 
     32 CA          0.7559  -17.4134  -43.9545 C.3       8 UNK         0.1400 
     33 CB          1.3151  -16.6726  -42.7273 C.3       8 UNK        -0.1800 
     34 N           1.5163  -17.0652  -45.1567 N.am      8 UNK        -0.5000 
     35 C           1.1554  -17.4050  -46.4040 C.2       7 UNK         0.5000 
     36 O           0.1294  -18.0257  -46.6706 O.2       7 UNK        -0.5000 
     37 CA          2.1247  -17.0412  -47.5435 C.3       7 UNK         0.1400 
     38 CB          1.8450  -15.6252  -48.0674 C.3       7 UNK        -0.1800 
     39 N           3.5266  -17.1500  -47.1432 N.am      7 UNK        -0.5000 
     40 C           4.1356  -18.2987  -46.8120 C.2       6 UNK         0.5000 
     41 O           3.5945  -19.4029  -46.8666 O.2       6 UNK        -0.5000 
     42 CA          5.5639  -18.1681  -46.2508 C.3       6 UNK         0.1400 
     43 CB          6.5870  -18.0028  -47.3844 C.3       6 UNK        -0.1800 
     44 N           5.6724  -17.0417  -45.3172 N.am      6 UNK        -0.5000 
     45 C           5.0420  -16.9971  -44.1338 C.2       5 UNK         0.5000 
     46 O           4.3798  -17.9303  -43.6810 O.2       5 UNK        -0.5000 
     47 CA          5.0613  -15.6552  -43.3926 C.3       5 UNK         0.1400 
     48 CB          6.4799  -15.2590  -42.9482 C.3       5 UNK        -0.1800 
     49 N           4.4728  -14.6453  -44.2742 N.am      5 UNK        -0.5000 
     50 C           3.8159  -13.5214  -43.9611 C.2       4 UNK         0.5000 
     51 O           3.2789  -12.8418  -44.8362 O.2       4 UNK        -0.5000 
     52 CA          3.7555  -13.0168  -42.5081 C.3       4 UNK         0.1400 
     53 CB          4.7949  -11.8954  -42.3006 C.3       4 UNK        -0.1800 
     54 N           2.4065  -12.5156  -42.2594 N.am      4 UNK        -0.5000 
     55 C           1.9159  -12.1359  -41.0736 C.2       3 UNK         0.5000 
     56 O           2.5497  -12.1897  -40.0188 O.2       3 UNK        -0.5000 
     57 CA          0.4672  -11.6144  -41.0570 C.3       3 UNK         0.1400 
     58 CB          0.4230  -10.1293  -41.4477 C.3       3 UNK        -0.1800 
     59 N          -0.4259  -12.3795  -41.9295 N.am      3 UNK        -0.5000 
     60 C          -0.8269  -13.6345  -41.6728 C.2       2 UNK         0.5000 
     61 O          -0.4813  -14.2633  -40.6720 O.2       2 UNK        -0.5000 
     62 CA         -1.7865  -14.3096  -42.6746 C.3       2 UNK         0.1400 
     63 CB         -3.2081  -14.3803  -42.0963 C.3       2 UNK        -0.1800 
     64 N          -1.8479  -13.6605  -43.9834 N.am      2 UNK        -0.5000 
     65 C          -0.8557  -13.6476  -44.8833 C.2       1 UNK         0.5000 
     66 O           0.2370  -14.1784  -44.7015 O.2       1 UNK        -0.5000 
     67 C          -3.2335  -21.1408  -44.9782 C.2       11 UNK         0.5000 
     68 O          -4.3590  -21.6344  -45.0385 O.2       11 UNK        -0.5000 
     69 N          -2.3697  -21.4138  -43.9891 N.am      12 UNK        -0.5000 
     70 CA         -2.6195  -22.3829  -42.9160 C.3       12 UNK         0.1400 
     71 CB         -1.5180  -22.2723  -41.8514 C.3       12 UNK        -0.1800 
     72 C          -2.7415  -23.8293  -43.4386 C.2       12 UNK         0.5000 
     73 O          -3.5490  -24.6003  -42.9202 O.2       12 UNK        -0.5000 
     74 N          -1.9810  -24.1475  -44.4943 N.am      13 UNK        -0.5000 
     75 CA         -2.0649  -25.3881  -45.2686 C.3       13 UNK         0.1400 
     76 CB         -0.6915  -25.6543  -45.9072 C.3       13 UNK        -0.1800 
     77 C          -3.1776  -25.3642  -46.3431 C.2       13 UNK         0.5000 
     78 O          -3.2723  -26.3070  -47.1309 O.2       13 UNK        -0.5000 
     79 N          -3.9786  -24.2893  -46.3835 N.am      14 UNK        -0.5000 
     80 CA         -5.0612  -23.9531  -47.3140 C.3       14 UNK         0.1400 
     81 CB         -6.1770  -25.0150  -47.3041 C.3       14 UNK        -0.1800 
     82 C          -4.6007  -23.6452  -48.7493 C.2       14 UNK         0.5000 
     83 O          -5.0679  -22.6627  -49.3275 O.2       14 UNK        -0.5000 
     84 N          -3.7436  -24.5051  -49.3183 N.am      15 UNK        -0.5000 
     85 CA         -3.2456  -24.4747  -50.7001 C.3       15 UNK         0.1400 
     86 CB         -2.2749  -23.2916  -50.9004 C.3       15 UNK        -0.1800 
     87 C          -4.3920  -24.4955  -51.7355 C.2       15 UNK         0.5000 
     88 O          -4.3455  -23.7677  -52.7289 O.2       15 UNK        -0.5000 
     89 N          -5.4297  -25.2957  -51.4408 N.am      16 UNK        -0.5000 
     90 CA         -6.7045  -25.3974  -52.1624 C.3       16 UNK         0.1400 
     91 CB         -6.4875  -25.9990  -53.5674 C.3       16 UNK        -0.1800 
     92 C          -7.4828  -24.0619  -52.1877 C.2       16 UNK         0.5000 
     93 O          -8.0825  -23.7185  -53.2046 O.2       16 UNK        -0.5000 
     94 N          -7.4248  -23.3135  -51.0748 N.am      17 UNK        -0.5000 
     95 CA         -7.9045  -21.9339  -50.9099 C.3       17 UNK         0.1400 
     96 CB         -9.4395  -21.8484  -51.0450 C.3       17 UNK        -0.1800 
     97 C          -7.1464  -20.9644  -51.8416 C.2       17 UNK         0.5000 
     98 O          -7.7574  -20.1463  -52.5304 O.2       17 UNK        -0.5000 
     99 N          -5.8164  -21.1310  -51.8666 N.am      18 UNK        -0.5000 
    100 CA        -4.8219  -20.4673  -52.7176 C.3       18 UNK         0.1400 
    101 CB        -4.8125  -18.9441  -52.4795 C.3       18 UNK        -0.1800 
    102 C         -4.9053  -20.8177  -54.2217 C.2       18 UNK         0.5000 
    103 O         -4.1113  -20.2846  -54.9990 O.2       18 UNK        -0.5000 
    104 N         -5.8088  -21.7259  -54.6255 N.am      19 UNK        -0.5000 
    105 CA        -5.9809  -22.1675  -56.0146 C.3       19 UNK         0.1400 
    106 CB        -7.3045  -22.9294  -56.1667 C.3       19 UNK        -0.1800 
    107 C         -4.8068  -23.0124  -56.5464 C.2       19 UNK         0.5000 
    108 O         -4.6329  -23.0960  -57.7624 O.2       19 UNK        -0.5000 
    109 N         -3.9907  -23.5782  -55.6446 N.am      20 UNK        -0.5000 
    110 CA        -2.7264  -24.2500  -55.9613 C.3       20 UNK         0.1400 
    111 CB        -2.4042  -25.2626  -54.8489 C.3       20 UNK        -0.1800 
    112 C         -1.5564  -23.2606  -56.1747 C.2       20 UNK         0.5000 
    113 O         -0.4004  -23.6875  -56.1879 O.2       20 UNK        -0.5000 
    114 N         -1.8610  -21.9577  -56.2971 N.am      21 UNK        -0.5000 
    115 CA        -0.9414  -20.8320  -56.4983 C.3       21 UNK         0.1400 
    116 CB        -0.2532  -20.9271  -57.8760 C.3       21 UNK        -0.1800 
    117 C          0.0556  -20.6609  -55.3350 C.2       21 UNK         0.5000 
    118 O          1.1901  -20.2302  -55.5493 O.2       21 UNK        -0.5000 
    119 N         -0.3948  -21.0244  -54.1263 N.am      22 UNK        -0.5000 
    120 CA         0.3751  -21.0339  -52.8716 C.3       22 UNK         0.1400 
    121 C          1.5173  -22.0961  -52.8228 C.2       22 UNK         0.5000 
    122 N          1.5569  -23.0750  -53.7210 N.am      22 UNK        -0.7600 
    123 O          2.3638  -22.0584  -51.9347 O.2       22 UNK        -0.5000 
    124 C124        0.8411  -19.6158  -52.4366 C.3       23 UNK        -0.0398 
    125 S125       -0.5670  -18.4700  -52.2256 S.3       23 UNK        -0.2404 
    126 C126       -0.6719  -18.4474  -50.4143 C.3       23 UNK        -0.0205 
    127 H127       -2.4187   -8.6498  -45.5940 H         1 UNK         0.0600 
    128 H128       -3.3403   -9.4634  -44.3251 H         1 UNK         0.0600 
    129 H129       -3.6770   -9.8121  -46.0236 H         1 UNK         0.0600 
    130 H130       -2.8276  -11.7573  -46.6832 H         1 UNK         0.3000 
    131 H131       -0.1590  -12.5151  -46.5435 H         1 UNK         0.0600 
    132 H132       -1.0139  -14.8075  -47.2840 H         1 UNK         0.0800 
    133 H133       -2.6393  -14.2500  -46.9960 H         1 UNK         0.0800 
    134 H134       -4.0009  -13.6633  -49.2211 H         1 UNK         0.0800 
    135 H135       -3.1481  -13.8103  -50.7383 H         1 UNK         0.0800 
    136 H136       -1.1687  -15.7704  -50.5944 H         1 UNK         0.1150 
    137 H137       -2.8279  -19.4194  -49.0830 H         1 UNK         0.1150 
    138 H138       -4.8491  -15.7077  -48.3883 H         1 UNK         0.1150 
    139 H139       -6.0014  -17.9754  -48.1036 H         1 UNK         0.0800 
    140 H140       -5.0491  -19.4306  -48.1337 H         1 UNK         0.0800 
    141 H141       -2.7115  -18.4729  -44.8018 H         1 UNK         0.0800 
    142 H142       -2.4133  -18.0917  -46.4619 H         1 UNK         0.0800 
    143 H143       -3.3327  -20.4987  -46.9996 H         1 UNK         0.0600 
    144 H144       -0.6919  -19.7237  -46.2682 H         1 UNK         0.3000 
    145 H145        0.8364  -22.7962  -47.3456 H         1 UNK         0.0600 
    146 H146        2.1674  -21.2451  -48.7113 H         1 UNK         0.0600 
    147 H147        0.5637  -21.4103  -49.4063 H         1 UNK         0.0600 
    148 H148        0.9822  -19.9650  -48.4835 H         1 UNK         0.0600 
    149 H149        1.9820  -20.4226  -46.2714 H         1 UNK         0.3000 
    150 H150        1.6853  -21.3503  -42.8099 H         1 UNK         0.0600 
    151 H151        3.7458  -22.4340  -43.7101 H         1 UNK         0.0600 
    152 H152        4.1155  -20.8847  -42.9666 H         1 UNK         0.0600 
    153 H153        4.0610  -21.0289  -44.7212 H         1 UNK         0.0600 
    154 H154        2.7556  -19.0164  -44.0077 H         1 UNK         0.3000 
    155 H155       -0.2741  -17.0867  -44.1108 H         1 UNK         0.0600 
    156 H156        0.6473  -16.7899  -41.8732 H         1 UNK         0.0600 
    157 H157        1.4207  -15.6041  -42.9088 H         1 UNK         0.0600 
    158 H158        2.2887  -17.0542  -42.4243 H         1 UNK         0.0600 
    159 H159        2.3732  -16.5547  -45.0206 H         1 UNK         0.3000 
    160 H160        1.9608  -17.7446  -48.3614 H         1 UNK         0.0600 
    161 H161        1.9217  -14.8765  -47.2772 H         1 UNK         0.0600 
    162 H162        0.8410  -15.5621  -48.4878 H         1 UNK         0.0600 
    163 H163        2.5402  -15.3513  -48.8610 H         1 UNK         0.0600 
    164 H164        4.0561  -16.2934  -47.1069 H         1 UNK         0.3000 
    165 H165        5.7972  -19.0882  -45.7104 H         1 UNK         0.0600 
    166 H166        7.6048  -17.9772  -46.9947 H         1 UNK         0.0600 
    167 H167        6.5294  -18.8369  -48.0850 H         1 UNK         0.0600 
    168 H168        6.4214  -17.0858  -47.9512 H         1 UNK         0.0600 
    169 H169        6.2342  -16.2566  -45.6133 H         1 UNK         0.3000 
    170 H170        4.4389  -15.7934  -42.5079 H         1 UNK         0.0600 
    171 H171        6.9730  -16.0854  -42.4343 H         1 UNK         0.0600 
    172 H172        7.1075  -14.9763  -43.7938 H         1 UNK         0.0600 
    173 H173        6.4602  -14.4221  -42.2521 H         1 UNK         0.0600 
    174 H174        4.5088  -14.8824  -45.2526 H         1 UNK         0.3000 
    175 H175        3.9502  -13.8213  -41.8013 H         1 UNK         0.0600 
    176 H176        4.5468  -11.0089  -42.8856 H         1 UNK         0.0600 
    177 H177        4.8622  -11.5967  -41.2548 H         1 UNK         0.0600 
    178 H178        5.7913  -12.2147  -42.6061 H         1 UNK         0.0600 
    179 H179        1.8187  -12.4645  -43.0830 H         1 UNK         0.3000 
    180 H180        0.0949  -11.7008  -40.0339 H         1 UNK         0.0600 
    181 H181        0.8068   -9.9659  -42.4554 H         1 UNK         0.0600 
    182 H182        1.0279   -9.5296  -40.7665 H         1 UNK         0.0600 
    183 H183       -0.5944   -9.7398  -41.4092 H         1 UNK         0.0600 
    184 H184       -0.7294  -11.9250  -42.7832 H         1 UNK         0.3000 
    185 H185       -1.4314  -15.3310  -42.8219 H         1 UNK         0.0600 
    186 H186       -3.2148  -14.8925  -41.1331 H         1 UNK         0.0600 
    187 H187       -3.6290  -13.3859  -41.9420 H         1 UNK         0.0600 
    188 H188       -3.8770  -14.9306  -42.7584 H         1 UNK         0.0600 
    189 H189       -2.7049  -13.1772  -44.2093 H         1 UNK         0.3000 
    190 H190       -1.4843  -20.9148  -43.9576 H         1 UNK         0.3000 
    191 H191       -3.5697  -22.1207  -42.4464 H         1 UNK         0.0600 
    192 H192       -0.5382  -22.5260  -42.2546 H         1 UNK         0.0600 
    193 H193       -1.4613  -21.2618  -41.4461 H         1 UNK         0.0600 
    194 H194       -1.7135  -22.9474  -41.0175 H         1 UNK         0.0600 
    195 H195       -1.2976  -23.4690  -44.8122 H         1 UNK         0.3000 
    196 H196       -2.2888  -26.2140  -44.5908 H         1 UNK         0.0600 
    197 H197        0.0952  -25.6849  -45.1530 H         1 UNK         0.0600 
    198 H198       -0.4300  -24.8818  -46.6308 H         1 UNK         0.0600 
    199 H199       -0.6771  -26.6119  -46.4288 H         1 UNK         0.0600 
    200 H200       -3.7837  -23.5544  -45.7152 H         1 UNK         0.3000 
    201 H201       -5.4991  -23.0303  -46.9325 H         1 UNK         0.0600 
    202 H202       -7.0242  -24.6936  -47.9111 H         1 UNK         0.0600 
    203 H203       -6.5488  -25.1834  -46.2934 H         1 UNK         0.0600 
    204 H204       -5.8390  -25.9726  -47.7002 H         1 UNK         0.0600 
    205 H205       -3.4312  -25.2820  -48.7419 H         1 UNK         0.3000 
    206 H206       -2.6816  -25.3960  -50.8508 H         1 UNK         0.0600 
    207 H207       -1.4497  -23.3384  -50.1898 H         1 UNK         0.0600 
    208 H208       -2.7712  -22.3304  -50.7675 H         1 UNK         0.0600 
    209 H209       -1.8417  -23.3051  -51.9007 H         1 UNK         0.0600 
    210 H210       -5.3621  -25.8498  -50.5989 H         1 UNK         0.3000 
    211 H211       -7.3241  -26.0958  -51.5984 H         1 UNK         0.0600 
    212 H212       -5.9603  -26.9511  -53.5103 H         1 UNK         0.0600 
    213 H213       -7.4396  -26.1859  -54.0652 H         1 UNK         0.0600 
    214 H214       -5.9083  -25.3362  -54.2099 H         1 UNK         0.0600 
    215 H215       -6.8528  -23.6529  -50.3144 H         1 UNK         0.3000 
    216 H216       -7.6502  -21.6391  -49.8907 H         1 UNK         0.0600 
    217 H217       -9.7953  -20.8498  -50.7894 H         1 UNK         0.0600 
    218 H218       -9.7750  -22.0614  -52.0602 H         1 UNK         0.0600 
    219 H219       -9.9336  -22.5506  -50.3738 H         1 UNK         0.0600 
    220 H220       -5.4361  -21.8333  -51.2409 H         1 UNK         0.3000 
    221 H221       -3.8569  -20.8497  -52.3836 H         1 UNK         0.0600 
    222 H222       -5.7025  -18.4635  -52.8860 H         1 UNK         0.0600 
    223 H223       -4.7608  -18.7100  -51.4167 H         1 UNK         0.0600 
    224 H224       -3.9463  -18.4804  -52.9531 H         1 UNK         0.0600 
    225 H225       -6.4114  -22.1536  -53.9352 H         1 UNK         0.3000 
    226 H226       -6.0419  -21.2716  -56.6360 H         1 UNK         0.0600 
    227 H227       -8.1404  -22.3638  -55.7544 H         1 UNK         0.0600 
    228 H228       -7.5248  -23.1159  -57.2184 H         1 UNK         0.0600 
    229 H229       -7.2711  -23.8978  -55.6687 H         1 UNK         0.0600 
    230 H230       -4.2091  -23.4805  -54.6559 H         1 UNK         0.3000 
    231 H231       -2.8493  -24.8071  -56.8921 H         1 UNK         0.0600 
    232 H232       -1.5628  -25.8972  -55.1294 H         1 UNK         0.0600 
    233 H233       -3.2521  -25.9186  -54.6502 H         1 UNK         0.0600 
    234 H234       -2.1377  -24.7637  -53.9173 H         1 UNK         0.0600 
    235 H235       -2.8341  -21.6950  -56.2054 H         1 UNK         0.3000 
    236 H236       -1.5589  -19.9326  -56.4994 H         1 UNK         0.0600 
    237 H237       -0.9856  -21.0441  -58.6748 H         1 UNK         0.0600 
    238 H238        0.3179  -20.0234  -58.0913 H         1 UNK         0.0600 
    239 H239        0.4372  -21.7695  -57.9273 H         1 UNK         0.0600 
    240 H240       -1.3432  -21.3625  -54.0648 H         1 UNK         0.3000 
    241 H241       -0.3273  -21.3749  -52.1112 H         1 UNK         0.0600 
    242 H242        2.2944  -23.7594  -53.6682 H         1 UNK         0.3800 
    243 H243        0.8804  -23.1283  -54.4717 H         1 UNK         0.3800 
    244 H244        1.4020  -19.6627  -51.5018 H         1 UNK         0.0800 
    245 H245        1.5287  -19.1911  -53.1685 H         1 UNK         0.0800 
    246 H246       -0.7139  -19.4766  -50.0589 H         1 UNK         0.0800 
    247 H247        0.2350  -18.0043  -50.0026 H         1 UNK         0.0800 
@<TRIPOS>BOND
     1    1    2 1    
     2    1  127 1    
     3    1  128 1    
     4    1  129 1    
     5    2    3 2    
     6    2    4 am   BACKBONE|DICT|INTERRES
     7    4    5 1    
     8    4  130 1    
     9    5    6 1    
    10    5   65 1    
    11    5  131 1    
    12    6    7 1    
    13    6  132 1    
    14    6  133 1    
    15    7    8 1    
    16    8    9 1    
    17    8  134 1    
    18    8  135 1    
    19    9   10 ar   
    20    9   14 ar   
    21   10   11 ar   
    22   10  136 1    
    23   11   12 ar   
    24   11  126 1    
    25   12   13 ar   
    26   12  137 1    
    27   13   14 ar   
    28   13   15 1    
    29   14  138 1    
    30   15   16 1    
    31   15  139 1    
    32   15  140 1    
    33   16   17 1    
    34   17   18 1    
    35   17  141 1    
    36   17  142 1    
    37   18   19 1    
    38   18   67 1    
    39   18  143 1    
    40   19   20 am   BACKBONE|DICT|INTERRES
    41   19  144 1    
    42   20   21 2    
    43   20   22 1    
    44   22   23 1    
    45   22   24 1    
    46   22  145 1    
    47   23  146 1    
    48   23  147 1    
    49   23  148 1    
    50   24   25 am   BACKBONE|DICT|INTERRES
    51   24  149 1    
    52   25   26 2    
    53   25   27 1    
    54   27   28 1    
    55   27   29 1    
    56   27  150 1    
    57   28  151 1    
    58   28  152 1    
    59   28  153 1    
    60   29   30 am   BACKBONE|DICT|INTERRES
    61   29  154 1    
    62   30   31 2    
    63   30   32 1    
    64   32   33 1    
    65   32   34 1    
    66   32  155 1    
    67   33  156 1    
    68   33  157 1    
    69   33  158 1    
    70   34   35 am   BACKBONE|DICT|INTERRES
    71   34  159 1    
    72   35   36 2    
    73   35   37 1    
    74   37   38 1    
    75   37   39 1    
    76   37  160 1    
    77   38  161 1    
    78   38  162 1    
    79   38  163 1    
    80   39   40 am   BACKBONE|DICT|INTERRES
    81   39  164 1    
    82   40   41 2    
    83   40   42 1    
    84   42   43 1    
    85   42   44 1    
    86   42  165 1    
    87   43  166 1    
    88   43  167 1    
    89   43  168 1    
    90   44   45 am   BACKBONE|DICT|INTERRES
    91   44  169 1    
    92   45   46 2    
    93   45   47 1    
    94   47   48 1    
    95   47   49 1    
    96   47  170 1    
    97   48  171 1    
    98   48  172 1    
    99   48  173 1    
   100   49   50 am   BACKBONE|DICT|INTERRES
   101   49  174 1    
   102   50   51 2    
   103   50   52 1    
   104   52   53 1    
   105   52   54 1    
   106   52  175 1    
   107   53  176 1    
   108   53  177 1    
   109   53  178 1    
   110   54   55 am   BACKBONE|DICT|INTERRES
   111   54  179 1    
   112   55   56 2    
   113   55   57 1    
   114   57   58 1    
   115   57   59 1    
   116   57  180 1    
   117   58  181 1    
   118   58  182 1    
   119   58  183 1    
   120   59   60 am   BACKBONE|DICT|INTERRES
   121   59  184 1    
   122   60   61 2    
   123   60   62 1    
   124   62   63 1    
   125   62   64 1    
   126   62  185 1    
   127   63  186 1    
   128   63  187 1    
   129   63  188 1    
   130   64   65 am   BACKBONE|DICT|INTERRES
   131   64  189 1    
   132   65   66 2    
   133   67   68 2    
   134   67   69 am   BACKBONE|DICT|INTERRES
   135   69   70 1    
   136   69  190 1    
   137   70   71 1    
   138   70   72 1    
   139   70  191 1    
   140   71  192 1    
   141   71  193 1    
   142   71  194 1    
   143   72   73 2    
   144   72   74 am   BACKBONE|DICT|INTERRES
   145   74   75 1    
   146   74  195 1    
   147   75   76 1    
   148   75   77 1    
   149   75  196 1    
   150   76  197 1    
   151   76  198 1    
   152   76  199 1    
   153   77   78 2    
   154   77   79 am   BACKBONE|DICT|INTERRES
   155   79   80 1    
   156   79  200 1    
   157   80   81 1    
   158   80   82 1    
   159   80  201 1    
   160   81  202 1    
   161   81  203 1    
   162   81  204 1    
   163   82   83 2    
   164   82   84 am   BACKBONE|DICT|INTERRES
   165   84   85 1    
   166   84  205 1    
   167   85   86 1    
   168   85   87 1    
   169   85  206 1    
   170   86  207 1    
   171   86  208 1    
   172   86  209 1    
   173   87   88 2    
   174   87   89 am   BACKBONE|DICT|INTERRES
   175   89   90 1    
   176   89  210 1    
   177   90   91 1    
   178   90   92 1    
   179   90  211 1    
   180   91  212 1    
   181   91  213 1    
   182   91  214 1    
   183   92   93 2    
   184   92   94 am   BACKBONE|DICT|INTERRES
   185   94   95 1    
   186   94  215 1    
   187   95   96 1    
   188   95   97 1    
   189   95  216 1    
   190   96  217 1    
   191   96  218 1    
   192   96  219 1    
   193   97   98 2    
   194   97   99 am   BACKBONE|DICT|INTERRES
   195   99  100 1    
   196   99  220 1    
   197  100  101 1    
   198  100  102 1    
   199  100  221 1    
   200  101  222 1    
   201  101  223 1    
   202  101  224 1    
   203  102  103 2    
   204  102  104 am   BACKBONE|DICT|INTERRES
   205  104  105 1    
   206  104  225 1    
   207  105  106 1    
   208  105  107 1    
   209  105  226 1    
   210  106  227 1    
   211  106  228 1    
   212  106  229 1    
   213  107  108 2    
   214  107  109 am   BACKBONE|DICT|INTERRES
   215  109  110 1    
   216  109  230 1    
   217  110  111 1    
   218  110  112 1    
   219  110  231 1    
   220  111  232 1    
   221  111  233 1    
   222  111  234 1    
   223  112  113 2    
   224  112  114 am   BACKBONE|DICT|INTERRES
   225  114  115 1    
   226  114  235 1    
   227  115  116 1    
   228  115  117 1    
   229  115  236 1    
   230  116  237 1    
   231  116  238 1    
   232  116  239 1    
   233  117  118 2    
   234  117  119 am   BACKBONE|DICT|INTERRES
   235  119  120 1    
   236  119  240 1    
   237  120  121 1    
   238  120  124 1    
   239  120  241 1    
   240  121  122 am   BACKBONE|DICT|INTERRES
   241  121  123 2    
   242  122  242 1    
   243  122  243 1    
   244  124  125 1    
   245  124  244 1    
   246  124  245 1    
   247  125  126 1    
   248  126  246 1    
   249  126  247 1    
@<TRIPOS>SUBSTRUCTURE
     1 UNK         1 GROUP             0       ****    0 ROOT    
