@<TRIPOS>MOLECULE
3R540
247   249    1
SMALL
USER_CHARGES


@<TRIPOS>ATOM
      1 CA          0.2796  -11.5461  -51.9709 C.3       0 UNK        -0.1800 
      2 C           0.3593  -12.6773  -50.9553 C.2       0 UNK         0.5000 
      3 O           1.0409  -13.6729  -51.2000 O.2       0 UNK        -0.5000 
      4 N          -0.3394  -12.5312  -49.8232 N.am      1 UNK        -0.5000 
      5 CA         -0.3585  -13.4887  -48.7151 C.3       1 UNK         0.1400 
      6 C6         -1.4769  -13.1656  -47.6939 C.3       23 UNK        -0.0398 
      7 S7         -3.1426  -13.4657  -48.3724 S.3       23 UNK        -0.2404 
      8 C8         -3.6158  -14.9990  -47.5091 C.3       23 UNK        -0.0205 
      9 C9         -2.9021  -16.2177  -48.0756 C.ar      23 UNK        -0.0193 
     10 C10        -3.4688  -16.9258  -49.1378 C.ar      23 UNK        -0.1150 
     11 C11        -2.8358  -18.0588  -49.6553 C.ar      23 UNK        -0.0193 
     12 C12        -1.6213  -18.4801  -49.1059 C.ar      23 UNK        -0.1150 
     13 C13        -1.0452  -17.7835  -48.0393 C.ar      23 UNK        -0.0193 
     14 C14        -1.6915  -16.6537  -47.5294 C.ar      23 UNK        -0.1150 
     15 C15         0.2839  -18.2363  -47.4542 C.3       23 UNK        -0.0205 
     16 S16         0.1277  -18.7973  -45.7275 S.3       23 UNK        -0.2404 
     17 C17         0.9386  -20.4375  -45.7795 C.3       23 UNK        -0.0398 
     18 CA         -0.0308  -21.6359  -45.6384 C.3       11 UNK         0.1400 
     19 N          -0.6477  -21.6903  -44.3121 N.am      11 UNK        -0.5000 
     20 C          -1.4627  -22.6627  -43.8764 C.2       10 UNK         0.5000 
     21 O          -1.6966  -23.6873  -44.5197 O.2       10 UNK        -0.5000 
     22 CA         -2.1858  -22.4344  -42.5327 C.3       10 UNK         0.1400 
     23 CB         -1.5491  -23.2946  -41.4312 C.3       10 UNK        -0.1800 
     24 N          -2.2064  -21.0377  -42.0867 N.am      10 UNK        -0.5000 
     25 C          -2.7202  -19.9925  -42.7536 C.2       9 UNK         0.5000 
     26 O          -3.3075  -20.0973  -43.8307 O.2       9 UNK        -0.5000 
     27 CA         -2.5012  -18.5936  -42.1396 C.3       9 UNK         0.1400 
     28 CB         -3.8210  -18.0314  -41.5910 C.3       9 UNK        -0.1800 
     29 N          -1.4891  -18.5585  -41.0755 N.am      9 UNK        -0.5000 
     30 C          -0.1768  -18.7534  -41.2585 C.2       8 UNK         0.5000 
     31 O           0.3355  -19.0005  -42.3527 O.2       8 UNK        -0.5000 
     32 CA          0.7026  -18.7216  -40.0033 C.3       8 UNK         0.1400 
     33 CB          0.7353  -20.0999  -39.3206 C.3       8 UNK        -0.1800 
     34 N           2.0460  -18.3397  -40.4124 N.am      8 UNK        -0.5000 
     35 C           2.9343  -17.6870  -39.6595 C.2       7 UNK         0.5000 
     36 O           2.7742  -17.4514  -38.4602 O.2       7 UNK        -0.5000 
     37 CA          4.2259  -17.2609  -40.3749 C.3       7 UNK         0.1400 
     38 CB          5.0227  -16.2162  -39.5722 C.3       7 UNK        -0.1800 
     39 N           5.0602  -18.4429  -40.5733 N.am      7 UNK        -0.5000 
     40 C           5.4655  -19.0387  -41.7065 C.2       6 UNK         0.5000 
     41 O           6.0918  -20.0960  -41.6547 O.2       6 UNK        -0.5000 
     42 CA          5.1799  -18.4420  -43.1090 C.3       6 UNK         0.1400 
     43 CB          3.7577  -18.7838  -43.5827 C.3       6 UNK        -0.1800 
     44 N           5.4204  -17.0092  -43.2858 N.am      6 UNK        -0.5000 
     45 C           6.5362  -16.3352  -42.9764 C.2       5 UNK         0.5000 
     46 O           7.5415  -16.8520  -42.4886 O.2       5 UNK        -0.5000 
     47 CA          6.5302  -14.8224  -43.2594 C.3       5 UNK         0.1400 
     48 CB          7.0888  -14.5463  -44.6645 C.3       5 UNK        -0.1800 
     49 N           5.1848  -14.2474  -43.1686 N.am      5 UNK        -0.5000 
     50 C           4.7449  -13.4655  -42.1726 C.2       4 UNK         0.5000 
     51 O           5.4269  -13.1613  -41.1937 O.2       4 UNK        -0.5000 
     52 CA          3.3111  -12.9044  -42.2853 C.3       4 UNK         0.1400 
     53 CB          3.3457  -11.4565  -42.7984 C.3       4 UNK        -0.1800 
     54 N           2.4496  -13.6925  -43.1674 N.am      4 UNK        -0.5000 
     55 C           1.8607  -14.8450  -42.8235 C.2       3 UNK         0.5000 
     56 O           1.8981  -15.3103  -41.6865 O.2       3 UNK        -0.5000 
     57 CA          1.1199  -15.6248  -43.9301 C.3       3 UNK         0.1400 
     58 CB         -0.4003  -15.4635  -43.7712 C.3       3 UNK        -0.1800 
     59 N           1.5028  -15.2716  -45.3038 N.am      3 UNK        -0.5000 
     60 C           2.7337  -15.3590  -45.8308 C.2       2 UNK         0.5000 
     61 O           3.7160  -15.7102  -45.1776 O.2       2 UNK        -0.5000 
     62 CA          2.9138  -14.9766  -47.3156 C.3       2 UNK         0.1400 
     63 CB          3.6844  -16.0665  -48.0800 C.3       2 UNK        -0.1800 
     64 N           1.6453  -14.7093  -48.0022 N.am      2 UNK        -0.5000 
     65 C           1.0103  -13.5307  -48.0070 C.2       1 UNK         0.5000 
     66 O           1.4393  -12.5192  -47.4489 O.2       1 UNK        -0.5000 
     67 C          -1.0646  -21.6842  -46.7874 C.2       11 UNK         0.5000 
     68 O          -0.7641  -22.2491  -47.8362 O.2       11 UNK        -0.5000 
     69 N          -2.2712  -21.1418  -46.5603 N.am      12 UNK        -0.5000 
     70 CA         -3.3783  -21.1569  -47.5151 C.3       12 UNK         0.1400 
     71 CB         -4.4609  -20.1750  -47.0448 C.3       12 UNK        -0.1800 
     72 C          -3.9615  -22.5631  -47.7362 C.2       12 UNK         0.5000 
     73 O          -4.3632  -22.8870  -48.8554 O.2       12 UNK        -0.5000 
     74 N          -3.9651  -23.3857  -46.6789 N.am      13 UNK        -0.5000 
     75 CA         -4.3567  -24.7920  -46.7410 C.3       13 UNK         0.1400 
     76 CB         -4.6903  -25.3015  -45.3304 C.3       13 UNK        -0.1800 
     77 C          -3.2599  -25.6484  -47.3958 C.2       13 UNK         0.5000 
     78 O          -3.5782  -26.5272  -48.1965 O.2       13 UNK        -0.5000 
     79 N          -1.9922  -25.3547  -47.0700 N.am      14 UNK        -0.5000 
     80 CA         -0.8133  -26.0214  -47.6267 C.3       14 UNK         0.1400 
     81 CB          0.4347  -25.5994  -46.8371 C.3       14 UNK        -0.1800 
     82 C          -0.6259  -25.7518  -49.1322 C.2       14 UNK         0.5000 
     83 O          -0.3336  -26.6828  -49.8835 O.2       14 UNK        -0.5000 
     84 N          -0.8164  -24.4916  -49.5477 N.am      15 UNK        -0.5000 
     85 CA         -0.7527  -24.0539  -50.9439 C.3       15 UNK         0.1400 
     86 CB         -0.6435  -22.5203  -50.9891 C.3       15 UNK        -0.1800 
     87 C          -1.9600  -24.5117  -51.7815 C.2       15 UNK         0.5000 
     88 O          -1.8350  -24.5973  -53.0026 O.2       15 UNK        -0.5000 
     89 N          -3.0924  -24.7765  -51.1113 N.am      16 UNK        -0.5000 
     90 CA         -4.4203  -25.0458  -51.6650 C.3       16 UNK         0.1400 
     91 CB         -4.4330  -26.3142  -52.5438 C.3       16 UNK        -0.1800 
     92 C          -4.9506  -23.7985  -52.3925 C.2       16 UNK         0.5000 
     93 O          -4.9448  -23.7426  -53.6223 O.2       16 UNK        -0.5000 
     94 N          -5.3648  -22.8054  -51.5951 N.am      17 UNK        -0.5000 
     95 CA         -5.7865  -21.4518  -51.9740 C.3       17 UNK         0.1400 
     96 CB         -6.4541  -20.8016  -50.7536 C.3       17 UNK        -0.1800 
     97 C          -6.7079  -21.3170  -53.2014 C.2       17 UNK         0.5000 
     98 O          -6.5741  -20.3426  -53.9438 O.2       17 UNK        -0.5000 
     99 N          -7.6133  -22.2836  -53.3980 N.am      18 UNK        -0.5000 
    100 CA        -8.5309  -22.3371  -54.5373 C.3       18 UNK         0.1400 
    101 CB        -9.6521  -23.3412  -54.2295 C.3       18 UNK        -0.1800 
    102 C         -7.8353  -22.6980  -55.8651 C.2       18 UNK         0.5000 
    103 O         -8.2666  -22.2282  -56.9183 O.2       18 UNK        -0.5000 
    104 N         -6.7776  -23.5167  -55.7949 N.am      19 UNK        -0.5000 
    105 CA        -5.9647  -23.9323  -56.9381 C.3       19 UNK         0.1400 
    106 CB        -5.4363  -25.3549  -56.6950 C.3       19 UNK        -0.1800 
    107 C         -4.8022  -22.9547  -57.1748 C.2       19 UNK         0.5000 
    108 O         -4.4845  -22.6533  -58.3257 O.2       19 UNK        -0.5000 
    109 N         -4.2067  -22.4578  -56.0813 N.am      20 UNK        -0.5000 
    110 CA        -3.1371  -21.4567  -56.0847 C.3       20 UNK         0.1400 
    111 CB        -2.4889  -21.4237  -54.6934 C.3       20 UNK        -0.1800 
    112 C         -3.6137  -20.0485  -56.4962 C.2       20 UNK         0.5000 
    113 O         -2.7880  -19.2237  -56.8872 O.2       20 UNK        -0.5000 
    114 N         -4.9285  -19.8063  -56.3930 N.am      21 UNK        -0.5000 
    115 CA        -5.6700  -18.5874  -56.7366 C.3       21 UNK         0.1400 
    116 CB        -5.4466  -18.1820  -58.2082 C.3       21 UNK        -0.1800 
    117 C         -5.4604  -17.4102  -55.7615 C.2       21 UNK         0.5000 
    118 O         -6.0107  -16.3329  -55.9958 O.2       21 UNK        -0.5000 
    119 N         -4.7164  -17.6316  -54.6708 N.am      22 UNK        -0.5000 
    120 CA        -4.5878  -16.7017  -53.5377 C.3       22 UNK         0.1400 
    121 C         -5.8079  -16.7045  -52.5705 C.2       22 UNK         0.5000 
    122 N         -6.7408  -17.6447  -52.6701 N.am      22 UNK        -0.7600 
    123 O         -5.9216  -15.8224  -51.7248 O.2       22 UNK        -0.5000 
    124 C124       -3.2357  -16.8564  -52.7870 C.3       23 UNK        -0.0398 
    125 S125       -2.7463  -18.5754  -52.4014 S.3       23 UNK        -0.2404 
    126 C126       -3.4943  -18.8572  -50.7688 C.3       23 UNK        -0.0205 
    127 H127       -0.3639  -10.7361  -51.6266 H         1 UNK         0.0600 
    128 H128       -0.1176  -11.9175  -52.9156 H         1 UNK         0.0600 
    129 H129        1.2729  -11.1365  -52.1548 H         1 UNK         0.0600 
    130 H130       -0.8750  -11.6875  -49.6786 H         1 UNK         0.3000 
    131 H131       -0.5576  -14.4770  -49.1359 H         1 UNK         0.0600 
    132 H132       -1.3594  -13.7490  -46.7799 H         1 UNK         0.0800 
    133 H133       -1.4178  -12.1215  -47.3811 H         1 UNK         0.0800 
    134 H134       -3.4223  -14.9037  -46.4395 H         1 UNK         0.0800 
    135 H135       -4.6944  -15.1320  -47.6057 H         1 UNK         0.0800 
    136 H136       -4.4110  -16.5984  -49.5549 H         1 UNK         0.1150 
    137 H137       -1.1331  -19.3591  -49.5036 H         1 UNK         0.1150 
    138 H138       -1.2515  -16.1197  -46.7020 H         1 UNK         0.1150 
    139 H139        0.7211  -19.0145  -48.0804 H         1 UNK         0.0800 
    140 H140        0.9816  -17.4033  -47.4771 H         1 UNK         0.0800 
    141 H141        1.5321  -20.5412  -46.6885 H         1 UNK         0.0800 
    142 H142        1.6633  -20.4676  -44.9655 H         1 UNK         0.0800 
    143 H143        0.5710  -22.5418  -45.7255 H         1 UNK         0.0600 
    144 H144       -0.5133  -20.8736  -43.7298 H         1 UNK         0.3000 
    145 H145       -3.2211  -22.7537  -42.6666 H         1 UNK         0.0600 
    146 H146       -2.1052  -23.2160  -40.4969 H         1 UNK         0.0600 
    147 H147       -1.5397  -24.3484  -41.7136 H         1 UNK         0.0600 
    148 H148       -0.5178  -22.9977  -41.2355 H         1 UNK         0.0600 
    149 H149       -1.7432  -20.8450  -41.2118 H         1 UNK         0.3000 
    150 H150       -2.1625  -17.9427  -42.9484 H         1 UNK         0.0600 
    151 H151       -3.6960  -17.0091  -41.2335 H         1 UNK         0.0600 
    152 H152       -4.2026  -18.6336  -40.7655 H         1 UNK         0.0600 
    153 H153       -4.5894  -18.0107  -42.3651 H         1 UNK         0.0600 
    154 H154       -1.8312  -18.3749  -40.1429 H         1 UNK         0.3000 
    155 H155        0.3017  -17.9742  -39.3150 H         1 UNK         0.0600 
    156 H156       -0.2626  -20.4071  -39.0059 H         1 UNK         0.0600 
    157 H157        1.3643  -20.0844  -38.4304 H         1 UNK         0.0600 
    158 H158        1.1225  -20.8699  -39.9893 H         1 UNK         0.0600 
    159 H159        2.2218  -18.4869  -41.3975 H         1 UNK         0.3000 
    160 H160        3.9261  -16.8076  -41.3144 H         1 UNK         0.0600 
    161 H161        5.3408  -16.6029  -38.6033 H         1 UNK         0.0600 
    162 H162        4.4207  -15.3248  -39.3914 H         1 UNK         0.0600 
    163 H163        5.9154  -15.8987  -40.1099 H         1 UNK         0.0600 
    164 H164        5.2848  -18.9198  -39.7123 H         1 UNK         0.3000 
    165 H165        5.8688  -18.9414  -43.7932 H         1 UNK         0.0600 
    166 H166        3.0034  -18.1992  -43.0603 H         1 UNK         0.0600 
    167 H167        3.6417  -18.5882  -44.6491 H         1 UNK         0.0600 
    168 H168        3.5294  -19.8379  -43.4204 H         1 UNK         0.0600 
    169 H169        4.6935  -16.5032  -43.7820 H         1 UNK         0.3000 
    170 H170        7.1958  -14.3505  -42.5338 H         1 UNK         0.0600 
    171 H171        8.0975  -14.9477  -44.7704 H         1 UNK         0.0600 
    172 H172        6.4710  -14.9995  -45.4410 H         1 UNK         0.0600 
    173 H173        7.1428  -13.4757  -44.8623 H         1 UNK         0.0600 
    174 H174        4.5480  -14.4922  -43.9190 H         1 UNK         0.3000 
    175 H175        2.8794  -12.8989  -41.2821 H         1 UNK         0.0600 
    176 H176        3.7636  -11.3953  -43.8041 H         1 UNK         0.0600 
    177 H177        2.3458  -11.0227  -42.8227 H         1 UNK         0.0600 
    178 H178        3.9561  -10.8262  -42.1503 H         1 UNK         0.0600 
    179 H179        2.3511  -13.3677  -44.1180 H         1 UNK         0.3000 
    180 H180        1.3598  -16.6794  -43.7872 H         1 UNK         0.0600 
    181 H181       -0.7252  -14.4477  -43.9987 H         1 UNK         0.0600 
    182 H182       -0.7135  -15.6886  -42.7506 H         1 UNK         0.0600 
    183 H183       -0.9402  -16.1486  -44.4232 H         1 UNK         0.0600 
    184 H184        0.7607  -14.9557  -45.9061 H         1 UNK         0.3000 
    185 H185        3.5242  -14.0713  -47.3338 H         1 UNK         0.0600 
    186 H186        3.8271  -15.7882  -49.1244 H         1 UNK         0.0600 
    187 H187        4.6759  -16.2176  -47.6507 H         1 UNK         0.0600 
    188 H188        3.1722  -17.0278  -48.0561 H         1 UNK         0.0600 
    189 H189        1.2460  -15.4790  -48.5199 H         1 UNK         0.3000 
    190 H190       -2.4506  -20.6981  -45.6658 H         1 UNK         0.3000 
    191 H191       -2.9952  -20.8168  -48.4758 H         1 UNK         0.0600 
    192 H192       -5.2862  -20.1230  -47.7538 H         1 UNK         0.0600 
    193 H193       -4.0575  -19.1671  -46.9427 H         1 UNK         0.0600 
    194 H194       -4.8766  -20.4676  -46.0801 H         1 UNK         0.0600 
    195 H195       -3.5687  -23.0604  -45.8085 H         1 UNK         0.3000 
    196 H196       -5.2591  -24.8763  -47.3507 H         1 UNK         0.0600 
    197 H197       -5.0316  -26.3369  -45.3634 H         1 UNK         0.0600 
    198 H198       -5.4865  -24.7114  -44.8765 H         1 UNK         0.0600 
    199 H199       -3.8259  -25.2646  -44.6673 H         1 UNK         0.0600 
    200 H200       -1.8270  -24.6435  -46.3663 H         1 UNK         0.3000 
    201 H201       -0.9481  -27.0970  -47.4947 H         1 UNK         0.0600 
    202 H202        0.3136  -25.7914  -45.7707 H         1 UNK         0.0600 
    203 H203        0.6523  -24.5396  -46.9655 H         1 UNK         0.0600 
    204 H204        1.3117  -26.1549  -47.1716 H         1 UNK         0.0600 
    205 H205       -0.9758  -23.7613  -48.8566 H         1 UNK         0.3000 
    206 H206        0.1468  -24.4755  -51.3971 H         1 UNK         0.0600 
    207 H207        0.2422  -22.1710  -50.4583 H         1 UNK         0.0600 
    208 H208       -0.5689  -22.1613  -52.0165 H         1 UNK         0.0600 
    209 H209       -1.5148  -22.0421  -50.5388 H         1 UNK         0.0600 
    210 H210       -3.0661  -24.6546  -50.1084 H         1 UNK         0.3000 
    211 H211       -5.0781  -25.2325  -50.8145 H         1 UNK         0.0600 
    212 H212       -3.8295  -26.2032  -53.4447 H         1 UNK         0.0600 
    213 H213       -5.4482  -26.5495  -52.8648 H         1 UNK         0.0600 
    214 H214       -4.0566  -27.1762  -51.9930 H         1 UNK         0.0600 
    215 H215       -5.2409  -22.9430  -50.5955 H         1 UNK         0.3000 
    216 H216       -4.8781  -20.8975  -52.2077 H         1 UNK         0.0600 
    217 H217       -6.7856  -19.7865  -50.9690 H         1 UNK         0.0600 
    218 H218       -5.7628  -20.7434  -49.9154 H         1 UNK         0.0600 
    219 H219       -7.3270  -21.3674  -50.4260 H         1 UNK         0.0600 
    220 H220       -7.6539  -23.0472  -52.7394 H         1 UNK         0.3000 
    221 H221       -8.9830  -21.3503  -54.6591 H         1 UNK         0.0600 
    222 H222      -10.3701  -23.3883  -55.0494 H         1 UNK         0.0600 
    223 H223       -9.2607  -24.3480  -54.0775 H         1 UNK         0.0600 
    224 H224      -10.2027  -23.0552  -53.3332 H         1 UNK         0.0600 
    225 H225       -6.4283  -23.7871  -54.8812 H         1 UNK         0.3000 
    226 H226       -6.5808  -23.9515  -57.8397 H         1 UNK         0.0600 
    227 H227       -6.2556  -26.0608  -56.5591 H         1 UNK         0.0600 
    228 H228       -4.8453  -25.7011  -57.5438 H         1 UNK         0.0600 
    229 H229       -4.8005  -25.4062  -55.8102 H         1 UNK         0.0600 
    230 H230       -4.4929  -22.8168  -55.1734 H         1 UNK         0.3000 
    231 H231       -2.3794  -21.7671  -56.8069 H         1 UNK         0.0600 
    232 H232       -1.7048  -20.6673  -54.6388 H         1 UNK         0.0600 
    233 H233       -2.0296  -22.3820  -54.4548 H         1 UNK         0.0600 
    234 H234       -3.2186  -21.2014  -53.9155 H         1 UNK         0.0600 
    235 H235       -5.4955  -20.5374  -55.9841 H         1 UNK         0.3000 
    236 H236       -6.7215  -18.8603  -56.6361 H         1 UNK         0.0600 
    237 H237       -4.4382  -17.8049  -58.3788 H         1 UNK         0.0600 
    238 H238       -5.6095  -19.0257  -58.8790 H         1 UNK         0.0600 
    239 H239       -6.1401  -17.3945  -58.5052 H         1 UNK         0.0600 
    240 H240       -4.3072  -18.5450  -54.5429 H         1 UNK         0.3000 
    241 H241       -4.5791  -15.6924  -53.9540 H         1 UNK         0.0600 
    242 H242       -6.6543  -18.4026  -53.3371 H         1 UNK         0.3800 
    243 H243       -7.5367  -17.6095  -52.0544 H         1 UNK         0.3800 
    244 H244       -3.2087  -16.2467  -51.8829 H         1 UNK         0.0800 
    245 H245       -2.4457  -16.4504  -53.4198 H         1 UNK         0.0800 
    246 H246       -3.4130  -19.9199  -50.5418 H         1 UNK         0.0800 
    247 H247       -4.5605  -18.6382  -50.8131 H         1 UNK         0.0800 
@<TRIPOS>BOND
     1    1    2 1    
     2    1  127 1    
     3    1  128 1    
     4    1  129 1    
     5    2    3 2    
     6    2    4 am   BACKBONE|DICT|INTERRES
     7    4    5 1    
     8    4  130 1    
     9    5    6 1    
    10    5   65 1    
    11    5  131 1    
    12    6    7 1    
    13    6  132 1    
    14    6  133 1    
    15    7    8 1    
    16    8    9 1    
    17    8  134 1    
    18    8  135 1    
    19    9   10 ar   
    20    9   14 ar   
    21   10   11 ar   
    22   10  136 1    
    23   11   12 ar   
    24   11  126 1    
    25   12   13 ar   
    26   12  137 1    
    27   13   14 ar   
    28   13   15 1    
    29   14  138 1    
    30   15   16 1    
    31   15  139 1    
    32   15  140 1    
    33   16   17 1    
    34   17   18 1    
    35   17  141 1    
    36   17  142 1    
    37   18   19 1    
    38   18   67 1    
    39   18  143 1    
    40   19   20 am   BACKBONE|DICT|INTERRES
    41   19  144 1    
    42   20   21 2    
    43   20   22 1    
    44   22   23 1    
    45   22   24 1    
    46   22  145 1    
    47   23  146 1    
    48   23  147 1    
    49   23  148 1    
    50   24   25 am   BACKBONE|DICT|INTERRES
    51   24  149 1    
    52   25   26 2    
    53   25   27 1    
    54   27   28 1    
    55   27   29 1    
    56   27  150 1    
    57   28  151 1    
    58   28  152 1    
    59   28  153 1    
    60   29   30 am   BACKBONE|DICT|INTERRES
    61   29  154 1    
    62   30   31 2    
    63   30   32 1    
    64   32   33 1    
    65   32   34 1    
    66   32  155 1    
    67   33  156 1    
    68   33  157 1    
    69   33  158 1    
    70   34   35 am   BACKBONE|DICT|INTERRES
    71   34  159 1    
    72   35   36 2    
    73   35   37 1    
    74   37   38 1    
    75   37   39 1    
    76   37  160 1    
    77   38  161 1    
    78   38  162 1    
    79   38  163 1    
    80   39   40 am   BACKBONE|DICT|INTERRES
    81   39  164 1    
    82   40   41 2    
    83   40   42 1    
    84   42   43 1    
    85   42   44 1    
    86   42  165 1    
    87   43  166 1    
    88   43  167 1    
    89   43  168 1    
    90   44   45 am   BACKBONE|DICT|INTERRES
    91   44  169 1    
    92   45   46 2    
    93   45   47 1    
    94   47   48 1    
    95   47   49 1    
    96   47  170 1    
    97   48  171 1    
    98   48  172 1    
    99   48  173 1    
   100   49   50 am   BACKBONE|DICT|INTERRES
   101   49  174 1    
   102   50   51 2    
   103   50   52 1    
   104   52   53 1    
   105   52   54 1    
   106   52  175 1    
   107   53  176 1    
   108   53  177 1    
   109   53  178 1    
   110   54   55 am   BACKBONE|DICT|INTERRES
   111   54  179 1    
   112   55   56 2    
   113   55   57 1    
   114   57   58 1    
   115   57   59 1    
   116   57  180 1    
   117   58  181 1    
   118   58  182 1    
   119   58  183 1    
   120   59   60 am   BACKBONE|DICT|INTERRES
   121   59  184 1    
   122   60   61 2    
   123   60   62 1    
   124   62   63 1    
   125   62   64 1    
   126   62  185 1    
   127   63  186 1    
   128   63  187 1    
   129   63  188 1    
   130   64   65 am   BACKBONE|DICT|INTERRES
   131   64  189 1    
   132   65   66 2    
   133   67   68 2    
   134   67   69 am   BACKBONE|DICT|INTERRES
   135   69   70 1    
   136   69  190 1    
   137   70   71 1    
   138   70   72 1    
   139   70  191 1    
   140   71  192 1    
   141   71  193 1    
   142   71  194 1    
   143   72   73 2    
   144   72   74 am   BACKBONE|DICT|INTERRES
   145   74   75 1    
   146   74  195 1    
   147   75   76 1    
   148   75   77 1    
   149   75  196 1    
   150   76  197 1    
   151   76  198 1    
   152   76  199 1    
   153   77   78 2    
   154   77   79 am   BACKBONE|DICT|INTERRES
   155   79   80 1    
   156   79  200 1    
   157   80   81 1    
   158   80   82 1    
   159   80  201 1    
   160   81  202 1    
   161   81  203 1    
   162   81  204 1    
   163   82   83 2    
   164   82   84 am   BACKBONE|DICT|INTERRES
   165   84   85 1    
   166   84  205 1    
   167   85   86 1    
   168   85   87 1    
   169   85  206 1    
   170   86  207 1    
   171   86  208 1    
   172   86  209 1    
   173   87   88 2    
   174   87   89 am   BACKBONE|DICT|INTERRES
   175   89   90 1    
   176   89  210 1    
   177   90   91 1    
   178   90   92 1    
   179   90  211 1    
   180   91  212 1    
   181   91  213 1    
   182   91  214 1    
   183   92   93 2    
   184   92   94 am   BACKBONE|DICT|INTERRES
   185   94   95 1    
   186   94  215 1    
   187   95   96 1    
   188   95   97 1    
   189   95  216 1    
   190   96  217 1    
   191   96  218 1    
   192   96  219 1    
   193   97   98 2    
   194   97   99 am   BACKBONE|DICT|INTERRES
   195   99  100 1    
   196   99  220 1    
   197  100  101 1    
   198  100  102 1    
   199  100  221 1    
   200  101  222 1    
   201  101  223 1    
   202  101  224 1    
   203  102  103 2    
   204  102  104 am   BACKBONE|DICT|INTERRES
   205  104  105 1    
   206  104  225 1    
   207  105  106 1    
   208  105  107 1    
   209  105  226 1    
   210  106  227 1    
   211  106  228 1    
   212  106  229 1    
   213  107  108 2    
   214  107  109 am   BACKBONE|DICT|INTERRES
   215  109  110 1    
   216  109  230 1    
   217  110  111 1    
   218  110  112 1    
   219  110  231 1    
   220  111  232 1    
   221  111  233 1    
   222  111  234 1    
   223  112  113 2    
   224  112  114 am   BACKBONE|DICT|INTERRES
   225  114  115 1    
   226  114  235 1    
   227  115  116 1    
   228  115  117 1    
   229  115  236 1    
   230  116  237 1    
   231  116  238 1    
   232  116  239 1    
   233  117  118 2    
   234  117  119 am   BACKBONE|DICT|INTERRES
   235  119  120 1    
   236  119  240 1    
   237  120  121 1    
   238  120  124 1    
   239  120  241 1    
   240  121  122 am   BACKBONE|DICT|INTERRES
   241  121  123 2    
   242  122  242 1    
   243  122  243 1    
   244  124  125 1    
   245  124  244 1    
   246  124  245 1    
   247  125  126 1    
   248  126  246 1    
   249  126  247 1    
@<TRIPOS>SUBSTRUCTURE
     1 UNK         1 GROUP             0       ****    0 ROOT    
