@<TRIPOS>MOLECULE
3R540
247   249    1
SMALL
USER_CHARGES


@<TRIPOS>ATOM
      1 CA         -1.4605  -11.8477  -43.3405 C.3       0 UNK        -0.1800 
      2 C          -1.4304  -11.6124  -44.8451 C.2       0 UNK         0.5000 
      3 O          -1.3410  -10.4659  -45.2869 O.2       0 UNK        -0.5000 
      4 N          -1.5188  -12.6900  -45.6357 N.am      1 UNK        -0.5000 
      5 CA         -1.4632  -12.6792  -47.0996 C.3       1 UNK         0.1400 
      6 C6         -2.1460  -13.9357  -47.7044 C.3       23 UNK        -0.0398 
      7 S7         -2.7711  -13.6215  -49.3893 S.3       23 UNK        -0.2404 
      8 C8         -1.6471  -14.6296  -50.4151 C.3       23 UNK        -0.0205 
      9 C9         -1.9068  -16.1316  -50.3296 C.ar      23 UNK        -0.0193 
     10 C10        -3.2093  -16.6441  -50.3821 C.ar      23 UNK        -0.1150 
     11 C11        -3.4370  -18.0225  -50.3421 C.ar      23 UNK        -0.0193 
     12 C12        -2.3480  -18.8915  -50.2482 C.ar      23 UNK        -0.1150 
     13 C13        -1.0408  -18.4007  -50.2325 C.ar      23 UNK        -0.0193 
     14 C14        -0.8268  -17.0191  -50.2649 C.ar      23 UNK        -0.1150 
     15 C15         0.1248  -19.3807  -50.2620 C.3       23 UNK        -0.0205 
     16 S16         1.3376  -19.1477  -48.9264 S.3       23 UNK        -0.2404 
     17 C17         0.3090  -19.2929  -47.4327 C.3       23 UNK        -0.0398 
     18 CA         -0.0726  -20.7556  -47.0677 C.3       11 UNK         0.1400 
     19 N           0.1878  -21.0510  -45.6553 N.am      11 UNK        -0.5000 
     20 C           0.0243  -22.2386  -45.0564 C.2       10 UNK         0.5000 
     21 O          -0.3007  -23.2663  -45.6504 O.2       10 UNK        -0.5000 
     22 CA          0.1918  -22.2654  -43.5244 C.3       10 UNK         0.1400 
     23 CB          1.6676  -22.4170  -43.1269 C.3       10 UNK        -0.1800 
     24 N          -0.3768  -21.0762  -42.8843 N.am      10 UNK        -0.5000 
     25 C          -1.6875  -20.7915  -42.8649 C.2       9 UNK         0.5000 
     26 O          -2.5521  -21.5359  -43.3250 O.2       9 UNK        -0.5000 
     27 CA         -2.1006  -19.4262  -42.2863 C.3       9 UNK         0.1400 
     28 CB         -2.1630  -19.4792  -40.7528 C.3       9 UNK        -0.1800 
     29 N          -1.2147  -18.3417  -42.7119 N.am      9 UNK        -0.5000 
     30 C          -1.0559  -17.9476  -43.9839 C.2       8 UNK         0.5000 
     31 O          -1.6893  -18.4168  -44.9279 O.2       8 UNK        -0.5000 
     32 CA          0.0293  -16.8933  -44.2620 C.3       8 UNK         0.1400 
     33 CB         -0.5105  -15.4793  -44.0181 C.3       8 UNK        -0.1800 
     34 N           1.2370  -17.1013  -43.4664 N.am      8 UNK        -0.5000 
     35 C           2.0233  -18.1841  -43.5201 C.2       7 UNK         0.5000 
     36 O           1.8353  -19.1266  -44.2865 O.2       7 UNK        -0.5000 
     37 CA          3.1776  -18.2498  -42.5081 C.3       7 UNK         0.1400 
     38 CB          4.3837  -17.4267  -42.9828 C.3       7 UNK        -0.1800 
     39 N           2.7571  -17.7861  -41.1874 N.am      7 UNK        -0.5000 
     40 C           1.9720  -18.4842  -40.3569 C.2       6 UNK         0.5000 
     41 O           1.5548  -19.6169  -40.6020 O.2       6 UNK        -0.5000 
     42 CA          1.5659  -17.7856  -39.0449 C.3       6 UNK         0.1400 
     43 CB          2.6525  -17.9711  -37.9753 C.3       6 UNK        -0.1800 
     44 N           1.2958  -16.3555  -39.2177 N.am      6 UNK        -0.5000 
     45 C           0.2460  -15.8678  -39.8927 C.2       5 UNK         0.5000 
     46 O          -0.6012  -16.5749  -40.4371 O.2       5 UNK        -0.5000 
     47 CA          0.1438  -14.3344  -40.0199 C.3       5 UNK         0.1400 
     48 CB         -0.4980  -13.7320  -38.7612 C.3       5 UNK        -0.1800 
     49 N           1.4064  -13.6387  -40.3016 N.am      5 UNK        -0.5000 
     50 C           2.2495  -13.9350  -41.2995 C.2       4 UNK         0.5000 
     51 O           2.1496  -14.9424  -41.9999 O.2       4 UNK        -0.5000 
     52 CA          3.4144  -12.9578  -41.5499 C.3       4 UNK         0.1400 
     53 CB          4.5988  -13.3000  -40.6334 C.3       4 UNK        -0.1800 
     54 N           3.8680  -13.0049  -42.9439 N.am      4 UNK        -0.5000 
     55 C           3.1116  -12.6848  -44.0030 C.2       3 UNK         0.5000 
     56 O           1.9893  -12.1798  -43.9110 O.2       3 UNK        -0.5000 
     57 CA          3.7021  -13.0290  -45.3858 C.3       3 UNK         0.1400 
     58 CB          3.7484  -14.5528  -45.5913 C.3       3 UNK        -0.1800 
     59 N           2.9067  -12.4529  -46.4658 N.am      3 UNK        -0.5000 
     60 C           2.8957  -11.1683  -46.8324 C.2       2 UNK         0.5000 
     61 O           3.6760  -10.3250  -46.3876 O.2       2 UNK        -0.5000 
     62 CA          1.8179  -10.7446  -47.8513 C.3       2 UNK         0.1400 
     63 CB          2.2356  -11.0935  -49.2929 C.3       2 UNK        -0.1800 
     64 N           0.4691  -11.2421  -47.5401 N.am      2 UNK        -0.5000 
     65 C          -0.0022  -12.4972  -47.5637 C.2       1 UNK         0.5000 
     66 O           0.6768  -13.4802  -47.8662 O.2       1 UNK        -0.5000 
     67 C          -1.5389  -21.0583  -47.4430 C.2       11 UNK         0.5000 
     68 O          -1.7918  -21.7802  -48.4071 O.2       11 UNK        -0.5000 
     69 N          -2.4764  -20.5319  -46.6440 N.am      12 UNK        -0.5000 
     70 CA         -3.9161  -20.7278  -46.8006 C.3       12 UNK         0.1400 
     71 CB         -4.6634  -19.7686  -45.8633 C.3       12 UNK        -0.1800 
     72 C          -4.3665  -22.1819  -46.5722 C.2       12 UNK         0.5000 
     73 O          -5.3058  -22.6257  -47.2310 O.2       12 UNK        -0.5000 
     74 N          -3.6885  -22.9021  -45.6673 N.am      13 UNK        -0.5000 
     75 CA         -3.8984  -24.3302  -45.4258 C.3       13 UNK         0.1400 
     76 CB         -3.2032  -24.7460  -44.1206 C.3       13 UNK        -0.1800 
     77 C          -3.4228  -25.2007  -46.6042 C.2       13 UNK         0.5000 
     78 O          -4.0964  -26.1738  -46.9453 O.2       13 UNK        -0.5000 
     79 N          -2.2878  -24.8289  -47.2147 N.am      14 UNK        -0.5000 
     80 CA         -1.7591  -25.4497  -48.4307 C.3       14 UNK         0.1400 
     81 CB         -0.3085  -24.9957  -48.6501 C.3       14 UNK        -0.1800 
     82 C          -2.6287  -25.1504  -49.6666 C.2       14 UNK         0.5000 
     83 O          -2.8394  -26.0438  -50.4885 O.2       14 UNK        -0.5000 
     84 N          -3.1382  -23.9125  -49.7560 N.am      15 UNK        -0.5000 
     85 CA         -4.0755  -23.4085  -50.7621 C.3       15 UNK         0.1400 
     86 CB         -5.4741  -24.0271  -50.5374 C.3       15 UNK        -0.1800 
     87 C          -3.5261  -23.6030  -52.1890 C.2       15 UNK         0.5000 
     88 O          -2.4778  -23.0429  -52.5083 O.2       15 UNK        -0.5000 
     89 N          -4.1959  -24.4349  -52.9970 N.am      16 UNK        -0.5000 
     90 CA         -3.8313  -24.8026  -54.3675 C.3       16 UNK         0.1400 
     91 CB         -4.9315  -25.7170  -54.9297 C.3       16 UNK        -0.1800 
     92 C          -2.4513  -25.4806  -54.5201 C.2       16 UNK         0.5000 
     93 O          -1.9362  -25.5424  -55.6367 O.2       16 UNK        -0.5000 
     94 N          -1.8749  -25.9880  -53.4205 N.am      17 UNK        -0.5000 
     95 CA         -0.5237  -26.5496  -53.3952 C.3       17 UNK         0.1400 
     96 CB         -0.4118  -27.5442  -52.2291 C.3       17 UNK        -0.1800 
     97 C           0.5775  -25.4734  -53.2951 C.2       17 UNK         0.5000 
     98 O           1.7364  -25.7909  -53.5666 O.2       17 UNK        -0.5000 
     99 N           0.2203  -24.2438  -52.8958 N.am      18 UNK        -0.5000 
    100 CA         1.1535  -23.1363  -52.6728 C.3       18 UNK         0.1400 
    101 CB         1.1384  -22.7717  -51.1807 C.3       18 UNK        -0.1800 
    102 C          0.8333  -21.9067  -53.5411 C.2       18 UNK         0.5000 
    103 O          1.7612  -21.2359  -53.9954 O.2       18 UNK        -0.5000 
    104 N         -0.4558  -21.6333  -53.7628 N.am      19 UNK        -0.5000 
    105 CA        -0.9781  -20.5521  -54.5947 C.3       19 UNK         0.1400 
    106 CB        -1.7551  -19.5789  -53.6939 C.3       19 UNK        -0.1800 
    107 C         -1.8526  -21.1290  -55.7235 C.2       19 UNK         0.5000 
    108 O         -1.8332  -22.3371  -55.9638 O.2       19 UNK        -0.5000 
    109 N         -2.5750  -20.2497  -56.4309 N.am      20 UNK        -0.5000 
    110 CA        -3.3658  -20.5789  -57.6188 C.3       20 UNK         0.1400 
    111 CB        -3.8625  -19.2797  -58.2723 C.3       20 UNK        -0.1800 
    112 C         -4.5444  -21.5346  -57.3539 C.2       20 UNK         0.5000 
    113 O         -4.7615  -22.4487  -58.1505 O.2       20 UNK        -0.5000 
    114 N         -5.2780  -21.3121  -56.2546 N.am      21 UNK        -0.5000 
    115 CA        -6.4399  -22.1124  -55.8615 C.3       21 UNK         0.1400 
    116 CB        -7.6135  -21.9327  -56.8481 C.3       21 UNK        -0.1800 
    117 C         -6.8947  -21.7731  -54.4372 C.2       21 UNK         0.5000 
    118 O         -7.0811  -22.6837  -53.6315 O.2       21 UNK        -0.5000 
    119 N         -7.0827  -20.4723  -54.1686 N.am      22 UNK        -0.5000 
    120 CA        -7.6325  -19.9116  -52.9147 C.3       22 UNK         0.1400 
    121 C         -9.1513  -20.1944  -52.6889 C.2       22 UNK         0.5000 
    122 N         -9.9046  -20.6213  -53.6954 N.am      22 UNK        -0.7600 
    123 O         -9.6698  -19.9927  -51.5940 O.2       22 UNK        -0.5000 
    124 C124       -6.7822  -20.2367  -51.6532 C.3       23 UNK        -0.0398 
    125 S125       -5.0475  -19.7120  -51.8330 S.3       23 UNK        -0.2404 
    126 C126       -4.8524  -18.5781  -50.4208 C.3       23 UNK        -0.0205 
    127 H127       -1.6471  -12.8930  -43.0952 H         1 UNK         0.0600 
    128 H128       -2.2464  -11.2475  -42.8820 H         1 UNK         0.0600 
    129 H129       -0.5076  -11.5595  -42.8964 H         1 UNK         0.0600 
    130 H130       -1.5644  -13.6028  -45.2092 H         1 UNK         0.3000 
    131 H131       -2.0274  -11.8061  -47.4364 H         1 UNK         0.0600 
    132 H132       -3.0178  -14.2043  -47.1062 H         1 UNK         0.0800 
    133 H133       -1.4996  -14.8153  -47.6840 H         1 UNK         0.0800 
    134 H134       -0.6163  -14.3983  -50.1422 H         1 UNK         0.0800 
    135 H135       -1.7637  -14.3245  -51.4556 H         1 UNK         0.0800 
    136 H136       -4.0478  -15.9672  -50.4651 H         1 UNK         0.1150 
    137 H137       -2.5228  -19.9584  -50.2378 H         1 UNK         0.1150 
    138 H138        0.1849  -16.6381  -50.2621 H         1 UNK         0.1150 
    139 H139       -0.2438  -20.4045  -50.2191 H         1 UNK         0.0800 
    140 H140        0.6400  -19.2842  -51.2184 H         1 UNK         0.0800 
    141 H141        0.9109  -18.8523  -46.6406 H         1 UNK         0.0800 
    142 H142       -0.5570  -18.6330  -47.5148 H         1 UNK         0.0800 
    143 H143        0.5544  -21.4433  -47.6392 H         1 UNK         0.0600 
    144 H144        0.5295  -20.2795  -45.0894 H         1 UNK         0.3000 
    145 H145       -0.3468  -23.1372  -43.1477 H         1 UNK         0.0600 
    146 H146        1.7796  -22.4754  -42.0440 H         1 UNK         0.0600 
    147 H147        2.0908  -23.3296  -43.5482 H         1 UNK         0.0600 
    148 H148        2.2736  -21.5831  -43.4799 H         1 UNK         0.0600 
    149 H149        0.2742  -20.4165  -42.4786 H         1 UNK         0.3000 
    150 H150       -3.1026  -19.2008  -42.6573 H         1 UNK         0.0600 
    151 H151       -2.8171  -20.2842  -40.4156 H         1 UNK         0.0600 
    152 H152       -2.5564  -18.5489  -40.3431 H         1 UNK         0.0600 
    153 H153       -1.1795  -19.6484  -40.3140 H         1 UNK         0.0600 
    154 H154       -0.7084  -17.8540  -41.9797 H         1 UNK         0.3000 
    155 H155        0.3075  -16.9684  -45.3144 H         1 UNK         0.0600 
    156 H156        0.2242  -14.7236  -44.2993 H         1 UNK         0.0600 
    157 H157       -0.7661  -15.3244  -42.9702 H         1 UNK         0.0600 
    158 H158       -1.4124  -15.3079  -44.6057 H         1 UNK         0.0600 
    159 H159        1.4981  -16.3488  -42.8299 H         1 UNK         0.3000 
    160 H160        3.4911  -19.2931  -42.4292 H         1 UNK         0.0600 
    161 H161        4.1609  -16.3606  -43.0037 H         1 UNK         0.0600 
    162 H162        4.6888  -17.7210  -43.9879 H         1 UNK         0.0600 
    163 H163        5.2410  -17.5737  -42.3259 H         1 UNK         0.0600 
    164 H164        2.9798  -16.8289  -40.9533 H         1 UNK         0.3000 
    165 H165        0.6516  -18.2636  -38.6863 H         1 UNK         0.0600 
    166 H166        3.5887  -17.4911  -38.2631 H         1 UNK         0.0600 
    167 H167        2.3398  -17.5516  -37.0189 H         1 UNK         0.0600 
    168 H168        2.8624  -19.0290  -37.8119 H         1 UNK         0.0600 
    169 H169        1.9546  -15.7077  -38.8114 H         1 UNK         0.3000 
    170 H170       -0.5211  -14.1292  -40.8609 H         1 UNK         0.0600 
    171 H171       -1.4486  -14.2173  -38.5357 H         1 UNK         0.0600 
    172 H172        0.1448  -13.8463  -37.8875 H         1 UNK         0.0600 
    173 H173       -0.7019  -12.6691  -38.8920 H         1 UNK         0.0600 
    174 H174        1.5819  -12.8078  -39.7554 H         1 UNK         0.3000 
    175 H175        3.0744  -11.9430  -41.3341 H         1 UNK         0.0600 
    176 H176        5.4239  -12.6022  -40.7775 H         1 UNK         0.0600 
    177 H177        4.3111  -13.2468  -39.5826 H         1 UNK         0.0600 
    178 H178        4.9741  -14.3073  -40.8202 H         1 UNK         0.0600 
    179 H179        4.7655  -13.4374  -43.1028 H         1 UNK         0.3000 
    180 H180        4.7166  -12.6296  -45.4431 H         1 UNK         0.0600 
    181 H181        4.0790  -14.8075  -46.5984 H         1 UNK         0.0600 
    182 H182        4.4482  -15.0197  -44.8992 H         1 UNK         0.0600 
    183 H183        2.7707  -15.0115  -45.4338 H         1 UNK         0.0600 
    184 H184        2.1971  -13.0517  -46.8790 H         1 UNK         0.3000 
    185 H185        1.7455   -9.6575  -47.7908 H         1 UNK         0.0600 
    186 H186        1.4963  -10.7433  -50.0132 H         1 UNK         0.0600 
    187 H187        3.1852  -10.6203  -49.5452 H         1 UNK         0.0600 
    188 H188        2.3616  -12.1669  -49.4361 H         1 UNK         0.0600 
    189 H189       -0.1539  -10.5432  -47.1515 H         1 UNK         0.3000 
    190 H190       -2.1844  -19.9086  -45.8939 H         1 UNK         0.3000 
    191 H191       -4.1715  -20.4683  -47.8290 H         1 UNK         0.0600 
    192 H192       -5.7432  -19.8708  -45.9779 H         1 UNK         0.0600 
    193 H193       -4.4091  -18.7305  -46.0788 H         1 UNK         0.0600 
    194 H194       -4.4223  -19.9618  -44.8174 H         1 UNK         0.0600 
    195 H195       -2.9874  -22.4389  -45.0993 H         1 UNK         0.3000 
    196 H196       -4.9706  -24.4967  -45.3017 H         1 UNK         0.0600 
    197 H197       -3.3805  -25.8000  -43.9038 H         1 UNK         0.0600 
    198 H198       -3.5791  -24.1721  -43.2735 H         1 UNK         0.0600 
    199 H199       -2.1247  -24.5996  -44.1722 H         1 UNK         0.0600 
    200 H200       -1.7595  -24.0510  -46.8329 H         1 UNK         0.3000 
    201 H201       -1.7542  -26.5320  -48.2857 H         1 UNK         0.0600 
    202 H202        0.3287  -25.3060  -47.8219 H         1 UNK         0.0600 
    203 H203       -0.2340  -23.9122  -48.7354 H         1 UNK         0.0600 
    204 H204        0.1067  -25.4276  -49.5610 H         1 UNK         0.0600 
    205 H205       -2.8037  -23.2195  -49.0910 H         1 UNK         0.3000 
    206 H206       -4.1528  -22.3327  -50.6023 H         1 UNK         0.0600 
    207 H207       -5.8502  -23.7862  -49.5441 H         1 UNK         0.0600 
    208 H208       -6.2001  -23.6399  -51.2520 H         1 UNK         0.0600 
    209 H209       -5.4655  -25.1140  -50.6255 H         1 UNK         0.0600 
    210 H210       -5.0345  -24.8639  -52.6339 H         1 UNK         0.3000 
    211 H211       -3.8112  -23.8837  -54.9558 H         1 UNK         0.0600 
    212 H212       -4.9604  -26.6743  -54.4076 H         1 UNK         0.0600 
    213 H213       -4.7635  -25.9242  -55.9874 H         1 UNK         0.0600 
    214 H214       -5.9174  -25.2613  -54.8404 H         1 UNK         0.0600 
    215 H215       -2.3614  -25.9297  -52.5317 H         1 UNK         0.3000 
    216 H216       -0.3544  -27.1056  -54.3197 H         1 UNK         0.0600 
    217 H217        0.5522  -28.0543  -52.2439 H         1 UNK         0.0600 
    218 H218       -1.1854  -28.3101  -52.2857 H         1 UNK         0.0600 
    219 H219       -0.5009  -27.0475  -51.2637 H         1 UNK         0.0600 
    220 H220       -0.7613  -24.0473  -52.7330 H         1 UNK         0.3000 
    221 H221        2.1722  -23.4348  -52.9280 H         1 UNK         0.0600 
    222 H222        0.1242  -22.5839  -50.8271 H         1 UNK         0.0600 
    223 H223        1.5564  -23.5790  -50.5800 H         1 UNK         0.0600 
    224 H224        1.7358  -21.8808  -50.9827 H         1 UNK         0.0600 
    225 H225       -1.1705  -22.2388  -53.3627 H         1 UNK         0.3000 
    226 H226       -0.1638  -20.0068  -55.0752 H         1 UNK         0.0600 
    227 H227       -1.0941  -19.1318  -52.9543 H         1 UNK         0.0600 
    228 H228       -2.1992  -18.7553  -54.2527 H         1 UNK         0.0600 
    229 H229       -2.5534  -20.0928  -53.1608 H         1 UNK         0.0600 
    230 H230       -2.5346  -19.2735  -56.1773 H         1 UNK         0.3000 
    231 H231       -2.6991  -21.0752  -58.3273 H         1 UNK         0.0600 
    232 H232       -4.4415  -19.4917  -59.1722 H         1 UNK         0.0600 
    233 H233       -3.0288  -18.6424  -58.5677 H         1 UNK         0.0600 
    234 H234       -4.5013  -18.7072  -57.5987 H         1 UNK         0.0600 
    235 H235       -4.9948  -20.5816  -55.6164 H         1 UNK         0.3000 
    236 H236       -6.1443  -23.1622  -55.8683 H         1 UNK         0.0600 
    237 H237       -7.8757  -20.8822  -56.9772 H         1 UNK         0.0600 
    238 H238       -7.3802  -22.3394  -57.8316 H         1 UNK         0.0600 
    239 H239       -8.5044  -22.4546  -56.4961 H         1 UNK         0.0600 
    240 H240       -6.9352  -19.8008  -54.9077 H         1 UNK         0.3000 
    241 H241       -7.5866  -18.8303  -53.0488 H         1 UNK         0.0600 
    242 H242      -10.8866  -20.7893  -53.5409 H         1 UNK         0.3800 
    243 H243       -9.5078  -20.7760  -54.6074 H         1 UNK         0.3800 
    244 H244       -6.8027  -21.3038  -51.4338 H         1 UNK         0.0800 
    245 H245       -7.2038  -19.7468  -50.7742 H         1 UNK         0.0800 
    246 H246       -5.0834  -19.1044  -49.4949 H         1 UNK         0.0800 
    247 H247       -5.5795  -17.7698  -50.5121 H         1 UNK         0.0800 
@<TRIPOS>BOND
     1    1    2 1    
     2    1  127 1    
     3    1  128 1    
     4    1  129 1    
     5    2    3 2    
     6    2    4 am   BACKBONE|DICT|INTERRES
     7    4    5 1    
     8    4  130 1    
     9    5    6 1    
    10    5   65 1    
    11    5  131 1    
    12    6    7 1    
    13    6  132 1    
    14    6  133 1    
    15    7    8 1    
    16    8    9 1    
    17    8  134 1    
    18    8  135 1    
    19    9   10 ar   
    20    9   14 ar   
    21   10   11 ar   
    22   10  136 1    
    23   11   12 ar   
    24   11  126 1    
    25   12   13 ar   
    26   12  137 1    
    27   13   14 ar   
    28   13   15 1    
    29   14  138 1    
    30   15   16 1    
    31   15  139 1    
    32   15  140 1    
    33   16   17 1    
    34   17   18 1    
    35   17  141 1    
    36   17  142 1    
    37   18   19 1    
    38   18   67 1    
    39   18  143 1    
    40   19   20 am   BACKBONE|DICT|INTERRES
    41   19  144 1    
    42   20   21 2    
    43   20   22 1    
    44   22   23 1    
    45   22   24 1    
    46   22  145 1    
    47   23  146 1    
    48   23  147 1    
    49   23  148 1    
    50   24   25 am   BACKBONE|DICT|INTERRES
    51   24  149 1    
    52   25   26 2    
    53   25   27 1    
    54   27   28 1    
    55   27   29 1    
    56   27  150 1    
    57   28  151 1    
    58   28  152 1    
    59   28  153 1    
    60   29   30 am   BACKBONE|DICT|INTERRES
    61   29  154 1    
    62   30   31 2    
    63   30   32 1    
    64   32   33 1    
    65   32   34 1    
    66   32  155 1    
    67   33  156 1    
    68   33  157 1    
    69   33  158 1    
    70   34   35 am   BACKBONE|DICT|INTERRES
    71   34  159 1    
    72   35   36 2    
    73   35   37 1    
    74   37   38 1    
    75   37   39 1    
    76   37  160 1    
    77   38  161 1    
    78   38  162 1    
    79   38  163 1    
    80   39   40 am   BACKBONE|DICT|INTERRES
    81   39  164 1    
    82   40   41 2    
    83   40   42 1    
    84   42   43 1    
    85   42   44 1    
    86   42  165 1    
    87   43  166 1    
    88   43  167 1    
    89   43  168 1    
    90   44   45 am   BACKBONE|DICT|INTERRES
    91   44  169 1    
    92   45   46 2    
    93   45   47 1    
    94   47   48 1    
    95   47   49 1    
    96   47  170 1    
    97   48  171 1    
    98   48  172 1    
    99   48  173 1    
   100   49   50 am   BACKBONE|DICT|INTERRES
   101   49  174 1    
   102   50   51 2    
   103   50   52 1    
   104   52   53 1    
   105   52   54 1    
   106   52  175 1    
   107   53  176 1    
   108   53  177 1    
   109   53  178 1    
   110   54   55 am   BACKBONE|DICT|INTERRES
   111   54  179 1    
   112   55   56 2    
   113   55   57 1    
   114   57   58 1    
   115   57   59 1    
   116   57  180 1    
   117   58  181 1    
   118   58  182 1    
   119   58  183 1    
   120   59   60 am   BACKBONE|DICT|INTERRES
   121   59  184 1    
   122   60   61 2    
   123   60   62 1    
   124   62   63 1    
   125   62   64 1    
   126   62  185 1    
   127   63  186 1    
   128   63  187 1    
   129   63  188 1    
   130   64   65 am   BACKBONE|DICT|INTERRES
   131   64  189 1    
   132   65   66 2    
   133   67   68 2    
   134   67   69 am   BACKBONE|DICT|INTERRES
   135   69   70 1    
   136   69  190 1    
   137   70   71 1    
   138   70   72 1    
   139   70  191 1    
   140   71  192 1    
   141   71  193 1    
   142   71  194 1    
   143   72   73 2    
   144   72   74 am   BACKBONE|DICT|INTERRES
   145   74   75 1    
   146   74  195 1    
   147   75   76 1    
   148   75   77 1    
   149   75  196 1    
   150   76  197 1    
   151   76  198 1    
   152   76  199 1    
   153   77   78 2    
   154   77   79 am   BACKBONE|DICT|INTERRES
   155   79   80 1    
   156   79  200 1    
   157   80   81 1    
   158   80   82 1    
   159   80  201 1    
   160   81  202 1    
   161   81  203 1    
   162   81  204 1    
   163   82   83 2    
   164   82   84 am   BACKBONE|DICT|INTERRES
   165   84   85 1    
   166   84  205 1    
   167   85   86 1    
   168   85   87 1    
   169   85  206 1    
   170   86  207 1    
   171   86  208 1    
   172   86  209 1    
   173   87   88 2    
   174   87   89 am   BACKBONE|DICT|INTERRES
   175   89   90 1    
   176   89  210 1    
   177   90   91 1    
   178   90   92 1    
   179   90  211 1    
   180   91  212 1    
   181   91  213 1    
   182   91  214 1    
   183   92   93 2    
   184   92   94 am   BACKBONE|DICT|INTERRES
   185   94   95 1    
   186   94  215 1    
   187   95   96 1    
   188   95   97 1    
   189   95  216 1    
   190   96  217 1    
   191   96  218 1    
   192   96  219 1    
   193   97   98 2    
   194   97   99 am   BACKBONE|DICT|INTERRES
   195   99  100 1    
   196   99  220 1    
   197  100  101 1    
   198  100  102 1    
   199  100  221 1    
   200  101  222 1    
   201  101  223 1    
   202  101  224 1    
   203  102  103 2    
   204  102  104 am   BACKBONE|DICT|INTERRES
   205  104  105 1    
   206  104  225 1    
   207  105  106 1    
   208  105  107 1    
   209  105  226 1    
   210  106  227 1    
   211  106  228 1    
   212  106  229 1    
   213  107  108 2    
   214  107  109 am   BACKBONE|DICT|INTERRES
   215  109  110 1    
   216  109  230 1    
   217  110  111 1    
   218  110  112 1    
   219  110  231 1    
   220  111  232 1    
   221  111  233 1    
   222  111  234 1    
   223  112  113 2    
   224  112  114 am   BACKBONE|DICT|INTERRES
   225  114  115 1    
   226  114  235 1    
   227  115  116 1    
   228  115  117 1    
   229  115  236 1    
   230  116  237 1    
   231  116  238 1    
   232  116  239 1    
   233  117  118 2    
   234  117  119 am   BACKBONE|DICT|INTERRES
   235  119  120 1    
   236  119  240 1    
   237  120  121 1    
   238  120  124 1    
   239  120  241 1    
   240  121  122 am   BACKBONE|DICT|INTERRES
   241  121  123 2    
   242  122  242 1    
   243  122  243 1    
   244  124  125 1    
   245  124  244 1    
   246  124  245 1    
   247  125  126 1    
   248  126  246 1    
   249  126  247 1    
@<TRIPOS>SUBSTRUCTURE
     1 UNK         1 GROUP             0       ****    0 ROOT    
