@<TRIPOS>MOLECULE
3R540
247   249    1
SMALL
USER_CHARGES


@<TRIPOS>ATOM
      1 CA         -4.4624   -9.7086  -46.4954 C.3       0 UNK        -0.1800 
      2 C          -3.6537  -10.9659  -46.7803 C.2       0 UNK         0.5000 
      3 O          -2.6996  -10.9203  -47.5572 O.2       0 UNK        -0.5000 
      4 N          -4.0148  -12.0852  -46.1415 N.am      1 UNK        -0.5000 
      5 CA         -3.4028  -13.4140  -46.2948 C.3       1 UNK         0.1400 
      6 C6         -4.4008  -14.5395  -45.9101 C.3       23 UNK        -0.0398 
      7 S7         -5.8835  -14.5496  -46.9683 S.3       23 UNK        -0.2404 
      8 C8         -6.9121  -15.7831  -46.1139 C.3       23 UNK        -0.0205 
      9 C9         -6.9114  -17.1264  -46.8285 C.ar      23 UNK        -0.0193 
     10 C10        -7.7657  -17.3296  -47.9146 C.ar      23 UNK        -0.1150 
     11 C11        -7.8275  -18.5738  -48.5451 C.ar      23 UNK        -0.0193 
     12 C12        -7.0382  -19.6252  -48.0725 C.ar      23 UNK        -0.1150 
     13 C13        -6.1837  -19.4451  -46.9807 C.ar      23 UNK        -0.0193 
     14 C14        -6.1073  -18.1797  -46.3803 C.ar      23 UNK        -0.1150 
     15 C15        -5.3715  -20.6364  -46.4717 C.3       23 UNK        -0.0205 
     16 S16        -5.2365  -20.6931  -44.6516 S.3       23 UNK        -0.2404 
     17 C17        -4.8259  -22.4331  -44.2897 C.3       23 UNK        -0.0398 
     18 CA         -3.7234  -23.0910  -45.1585 C.3       11 UNK         0.1400 
     19 N          -2.4444  -22.3632  -45.1202 N.am      11 UNK        -0.5000 
     20 C          -1.3033  -22.7427  -45.7193 C.2       10 UNK         0.5000 
     21 O          -1.2181  -23.7447  -46.4315 O.2       10 UNK        -0.5000 
     22 CA         -0.0361  -21.8965  -45.4972 C.3       10 UNK         0.1400 
     23 CB          0.3317  -21.1539  -46.7867 C.3       10 UNK        -0.1800 
     24 N          -0.1279  -20.9349  -44.4005 N.am      10 UNK        -0.5000 
     25 C          -0.2059  -21.2405  -43.0982 C.2       9 UNK         0.5000 
     26 O          -0.2549  -22.3929  -42.6662 O.2       9 UNK        -0.5000 
     27 CA         -0.2662  -20.0522  -42.1233 C.3       9 UNK         0.1400 
     28 CB          1.1478  -19.5785  -41.7530 C.3       9 UNK        -0.1800 
     29 N          -1.0181  -18.9388  -42.7040 N.am      9 UNK        -0.5000 
     30 C          -2.3524  -18.8326  -42.6492 C.2       8 UNK         0.5000 
     31 O          -3.0676  -19.5987  -42.0028 O.2       8 UNK        -0.5000 
     32 CA         -3.0056  -17.6894  -43.4509 C.3       8 UNK         0.1400 
     33 CB         -3.1931  -16.4544  -42.5574 C.3       8 UNK        -0.1800 
     34 N          -2.2699  -17.3055  -44.6594 N.am      8 UNK        -0.5000 
     35 C          -2.0676  -18.0988  -45.7213 C.2       7 UNK         0.5000 
     36 O          -2.4784  -19.2532  -45.7947 O.2       7 UNK        -0.5000 
     37 CA         -1.1982  -17.5462  -46.8672 C.3       7 UNK         0.1400 
     38 CB         -2.0310  -16.7668  -47.8939 C.3       7 UNK        -0.1800 
     39 N          -0.0579  -16.7324  -46.4424 N.am      7 UNK        -0.5000 
     40 C           0.8857  -17.0997  -45.5630 C.2       6 UNK         0.5000 
     41 O           0.8341  -18.1330  -44.8929 O.2       6 UNK        -0.5000 
     42 CA          2.0979  -16.1521  -45.4489 C.3       6 UNK         0.1400 
     43 CB          3.2697  -16.7604  -44.6516 C.3       6 UNK        -0.1800 
     44 N           2.5471  -15.6747  -46.7628 N.am      6 UNK        -0.5000 
     45 C           2.9651  -16.4261  -47.7949 C.2       5 UNK         0.5000 
     46 O           3.1025  -17.6485  -47.7560 O.2       5 UNK        -0.5000 
     47 CA          3.2731  -15.6770  -49.1023 C.3       5 UNK         0.1400 
     48 CB          1.9749  -15.3699  -49.8668 C.3       5 UNK        -0.1800 
     49 N           4.0067  -14.4326  -48.8760 N.am      5 UNK        -0.5000 
     50 C           5.2891  -14.3618  -48.4887 C.2       4 UNK         0.5000 
     51 O           6.0040  -15.3483  -48.3092 O.2       4 UNK        -0.5000 
     52 CA          5.8824  -12.9537  -48.2786 C.3       4 UNK         0.1400 
     53 CB          6.7157  -12.5343  -49.4997 C.3       4 UNK        -0.1800 
     54 N           4.8618  -11.9335  -48.0290 N.am      4 UNK        -0.5000 
     55 C           4.1797  -11.8083  -46.8836 C.2       3 UNK         0.5000 
     56 O           4.4012  -12.4984  -45.8855 O.2       3 UNK        -0.5000 
     57 CA          3.0682  -10.7350  -46.8409 C.3       3 UNK         0.1400 
     58 CB          2.5344  -10.3331  -48.2353 C.3       3 UNK        -0.1800 
     59 N           1.9564  -11.1211  -45.9659 N.am      3 UNK        -0.5000 
     60 C           1.1814  -12.2103  -46.0733 C.2       2 UNK         0.5000 
     61 O           1.2974  -13.0529  -46.9674 O.2       2 UNK        -0.5000 
     62 CA          0.0966  -12.4090  -45.0013 C.3       2 UNK         0.1400 
     63 CB          0.0165  -11.2840  -43.9490 C.3       2 UNK        -0.1800 
     64 N          -1.1959  -12.5245  -45.6653 N.am      2 UNK        -0.5000 
     65 C          -2.0624  -13.5304  -45.5245 C.2       1 UNK         0.5000 
     66 O          -1.8376  -14.5130  -44.8168 O.2       1 UNK        -0.5000 
     67 C          -3.5857  -24.5743  -44.7459 C.2       11 UNK         0.5000 
     68 O          -4.2348  -25.4325  -45.3442 O.2       11 UNK        -0.5000 
     69 N          -2.7005  -24.8522  -43.7766 N.am      12 UNK        -0.5000 
     70 CA         -2.3601  -26.1949  -43.2966 C.3       12 UNK         0.1400 
     71 CB         -1.4757  -26.0587  -42.0479 C.3       12 UNK        -0.1800 
     72 C          -1.6670  -27.0842  -44.3516 C.2       12 UNK         0.5000 
     73 O          -1.6951  -28.3081  -44.2206 O.2       12 UNK        -0.5000 
     74 N          -1.0773  -26.4598  -45.3784 N.am      13 UNK        -0.5000 
     75 CA         -0.4325  -27.1000  -46.5227 C.3       13 UNK         0.1400 
     76 CB          0.9871  -26.5209  -46.6641 C.3       13 UNK        -0.1800 
     77 C          -1.2640  -26.9040  -47.8075 C.2       13 UNK         0.5000 
     78 O          -0.7023  -26.9394  -48.9029 O.2       13 UNK        -0.5000 
     79 N          -2.5787  -26.6693  -47.6610 N.am      14 UNK        -0.5000 
     80 CA         -3.5547  -26.4133  -48.7274 C.3       14 UNK         0.1400 
     81 CB         -3.7511  -27.6668  -49.6059 C.3       14 UNK        -0.1800 
     82 C          -3.2029  -25.1530  -49.5428 C.2       14 UNK         0.5000 
     83 O          -3.1440  -25.1997  -50.7732 O.2       14 UNK        -0.5000 
     84 N          -2.9192  -24.0588  -48.8200 N.am      15 UNK        -0.5000 
     85 CA         -2.4437  -22.7673  -49.3303 C.3       15 UNK         0.1400 
     86 CB         -3.5185  -22.1035  -50.2184 C.3       15 UNK        -0.1800 
     87 C          -1.0636  -22.9033  -50.0087 C.2       15 UNK         0.5000 
     88 O          -0.8260  -22.3043  -51.0565 O.2       15 UNK        -0.5000 
     89 N          -0.1988  -23.7421  -49.4137 N.am      16 UNK        -0.5000 
     90 CA          1.0956  -24.2068  -49.9318 C.3       16 UNK         0.1400 
     91 CB          2.1421  -23.0733  -49.8992 C.3       16 UNK        -0.1800 
     92 C           0.9592  -24.8533  -51.3260 C.2       16 UNK         0.5000 
     93 O           1.6607  -24.4651  -52.2591 O.2       16 UNK        -0.5000 
     94 N           0.0001  -25.7813  -51.4567 N.am      17 UNK        -0.5000 
     95 CA         -0.4585  -26.3995  -52.7081 C.3       17 UNK         0.1400 
     96 CB          0.6038  -27.3784  -53.2487 C.3       17 UNK        -0.1800 
     97 C          -0.9058  -25.3496  -53.7528 C.2       17 UNK         0.5000 
     98 O          -0.5581  -25.4486  -54.9308 O.2       17 UNK        -0.5000 
     99 N          -1.6424  -24.3403  -53.2692 N.am      18 UNK        -0.5000 
    100 CA        -2.1306  -23.1473  -53.9682 C.3       18 UNK         0.1400 
    101 CB        -3.1054  -23.5316  -55.1003 C.3       18 UNK        -0.1800 
    102 C         -1.0381  -22.1586  -54.4396 C.2       18 UNK         0.5000 
    103 O         -1.3585  -21.2427  -55.1989 O.2       18 UNK        -0.5000 
    104 N          0.2151  -22.3110  -53.9831 N.am      19 UNK        -0.5000 
    105 CA         1.3057  -21.3744  -54.2771 C.3       19 UNK         0.1400 
    106 CB         2.6612  -22.0628  -54.0623 C.3       19 UNK        -0.1800 
    107 C          1.2251  -20.0834  -53.4391 C.2       19 UNK         0.5000 
    108 O          1.6727  -19.0345  -53.9035 O.2       19 UNK        -0.5000 
    109 N          0.6458  -20.1734  -52.2363 N.am      20 UNK        -0.5000 
    110 CA         0.3842  -19.0626  -51.3256 C.3       20 UNK         0.1400 
    111 CB         1.0067  -19.3795  -49.9545 C.3       20 UNK        -0.1800 
    112 C         -1.1377  -18.8650  -51.2606 C.2       20 UNK         0.5000 
    113 O         -1.7507  -19.0692  -50.2127 O.2       20 UNK        -0.5000 
    114 N         -1.7146  -18.5372  -52.4240 N.am      21 UNK        -0.5000 
    115 CA        -3.1484  -18.4046  -52.6780 C.3       21 UNK         0.1400 
    116 CB        -3.3460  -18.1905  -54.1888 C.3       21 UNK        -0.1800 
    117 C         -3.8443  -17.2867  -51.8727 C.2       21 UNK         0.5000 
    118 O         -3.1876  -16.4383  -51.2662 O.2       21 UNK        -0.5000 
    119 N         -5.1810  -17.3083  -51.9276 N.am      22 UNK        -0.5000 
    120 CA        -6.1265  -16.4419  -51.2008 C.3       22 UNK         0.1400 
    121 C         -6.0019  -14.9065  -51.4477 C.2       22 UNK         0.5000 
    122 N         -5.2720  -14.4439  -52.4549 N.am      22 UNK        -0.7600 
    123 O         -6.5971  -14.1181  -50.7191 O.2       22 UNK        -0.5000 
    124 C124       -7.5946  -16.8834  -51.4586 C.3       23 UNK        -0.0398 
    125 S125       -7.8848  -18.6832  -51.3074 S.3       23 UNK        -0.2404 
    126 C126       -8.7645  -18.7950  -49.7206 C.3       23 UNK        -0.0205 
    127 H127       -4.9007   -9.3282  -47.4179 H         1 UNK         0.0600 
    128 H128       -3.8181   -8.9348  -46.0779 H         1 UNK         0.0600 
    129 H129       -5.2700   -9.8977  -45.7879 H         1 UNK         0.0600 
    130 H130       -4.7966  -12.0474  -45.5034 H         1 UNK         0.3000 
    131 H131       -3.1543  -13.5461  -47.3498 H         1 UNK         0.0600 
    132 H132       -4.7107  -14.4227  -44.8708 H         1 UNK         0.0800 
    133 H133       -3.9464  -15.5264  -45.9852 H         1 UNK         0.0800 
    134 H134       -6.5905  -15.9018  -45.0781 H         1 UNK         0.0800 
    135 H135       -7.9341  -15.4043  -46.0644 H         1 UNK         0.0800 
    136 H136       -8.3882  -16.5175  -48.2631 H         1 UNK         0.1150 
    137 H137       -7.0985  -20.5906  -48.5554 H         1 UNK         0.1150 
    138 H138       -5.4454  -18.0211  -45.5426 H         1 UNK         0.1150 
    139 H139       -5.8378  -21.5636  -46.8079 H         1 UNK         0.0800 
    140 H140       -4.3766  -20.6079  -46.9164 H         1 UNK         0.0800 
    141 H141       -5.7564  -22.9982  -44.3754 H         1 UNK         0.0800 
    142 H142       -4.5468  -22.4776  -43.2351 H         1 UNK         0.0800 
    143 H143       -4.0548  -23.0879  -46.1975 H         1 UNK         0.0600 
    144 H144       -2.4479  -21.4794  -44.6283 H         1 UNK         0.3000 
    145 H145        0.7763  -22.5860  -45.2596 H         1 UNK         0.0600 
    146 H146       -0.5167  -20.5980  -47.1822 H         1 UNK         0.0600 
    147 H147        1.1586  -20.4589  -46.6369 H         1 UNK         0.0600 
    148 H148        0.6367  -21.8588  -47.5564 H         1 UNK         0.0600 
    149 H149       -0.0616  -19.9558  -44.6566 H         1 UNK         0.3000 
    150 H150       -0.7572  -20.3896  -41.2080 H         1 UNK         0.0600 
    151 H151        1.7143  -20.3813  -41.2794 H         1 UNK         0.0600 
    152 H152        1.1128  -18.7464  -41.0497 H         1 UNK         0.0600 
    153 H153        1.7114  -19.2538  -42.6281 H         1 UNK         0.0600 
    154 H154       -0.4996  -18.3068  -43.3031 H         1 UNK         0.3000 
    155 H155       -3.9929  -18.0360  -43.7576 H         1 UNK         0.0600 
    156 H156       -3.7317  -16.7085  -41.6435 H         1 UNK         0.0600 
    157 H157       -3.7686  -15.6822  -43.0658 H         1 UNK         0.0600 
    158 H158       -2.2353  -16.0211  -42.2665 H         1 UNK         0.0600 
    159 H159       -1.9076  -16.3546  -44.6839 H         1 UNK         0.3000 
    160 H160       -0.7842  -18.4080  -47.3888 H         1 UNK         0.0600 
    161 H161       -1.4755  -16.6315  -48.8221 H         1 UNK         0.0600 
    162 H162       -2.3031  -15.7795  -47.5329 H         1 UNK         0.0600 
    163 H163       -2.9504  -17.2977  -48.1468 H         1 UNK         0.0600 
    164 H164        0.0710  -15.8569  -46.9274 H         1 UNK         0.3000 
    165 H165        1.7506  -15.2749  -44.9030 H         1 UNK         0.0600 
    166 H166        3.6353  -17.6818  -45.1056 H         1 UNK         0.0600 
    167 H167        4.1050  -16.0631  -44.5872 H         1 UNK         0.0600 
    168 H168        2.9651  -16.9985  -43.6318 H         1 UNK         0.0600 
    169 H169        2.4228  -14.6795  -46.9240 H         1 UNK         0.3000 
    170 H170        3.8875  -16.3305  -49.7254 H         1 UNK         0.0600 
    171 H171        1.3339  -14.6801  -49.3162 H         1 UNK         0.0600 
    172 H172        2.1866  -14.9260  -50.8396 H         1 UNK         0.0600 
    173 H173        1.3996  -16.2787  -50.0439 H         1 UNK         0.0600 
    174 H174        3.4895  -13.5730  -48.9843 H         1 UNK         0.3000 
    175 H175        6.5465  -13.0016  -47.4129 H         1 UNK         0.0600 
    176 H176        6.1037  -12.4613  -50.3996 H         1 UNK         0.0600 
    177 H177        7.1938  -11.5679  -49.3382 H         1 UNK         0.0600 
    178 H178        7.5077  -13.2574  -49.6993 H         1 UNK         0.0600 
    179 H179        4.6351  -11.3217  -48.7999 H         1 UNK         0.3000 
    180 H180        3.5191   -9.8501  -46.3898 H         1 UNK         0.0600 
    181 H181        2.1563  -11.1920  -48.7913 H         1 UNK         0.0600 
    182 H182        3.3085   -9.8578  -48.8386 H         1 UNK         0.0600 
    183 H183        1.7195   -9.6143  -48.1477 H         1 UNK         0.0600 
    184 H184        1.8003  -10.5126  -45.1751 H         1 UNK         0.3000 
    185 H185        0.3461  -13.3357  -44.4820 H         1 UNK         0.0600 
    186 H186       -0.7571  -11.5008  -43.2120 H         1 UNK         0.0600 
    187 H187        0.9544  -11.1818  -43.4017 H         1 UNK         0.0600 
    188 H188       -0.2231  -10.3197  -44.3994 H         1 UNK         0.0600 
    189 H189       -1.4356  -11.7888  -46.3235 H         1 UNK         0.3000 
    190 H190       -2.1853  -24.0863  -43.3628 H         1 UNK         0.3000 
    191 H191       -3.2877  -26.6939  -43.0090 H         1 UNK         0.0600 
    192 H192       -0.5439  -25.5372  -42.2715 H         1 UNK         0.0600 
    193 H193       -1.9878  -25.5065  -41.2598 H         1 UNK         0.0600 
    194 H194       -1.2163  -27.0373  -41.6415 H         1 UNK         0.0600 
    195 H195       -1.1392  -25.4487  -45.4349 H         1 UNK         0.3000 
    196 H196       -0.3464  -28.1764  -46.3635 H         1 UNK         0.0600 
    197 H197        1.5680  -26.6844  -45.7564 H         1 UNK         0.0600 
    198 H198        0.9666  -25.4478  -46.8564 H         1 UNK         0.0600 
    199 H199        1.5300  -26.9954  -47.4825 H         1 UNK         0.0600 
    200 H200       -2.9476  -26.6169  -46.7193 H         1 UNK         0.3000 
    201 H201       -4.5051  -26.2046  -48.2338 H         1 UNK         0.0600 
    202 H202       -4.5551  -27.5141  -50.3268 H         1 UNK         0.0600 
    203 H203       -4.0182  -28.5333  -49.0012 H         1 UNK         0.0600 
    204 H204       -2.8521  -27.9162  -50.1703 H         1 UNK         0.0600 
    205 H205       -2.8830  -24.1609  -47.8148 H         1 UNK         0.3000 
    206 H206       -2.2934  -22.1168  -48.4683 H         1 UNK         0.0600 
    207 H207       -4.4468  -21.9600  -49.6655 H         1 UNK         0.0600 
    208 H208       -3.7470  -22.6946  -51.1038 H         1 UNK         0.0600 
    209 H209       -3.1980  -21.1231  -50.5635 H         1 UNK         0.0600 
    210 H210       -0.5028  -24.1739  -48.5506 H         1 UNK         0.3000 
    211 H211        1.4409  -24.9953  -49.2628 H         1 UNK         0.0600 
    212 H212        2.2892  -22.6950  -48.8890 H         1 UNK         0.0600 
    213 H213        3.1123  -23.4288  -50.2481 H         1 UNK         0.0600 
    214 H214        1.8561  -22.2369  -50.5362 H         1 UNK         0.0600 
    215 H215       -0.4948  -26.0689  -50.6161 H         1 UNK         0.3000 
    216 H216       -1.3475  -26.9792  -52.4555 H         1 UNK         0.0600 
    217 H217        0.2262  -27.9263  -54.1128 H         1 UNK         0.0600 
    218 H218        1.5112  -26.8604  -53.5605 H         1 UNK         0.0600 
    219 H219        0.8803  -28.1144  -52.4938 H         1 UNK         0.0600 
    220 H220       -1.8862  -24.3853  -52.2854 H         1 UNK         0.3000 
    221 H221       -2.7067  -22.5955  -53.2255 H         1 UNK         0.0600 
    222 H222       -2.5928  -24.0221  -55.9279 H         1 UNK         0.0600 
    223 H223       -3.8832  -24.2046  -54.7392 H         1 UNK         0.0600 
    224 H224       -3.6049  -22.6503  -55.5042 H         1 UNK         0.0600 
    225 H225        0.4257  -23.0754  -53.3513 H         1 UNK         0.3000 
    226 H226        1.2428  -21.0923  -55.3302 H         1 UNK         0.0600 
    227 H227        2.7192  -23.0063  -54.6055 H         1 UNK         0.0600 
    228 H228        3.4765  -21.4310  -54.4166 H         1 UNK         0.0600 
    229 H229        2.8466  -22.2677  -53.0076 H         1 UNK         0.0600 
    230 H230        0.2303  -21.0604  -51.9564 H         1 UNK         0.3000 
    231 H231        0.8255  -18.1350  -51.6950 H         1 UNK         0.0600 
    232 H232        0.8145  -18.5782  -49.2410 H         1 UNK         0.0600 
    233 H233        2.0879  -19.4957  -50.0290 H         1 UNK         0.0600 
    234 H234        0.6004  -20.2986  -49.5337 H         1 UNK         0.0600 
    235 H235       -1.1131  -18.3994  -53.2226 H         1 UNK         0.3000 
    236 H236       -3.6145  -19.3514  -52.3977 H         1 UNK         0.0600 
    237 H237       -2.9043  -19.0044  -54.7639 H         1 UNK         0.0600 
    238 H238       -4.4030  -18.1523  -54.4544 H         1 UNK         0.0600 
    239 H239       -2.8896  -17.2583  -54.5241 H         1 UNK         0.0600 
    240 H240       -5.6237  -18.0413  -52.4625 H         1 UNK         0.3000 
    241 H241       -5.9149  -16.5899  -50.1403 H         1 UNK         0.0600 
    242 H242       -4.7543  -15.0766  -53.0427 H         1 UNK         0.3800 
    243 H243       -5.2039  -13.4495  -52.6030 H         1 UNK         0.3800 
    244 H244       -8.2737  -16.3519  -50.7900 H         1 UNK         0.0800 
    245 H245       -7.8947  -16.5995  -52.4690 H         1 UNK         0.0800 
    246 H246       -9.2181  -19.7841  -49.6405 H         1 UNK         0.0800 
    247 H247       -9.5906  -18.0825  -49.7013 H         1 UNK         0.0800 
@<TRIPOS>BOND
     1    1    2 1    
     2    1  127 1    
     3    1  128 1    
     4    1  129 1    
     5    2    3 2    
     6    2    4 am   BACKBONE|DICT|INTERRES
     7    4    5 1    
     8    4  130 1    
     9    5    6 1    
    10    5   65 1    
    11    5  131 1    
    12    6    7 1    
    13    6  132 1    
    14    6  133 1    
    15    7    8 1    
    16    8    9 1    
    17    8  134 1    
    18    8  135 1    
    19    9   10 ar   
    20    9   14 ar   
    21   10   11 ar   
    22   10  136 1    
    23   11   12 ar   
    24   11  126 1    
    25   12   13 ar   
    26   12  137 1    
    27   13   14 ar   
    28   13   15 1    
    29   14  138 1    
    30   15   16 1    
    31   15  139 1    
    32   15  140 1    
    33   16   17 1    
    34   17   18 1    
    35   17  141 1    
    36   17  142 1    
    37   18   19 1    
    38   18   67 1    
    39   18  143 1    
    40   19   20 am   BACKBONE|DICT|INTERRES
    41   19  144 1    
    42   20   21 2    
    43   20   22 1    
    44   22   23 1    
    45   22   24 1    
    46   22  145 1    
    47   23  146 1    
    48   23  147 1    
    49   23  148 1    
    50   24   25 am   BACKBONE|DICT|INTERRES
    51   24  149 1    
    52   25   26 2    
    53   25   27 1    
    54   27   28 1    
    55   27   29 1    
    56   27  150 1    
    57   28  151 1    
    58   28  152 1    
    59   28  153 1    
    60   29   30 am   BACKBONE|DICT|INTERRES
    61   29  154 1    
    62   30   31 2    
    63   30   32 1    
    64   32   33 1    
    65   32   34 1    
    66   32  155 1    
    67   33  156 1    
    68   33  157 1    
    69   33  158 1    
    70   34   35 am   BACKBONE|DICT|INTERRES
    71   34  159 1    
    72   35   36 2    
    73   35   37 1    
    74   37   38 1    
    75   37   39 1    
    76   37  160 1    
    77   38  161 1    
    78   38  162 1    
    79   38  163 1    
    80   39   40 am   BACKBONE|DICT|INTERRES
    81   39  164 1    
    82   40   41 2    
    83   40   42 1    
    84   42   43 1    
    85   42   44 1    
    86   42  165 1    
    87   43  166 1    
    88   43  167 1    
    89   43  168 1    
    90   44   45 am   BACKBONE|DICT|INTERRES
    91   44  169 1    
    92   45   46 2    
    93   45   47 1    
    94   47   48 1    
    95   47   49 1    
    96   47  170 1    
    97   48  171 1    
    98   48  172 1    
    99   48  173 1    
   100   49   50 am   BACKBONE|DICT|INTERRES
   101   49  174 1    
   102   50   51 2    
   103   50   52 1    
   104   52   53 1    
   105   52   54 1    
   106   52  175 1    
   107   53  176 1    
   108   53  177 1    
   109   53  178 1    
   110   54   55 am   BACKBONE|DICT|INTERRES
   111   54  179 1    
   112   55   56 2    
   113   55   57 1    
   114   57   58 1    
   115   57   59 1    
   116   57  180 1    
   117   58  181 1    
   118   58  182 1    
   119   58  183 1    
   120   59   60 am   BACKBONE|DICT|INTERRES
   121   59  184 1    
   122   60   61 2    
   123   60   62 1    
   124   62   63 1    
   125   62   64 1    
   126   62  185 1    
   127   63  186 1    
   128   63  187 1    
   129   63  188 1    
   130   64   65 am   BACKBONE|DICT|INTERRES
   131   64  189 1    
   132   65   66 2    
   133   67   68 2    
   134   67   69 am   BACKBONE|DICT|INTERRES
   135   69   70 1    
   136   69  190 1    
   137   70   71 1    
   138   70   72 1    
   139   70  191 1    
   140   71  192 1    
   141   71  193 1    
   142   71  194 1    
   143   72   73 2    
   144   72   74 am   BACKBONE|DICT|INTERRES
   145   74   75 1    
   146   74  195 1    
   147   75   76 1    
   148   75   77 1    
   149   75  196 1    
   150   76  197 1    
   151   76  198 1    
   152   76  199 1    
   153   77   78 2    
   154   77   79 am   BACKBONE|DICT|INTERRES
   155   79   80 1    
   156   79  200 1    
   157   80   81 1    
   158   80   82 1    
   159   80  201 1    
   160   81  202 1    
   161   81  203 1    
   162   81  204 1    
   163   82   83 2    
   164   82   84 am   BACKBONE|DICT|INTERRES
   165   84   85 1    
   166   84  205 1    
   167   85   86 1    
   168   85   87 1    
   169   85  206 1    
   170   86  207 1    
   171   86  208 1    
   172   86  209 1    
   173   87   88 2    
   174   87   89 am   BACKBONE|DICT|INTERRES
   175   89   90 1    
   176   89  210 1    
   177   90   91 1    
   178   90   92 1    
   179   90  211 1    
   180   91  212 1    
   181   91  213 1    
   182   91  214 1    
   183   92   93 2    
   184   92   94 am   BACKBONE|DICT|INTERRES
   185   94   95 1    
   186   94  215 1    
   187   95   96 1    
   188   95   97 1    
   189   95  216 1    
   190   96  217 1    
   191   96  218 1    
   192   96  219 1    
   193   97   98 2    
   194   97   99 am   BACKBONE|DICT|INTERRES
   195   99  100 1    
   196   99  220 1    
   197  100  101 1    
   198  100  102 1    
   199  100  221 1    
   200  101  222 1    
   201  101  223 1    
   202  101  224 1    
   203  102  103 2    
   204  102  104 am   BACKBONE|DICT|INTERRES
   205  104  105 1    
   206  104  225 1    
   207  105  106 1    
   208  105  107 1    
   209  105  226 1    
   210  106  227 1    
   211  106  228 1    
   212  106  229 1    
   213  107  108 2    
   214  107  109 am   BACKBONE|DICT|INTERRES
   215  109  110 1    
   216  109  230 1    
   217  110  111 1    
   218  110  112 1    
   219  110  231 1    
   220  111  232 1    
   221  111  233 1    
   222  111  234 1    
   223  112  113 2    
   224  112  114 am   BACKBONE|DICT|INTERRES
   225  114  115 1    
   226  114  235 1    
   227  115  116 1    
   228  115  117 1    
   229  115  236 1    
   230  116  237 1    
   231  116  238 1    
   232  116  239 1    
   233  117  118 2    
   234  117  119 am   BACKBONE|DICT|INTERRES
   235  119  120 1    
   236  119  240 1    
   237  120  121 1    
   238  120  124 1    
   239  120  241 1    
   240  121  122 am   BACKBONE|DICT|INTERRES
   241  121  123 2    
   242  122  242 1    
   243  122  243 1    
   244  124  125 1    
   245  124  244 1    
   246  124  245 1    
   247  125  126 1    
   248  126  246 1    
   249  126  247 1    
@<TRIPOS>SUBSTRUCTURE
     1 UNK         1 GROUP             0       ****    0 ROOT    
