@<TRIPOS>MOLECULE
3R540
247   249    1
SMALL
USER_CHARGES


@<TRIPOS>ATOM
      1 CA          5.0041  -16.5990  -48.4142 C.3       0 UNK        -0.1800 
      2 C           4.0208  -15.8594  -47.5192 C.2       0 UNK         0.5000 
      3 O           4.0965  -15.9701  -46.2969 O.2       0 UNK        -0.5000 
      4 N           3.0986  -15.0971  -48.1176 N.am      1 UNK        -0.5000 
      5 CA          2.0272  -14.3636  -47.4348 C.3       1 UNK         0.1400 
      6 C6          0.8138  -14.1010  -48.3636 C.3       23 UNK        -0.0398 
      7 S7          0.0418  -15.6536  -48.9327 S.3       23 UNK        -0.2404 
      8 C8          0.7884  -15.8253  -50.5855 C.3       23 UNK        -0.0205 
      9 C9          0.9225  -17.2850  -50.9862 C.ar      23 UNK        -0.0193 
     10 C10         0.2145  -17.7913  -52.0792 C.ar      23 UNK        -0.1150 
     11 C11         0.3545  -19.1307  -52.4533 C.ar      23 UNK        -0.0193 
     12 C12         1.1991  -19.9670  -51.7165 C.ar      23 UNK        -0.1150 
     13 C13         1.9205  -19.4727  -50.6247 C.ar      23 UNK        -0.0193 
     14 C14         1.7843  -18.1254  -50.2755 C.ar      23 UNK        -0.1150 
     15 C15         2.8734  -20.3933  -49.8677 C.3       23 UNK        -0.0205 
     16 S16         2.8060  -20.1825  -48.0538 S.3       23 UNK        -0.2404 
     17 C17         2.8410  -21.9180  -47.4727 C.3       23 UNK        -0.0398 
     18 CA          1.4784  -22.4427  -46.9549 C.3       11 UNK         0.1400 
     19 N           1.0237  -21.7144  -45.7668 N.am      11 UNK        -0.5000 
     20 C          -0.0401  -22.0507  -45.0230 C.2       10 UNK         0.5000 
     21 O          -0.6911  -23.0788  -45.2049 O.2       10 UNK        -0.5000 
     22 CA         -0.4937  -21.0667  -43.9251 C.3       10 UNK         0.1400 
     23 CB         -0.0404  -21.5683  -42.5462 C.3       10 UNK        -0.1800 
     24 N          -0.0337  -19.6880  -44.1038 N.am      10 UNK        -0.5000 
     25 C          -0.2214  -18.9111  -45.1805 C.2       9 UNK         0.5000 
     26 O          -0.8558  -19.2718  -46.1720 O.2       9 UNK        -0.5000 
     27 CA          0.4347  -17.5145  -45.1681 C.3       9 UNK         0.1400 
     28 CB         -0.6321  -16.4203  -45.0204 C.3       9 UNK        -0.1800 
     29 N           1.4511  -17.3345  -44.1252 N.am      9 UNK        -0.5000 
     30 C           2.6244  -17.9854  -44.0668 C.2       8 UNK         0.5000 
     31 O           2.9772  -18.8393  -44.8793 O.2       8 UNK        -0.5000 
     32 CA          3.5184  -17.6753  -42.8560 C.3       8 UNK         0.1400 
     33 CB          4.3361  -16.3972  -43.0830 C.3       8 UNK        -0.1800 
     34 N           2.7117  -17.5319  -41.6446 N.am      8 UNK        -0.5000 
     35 C           2.3660  -18.5611  -40.8608 C.2       7 UNK         0.5000 
     36 O           2.7288  -19.7212  -41.0569 O.2       7 UNK        -0.5000 
     37 CA          1.4569  -18.2552  -39.6592 C.3       7 UNK         0.1400 
     38 CB          2.2992  -17.9161  -38.4201 C.3       7 UNK        -0.1800 
     39 N           0.4974  -17.1768  -39.9018 N.am      7 UNK        -0.5000 
     40 C          -0.5627  -17.2817  -40.7208 C.2       6 UNK         0.5000 
     41 O          -0.7505  -18.2589  -41.4445 O.2       6 UNK        -0.5000 
     42 CA         -1.6029  -16.1431  -40.7307 C.3       6 UNK         0.1400 
     43 CB         -3.0276  -16.6805  -40.4941 C.3       6 UNK        -0.1800 
     44 N          -1.2908  -15.1092  -39.7482 N.am      6 UNK        -0.5000 
     45 C          -1.6842  -13.8343  -39.7954 C.2       5 UNK         0.5000 
     46 O          -2.4768  -13.3848  -40.6232 O.2       5 UNK        -0.5000 
     47 CA         -1.0153  -12.8837  -38.7847 C.3       5 UNK         0.1400 
     48 CB         -1.2312  -13.3163  -37.3196 C.3       5 UNK        -0.1800 
     49 N           0.4028  -12.6903  -39.1117 N.am      5 UNK        -0.5000 
     50 C           1.3958  -13.5929  -39.0763 C.2       4 UNK         0.5000 
     51 O           1.2982  -14.7130  -38.5692 O.2       4 UNK        -0.5000 
     52 CA          2.6590  -13.1967  -39.8663 C.3       4 UNK         0.1400 
     53 CB          3.7754  -14.2599  -39.8129 C.3       4 UNK        -0.1800 
     54 N           2.3053  -12.8688  -41.2549 N.am      4 UNK        -0.5000 
     55 C           1.7076  -13.6767  -42.1473 C.2       3 UNK         0.5000 
     56 O           1.4963  -14.8780  -41.9668 O.2       3 UNK        -0.5000 
     57 CA          1.2374  -13.0405  -43.4653 C.3       3 UNK         0.1400 
     58 CB         -0.2969  -12.9572  -43.4722 C.3       3 UNK        -0.1800 
     59 N           1.7601  -11.6856  -43.6895 N.am      3 UNK        -0.5000 
     60 C           2.9201  -11.2498  -44.2160 C.2       2 UNK         0.5000 
     61 O           3.1897  -10.0505  -44.1828 O.2       2 UNK        -0.5000 
     62 CA          3.9464  -12.1897  -44.8978 C.3       2 UNK         0.1400 
     63 CB          4.9195  -12.7910  -43.8719 C.3       2 UNK        -0.1800 
     64 N           3.3914  -13.2443  -45.7445 N.am      2 UNK        -0.5000 
     65 C           2.5681  -13.0707  -46.7867 C.2       1 UNK         0.5000 
     66 O           2.2433  -11.9678  -47.2290 O.2       1 UNK        -0.5000 
     67 C           0.4097  -22.4883  -48.0733 C.2       11 UNK         0.5000 
     68 O           0.2923  -23.5075  -48.7539 O.2       11 UNK        -0.5000 
     69 N          -0.3733  -21.4072  -48.2165 N.am      12 UNK        -0.5000 
     70 CA         -1.4907  -21.3222  -49.1532 C.3       12 UNK         0.1400 
     71 CB         -1.8937  -19.8546  -49.3576 C.3       12 UNK        -0.1800 
     72 C          -2.6873  -22.1496  -48.6616 C.2       12 UNK         0.5000 
     73 O          -3.3173  -22.8369  -49.4626 O.2       12 UNK        -0.5000 
     74 N          -2.9573  -22.1089  -47.3486 N.am      13 UNK        -0.5000 
     75 CA         -4.0127  -22.8890  -46.6975 C.3       13 UNK         0.1400 
     76 CB         -4.1681  -22.4424  -45.2362 C.3       13 UNK        -0.1800 
     77 C          -3.7607  -24.4050  -46.7913 C.2       13 UNK         0.5000 
     78 O          -4.6828  -25.1553  -47.1113 O.2       13 UNK        -0.5000 
     79 N          -2.5025  -24.8187  -46.5838 N.am      14 UNK        -0.5000 
     80 CA         -2.0268  -26.1949  -46.7495 C.3       14 UNK         0.1400 
     81 CB         -0.5735  -26.2853  -46.2608 C.3       14 UNK        -0.1800 
     82 C          -2.1423  -26.7131  -48.1977 C.2       14 UNK         0.5000 
     83 O          -2.3498  -27.9097  -48.4000 O.2       14 UNK        -0.5000 
     84 N          -2.0410  -25.8009  -49.1730 N.am      15 UNK        -0.5000 
     85 CA         -2.2328  -26.0611  -50.5998 C.3       15 UNK         0.1400 
     86 CB         -1.3804  -25.0597  -51.3998 C.3       15 UNK        -0.1800 
     87 C          -3.7117  -25.9864  -51.0365 C.2       15 UNK         0.5000 
     88 O          -3.9813  -26.1096  -52.2318 O.2       15 UNK        -0.5000 
     89 N          -4.6403  -25.7414  -50.0961 N.am      16 UNK        -0.5000 
     90 CA         -6.0792  -25.5232  -50.3060 C.3       16 UNK         0.1400 
     91 CB         -6.7677  -26.8228  -50.7711 C.3       16 UNK        -0.1800 
     92 C          -6.3600  -24.3234  -51.2370 C.2       16 UNK         0.5000 
     93 O          -7.2373  -24.3875  -52.1010 O.2       16 UNK        -0.5000 
     94 N          -5.5448  -23.2708  -51.0776 N.am      17 UNK        -0.5000 
     95 CA         -5.4534  -22.0589  -51.8940 C.3       17 UNK         0.1400 
     96 CB         -6.7469  -21.2250  -51.7952 C.3       17 UNK        -0.1800 
     97 C          -5.0319  -22.3200  -53.3542 C.2       17 UNK         0.5000 
     98 O          -5.2033  -21.4300  -54.1864 O.2       17 UNK        -0.5000 
     99 N          -4.5040  -23.5202  -53.6479 N.am      18 UNK        -0.5000 
    100 CA        -4.0950  -24.0134  -54.9664 C.3       18 UNK         0.1400 
    101 CB        -2.8132  -23.2952  -55.4330 C.3       18 UNK        -0.1800 
    102 C         -5.2426  -23.9544  -55.9968 C.2       18 UNK         0.5000 
    103 O         -5.0402  -23.5067  -57.1253 O.2       18 UNK        -0.5000 
    104 N         -6.4457  -24.3629  -55.5618 N.am      19 UNK        -0.5000 
    105 CA        -7.7200  -24.2600  -56.2861 C.3       19 UNK         0.1400 
    106 CB        -7.7265  -25.1605  -57.5396 C.3       19 UNK        -0.1800 
    107 C         -8.1001  -22.7918  -56.5823 C.2       19 UNK         0.5000 
    108 O         -8.5333  -22.4652  -57.6881 O.2       19 UNK        -0.5000 
    109 N         -7.9008  -21.9399  -55.5667 N.am      20 UNK        -0.5000 
    110 CA        -8.1160  -20.4892  -55.5218 C.3       20 UNK         0.1400 
    111 CB        -9.5677  -20.1153  -55.8857 C.3       20 UNK        -0.1800 
    112 C         -7.0800  -19.6527  -56.3029 C.2       20 UNK         0.5000 
    113 O         -7.2170  -18.4285  -56.3457 O.2       20 UNK        -0.5000 
    114 N         -6.0341  -20.2844  -56.8575 N.am      21 UNK        -0.5000 
    115 CA        -4.9313  -19.6087  -57.5483 C.3       21 UNK         0.1400 
    116 CB        -4.0672  -20.6390  -58.2879 C.3       21 UNK        -0.1800 
    117 C         -4.0647  -18.7310  -56.6215 C.2       21 UNK         0.5000 
    118 O         -3.4715  -17.7642  -57.1023 O.2       21 UNK        -0.5000 
    119 N         -4.0313  -19.0461  -55.3184 N.am      22 UNK        -0.5000 
    120 CA        -3.4293  -18.1939  -54.2777 C.3       22 UNK         0.1400 
    121 C         -4.2797  -16.9393  -53.9099 C.2       22 UNK         0.5000 
    122 N         -5.4979  -16.7710  -54.4138 N.am      22 UNK        -0.7600 
    123 O         -3.8180  -16.0895  -53.1537 O.2       22 UNK        -0.5000 
    124 C124       -3.0453  -18.9832  -52.9958 C.3       23 UNK        -0.0398 
    125 S125       -1.9664  -20.4289  -53.2809 S.3       23 UNK        -0.2404 
    126 C126       -0.3649  -19.6659  -53.6819 C.3       23 UNK        -0.0205 
    127 H127        4.9335  -17.6723  -48.2363 H         1 UNK         0.0600 
    128 H128        6.0235  -16.2815  -48.1953 H         1 UNK         0.0600 
    129 H129        4.8075  -16.4170  -49.4710 H         1 UNK         0.0600 
    130 H130        3.1174  -15.0037  -49.1217 H         1 UNK         0.3000 
    131 H131        1.6664  -14.9872  -46.6146 H         1 UNK         0.0600 
    132 H132        0.0459  -13.5380  -47.8300 H         1 UNK         0.0800 
    133 H133        1.0970  -13.4874  -49.2206 H         1 UNK         0.0800 
    134 H134        1.7790  -15.3716  -50.6086 H         1 UNK         0.0800 
    135 H135        0.1817  -15.2741  -51.3057 H         1 UNK         0.0800 
    136 H136       -0.4355  -17.1406  -52.6471 H         1 UNK         0.1150 
    137 H137        1.3071  -21.0022  -52.0087 H         1 UNK         0.1150 
    138 H138        2.3424  -17.7277  -49.4404 H         1 UNK         0.1150 
    139 H139        2.6533  -21.4297  -50.1260 H         1 UNK         0.0800 
    140 H140        3.8922  -20.2014  -50.2060 H         1 UNK         0.0800 
    141 H141        3.2262  -22.5720  -48.2563 H         1 UNK         0.0800 
    142 H142        3.5759  -21.9774  -46.6687 H         1 UNK         0.0800 
    143 H143        1.6349  -23.4762  -46.6388 H         1 UNK         0.0600 
    144 H144        1.5026  -20.8463  -45.5647 H         1 UNK         0.3000 
    145 H145       -1.5844  -21.0446  -43.9406 H         1 UNK         0.0600 
    146 H146       -0.4422  -20.9468  -41.7460 H         1 UNK         0.0600 
    147 H147        1.0467  -21.5675  -42.4576 H         1 UNK         0.0600 
    148 H148       -0.3848  -22.5877  -42.3665 H         1 UNK         0.0600 
    149 H149        0.4492  -19.2789  -43.3160 H         1 UNK         0.3000 
    150 H150        0.9250  -17.3868  -46.1358 H         1 UNK         0.0600 
    151 H151       -1.3947  -16.5114  -45.7953 H         1 UNK         0.0600 
    152 H152       -0.1956  -15.4278  -45.1182 H         1 UNK         0.0600 
    153 H153       -1.1353  -16.4783  -44.0549 H         1 UNK         0.0600 
    154 H154        1.2401  -16.6698  -43.3928 H         1 UNK         0.3000 
    155 H155        4.2234  -18.4999  -42.7300 H         1 UNK         0.0600 
    156 H156        5.0754  -16.5485  -43.8698 H         1 UNK         0.0600 
    157 H157        4.8759  -16.1000  -42.1840 H         1 UNK         0.0600 
    158 H158        3.7005  -15.5686  -43.3897 H         1 UNK         0.0600 
    159 H159        2.3289  -16.6110  -41.4533 H         1 UNK         0.3000 
    160 H160        0.8899  -19.1628  -39.4404 H         1 UNK         0.0600 
    161 H161        2.8928  -17.0140  -38.5704 H         1 UNK         0.0600 
    162 H162        2.9891  -18.7268  -38.1826 H         1 UNK         0.0600 
    163 H163        1.6685  -17.7588  -37.5450 H         1 UNK         0.0600 
    164 H164        0.6861  -16.3093  -39.4111 H         1 UNK         0.3000 
    165 H165       -1.5579  -15.6976  -41.7259 H         1 UNK         0.0600 
    166 H166       -3.7717  -15.8884  -40.5759 H         1 UNK         0.0600 
    167 H167       -3.2899  -17.4420  -41.2296 H         1 UNK         0.0600 
    168 H168       -3.1239  -17.1300  -39.5053 H         1 UNK         0.0600 
    169 H169       -0.6031  -15.3483  -39.0451 H         1 UNK         0.3000 
    170 H170       -1.4893  -11.9083  -38.9059 H         1 UNK         0.0600 
    171 H171       -0.8029  -14.2938  -37.0991 H         1 UNK         0.0600 
    172 H172       -0.7873  -12.5972  -36.6313 H         1 UNK         0.0600 
    173 H173       -2.2956  -13.3717  -37.0883 H         1 UNK         0.0600 
    174 H174        0.6015  -11.8184  -39.5816 H         1 UNK         0.3000 
    175 H175        3.0467  -12.2852  -39.4091 H         1 UNK         0.0600 
    176 H176        3.4498  -15.2183  -40.2135 H         1 UNK         0.0600 
    177 H177        4.6494  -13.9411  -40.3807 H         1 UNK         0.0600 
    178 H178        4.0979  -14.4316  -38.7855 H         1 UNK         0.0600 
    179 H179        2.4353  -11.9028  -41.5201 H         1 UNK         0.3000 
    180 H180        1.5149  -13.7289  -44.2557 H         1 UNK         0.0600 
    181 H181       -0.6682  -12.2690  -42.7117 H         1 UNK         0.0600 
    182 H182       -0.7511  -13.9285  -43.2743 H         1 UNK         0.0600 
    183 H183       -0.6678  -12.6194  -44.4401 H         1 UNK         0.0600 
    184 H184        1.1529  -10.9630  -43.3321 H         1 UNK         0.3000 
    185 H185        4.5410  -11.5615  -45.5644 H         1 UNK         0.0600 
    186 H186        4.4132  -13.4202  -43.1436 H         1 UNK         0.0600 
    187 H187        5.6870  -13.3929  -44.3589 H         1 UNK         0.0600 
    188 H188        5.4305  -12.0041  -43.3158 H         1 UNK         0.0600 
    189 H189        3.6748  -14.1974  -45.5371 H         1 UNK         0.3000 
    190 H190       -0.2436  -20.6157  -47.5949 H         1 UNK         0.3000 
    191 H191       -1.1694  -21.7221  -50.1176 H         1 UNK         0.0600 
    192 H192       -1.0511  -19.2586  -49.7068 H         1 UNK         0.0600 
    193 H193       -2.2639  -19.4007  -48.4382 H         1 UNK         0.0600 
    194 H194       -2.6836  -19.7712  -50.1042 H         1 UNK         0.0600 
    195 H195       -2.3778  -21.5320  -46.7565 H         1 UNK         0.3000 
    196 H196       -4.9491  -22.6752  -47.2173 H         1 UNK         0.0600 
    197 H197       -4.3531  -21.3703  -45.1667 H         1 UNK         0.0600 
    198 H198       -3.2824  -22.6709  -44.6442 H         1 UNK         0.0600 
    199 H199       -5.0116  -22.9489  -44.7655 H         1 UNK         0.0600 
    200 H200       -1.8155  -24.1389  -46.2656 H         1 UNK         0.3000 
    201 H201       -2.6426  -26.8387  -46.1183 H         1 UNK         0.0600 
    202 H202       -0.4903  -25.9909  -45.2144 H         1 UNK         0.0600 
    203 H203        0.0858  -25.6403  -46.8427 H         1 UNK         0.0600 
    204 H204       -0.1946  -27.3047  -46.3435 H         1 UNK         0.0600 
    205 H205       -1.8568  -24.8401  -48.9168 H         1 UNK         0.3000 
    206 H206       -1.8775  -27.0669  -50.8319 H         1 UNK         0.0600 
    207 H207       -0.3317  -25.1120  -51.1066 H         1 UNK         0.0600 
    208 H208       -1.7164  -24.0331  -51.2532 H         1 UNK         0.0600 
    209 H209       -1.4270  -25.2675  -52.4696 H         1 UNK         0.0600 
    210 H210       -4.3289  -25.6291  -49.1383 H         1 UNK         0.3000 
    211 H211       -6.4954  -25.2577  -49.3334 H         1 UNK         0.0600 
    212 H212       -6.4409  -27.1227  -51.7671 H         1 UNK         0.0600 
    213 H213       -7.8507  -26.6994  -50.8065 H         1 UNK         0.0600 
    214 H214       -6.5577  -27.6452  -50.0873 H         1 UNK         0.0600 
    215 H215       -4.8178  -23.3344  -50.3663 H         1 UNK         0.3000 
    216 H216       -4.6480  -21.4679  -51.4569 H         1 UNK         0.0600 
    217 H217       -6.6231  -20.2515  -52.2711 H         1 UNK         0.0600 
    218 H218       -7.0171  -21.0416  -50.7554 H         1 UNK         0.0600 
    219 H219       -7.5890  -21.7210  -52.2780 H         1 UNK         0.0600 
    220 H220       -4.4228  -24.2018  -52.9021 H         1 UNK         0.3000 
    221 H221       -3.8534  -25.0698  -54.8427 H         1 UNK         0.0600 
    222 H222       -2.9736  -22.2248  -55.5578 H         1 UNK         0.0600 
    223 H223       -2.0075  -23.4261  -54.7107 H         1 UNK         0.0600 
    224 H224       -2.4623  -23.6909  -56.3866 H         1 UNK         0.0600 
    225 H225       -6.5128  -24.6900  -54.6064 H         1 UNK         0.3000 
    226 H226       -8.4865  -24.6397  -55.6089 H         1 UNK         0.0600 
    227 H227       -7.4581  -26.1867  -57.2889 H         1 UNK         0.0600 
    228 H228       -8.7176  -25.1866  -57.9938 H         1 UNK         0.0600 
    229 H229       -7.0301  -24.8077  -58.3007 H         1 UNK         0.0600 
    230 H230       -7.4800  -22.3222  -54.7318 H         1 UNK         0.3000 
    231 H231       -7.9711  -20.2145  -54.4764 H         1 UNK         0.0600 
    232 H232       -9.7661  -19.0654  -55.6671 H         1 UNK         0.0600 
    233 H233      -10.2835  -20.7046  -55.3128 H         1 UNK         0.0600 
    234 H234       -9.7750  -20.2680  -56.9449 H         1 UNK         0.0600 
    235 H235       -5.9527  -21.2856  -56.7399 H         1 UNK         0.3000 
    236 H236       -5.3726  -18.9482  -58.2975 H         1 UNK         0.0600 
    237 H237       -3.5551  -21.3056  -57.5959 H         1 UNK         0.0600 
    238 H238       -4.6680  -21.2504  -58.9615 H         1 UNK         0.0600 
    239 H239       -3.3029  -20.1457  -58.8895 H         1 UNK         0.0600 
    240 H240       -4.5171  -19.8797  -54.9948 H         1 UNK         0.3000 
    241 H241       -2.5044  -17.7894  -54.6901 H         1 UNK         0.0600 
    242 H242       -6.0212  -15.9472  -54.1628 H         1 UNK         0.3800 
    243 H243       -5.9015  -17.4358  -55.0624 H         1 UNK         0.3800 
    244 H244       -3.9502  -19.3411  -52.5039 H         1 UNK         0.0800 
    245 H245       -2.5556  -18.3315  -52.2713 H         1 UNK         0.0800 
    246 H246       -0.4967  -18.8771  -54.4225 H         1 UNK         0.0800 
    247 H247        0.2592  -20.4194  -54.1645 H         1 UNK         0.0800 
@<TRIPOS>BOND
     1    1    2 1    
     2    1  127 1    
     3    1  128 1    
     4    1  129 1    
     5    2    3 2    
     6    2    4 am   BACKBONE|DICT|INTERRES
     7    4    5 1    
     8    4  130 1    
     9    5    6 1    
    10    5   65 1    
    11    5  131 1    
    12    6    7 1    
    13    6  132 1    
    14    6  133 1    
    15    7    8 1    
    16    8    9 1    
    17    8  134 1    
    18    8  135 1    
    19    9   10 ar   
    20    9   14 ar   
    21   10   11 ar   
    22   10  136 1    
    23   11   12 ar   
    24   11  126 1    
    25   12   13 ar   
    26   12  137 1    
    27   13   14 ar   
    28   13   15 1    
    29   14  138 1    
    30   15   16 1    
    31   15  139 1    
    32   15  140 1    
    33   16   17 1    
    34   17   18 1    
    35   17  141 1    
    36   17  142 1    
    37   18   19 1    
    38   18   67 1    
    39   18  143 1    
    40   19   20 am   BACKBONE|DICT|INTERRES
    41   19  144 1    
    42   20   21 2    
    43   20   22 1    
    44   22   23 1    
    45   22   24 1    
    46   22  145 1    
    47   23  146 1    
    48   23  147 1    
    49   23  148 1    
    50   24   25 am   BACKBONE|DICT|INTERRES
    51   24  149 1    
    52   25   26 2    
    53   25   27 1    
    54   27   28 1    
    55   27   29 1    
    56   27  150 1    
    57   28  151 1    
    58   28  152 1    
    59   28  153 1    
    60   29   30 am   BACKBONE|DICT|INTERRES
    61   29  154 1    
    62   30   31 2    
    63   30   32 1    
    64   32   33 1    
    65   32   34 1    
    66   32  155 1    
    67   33  156 1    
    68   33  157 1    
    69   33  158 1    
    70   34   35 am   BACKBONE|DICT|INTERRES
    71   34  159 1    
    72   35   36 2    
    73   35   37 1    
    74   37   38 1    
    75   37   39 1    
    76   37  160 1    
    77   38  161 1    
    78   38  162 1    
    79   38  163 1    
    80   39   40 am   BACKBONE|DICT|INTERRES
    81   39  164 1    
    82   40   41 2    
    83   40   42 1    
    84   42   43 1    
    85   42   44 1    
    86   42  165 1    
    87   43  166 1    
    88   43  167 1    
    89   43  168 1    
    90   44   45 am   BACKBONE|DICT|INTERRES
    91   44  169 1    
    92   45   46 2    
    93   45   47 1    
    94   47   48 1    
    95   47   49 1    
    96   47  170 1    
    97   48  171 1    
    98   48  172 1    
    99   48  173 1    
   100   49   50 am   BACKBONE|DICT|INTERRES
   101   49  174 1    
   102   50   51 2    
   103   50   52 1    
   104   52   53 1    
   105   52   54 1    
   106   52  175 1    
   107   53  176 1    
   108   53  177 1    
   109   53  178 1    
   110   54   55 am   BACKBONE|DICT|INTERRES
   111   54  179 1    
   112   55   56 2    
   113   55   57 1    
   114   57   58 1    
   115   57   59 1    
   116   57  180 1    
   117   58  181 1    
   118   58  182 1    
   119   58  183 1    
   120   59   60 am   BACKBONE|DICT|INTERRES
   121   59  184 1    
   122   60   61 2    
   123   60   62 1    
   124   62   63 1    
   125   62   64 1    
   126   62  185 1    
   127   63  186 1    
   128   63  187 1    
   129   63  188 1    
   130   64   65 am   BACKBONE|DICT|INTERRES
   131   64  189 1    
   132   65   66 2    
   133   67   68 2    
   134   67   69 am   BACKBONE|DICT|INTERRES
   135   69   70 1    
   136   69  190 1    
   137   70   71 1    
   138   70   72 1    
   139   70  191 1    
   140   71  192 1    
   141   71  193 1    
   142   71  194 1    
   143   72   73 2    
   144   72   74 am   BACKBONE|DICT|INTERRES
   145   74   75 1    
   146   74  195 1    
   147   75   76 1    
   148   75   77 1    
   149   75  196 1    
   150   76  197 1    
   151   76  198 1    
   152   76  199 1    
   153   77   78 2    
   154   77   79 am   BACKBONE|DICT|INTERRES
   155   79   80 1    
   156   79  200 1    
   157   80   81 1    
   158   80   82 1    
   159   80  201 1    
   160   81  202 1    
   161   81  203 1    
   162   81  204 1    
   163   82   83 2    
   164   82   84 am   BACKBONE|DICT|INTERRES
   165   84   85 1    
   166   84  205 1    
   167   85   86 1    
   168   85   87 1    
   169   85  206 1    
   170   86  207 1    
   171   86  208 1    
   172   86  209 1    
   173   87   88 2    
   174   87   89 am   BACKBONE|DICT|INTERRES
   175   89   90 1    
   176   89  210 1    
   177   90   91 1    
   178   90   92 1    
   179   90  211 1    
   180   91  212 1    
   181   91  213 1    
   182   91  214 1    
   183   92   93 2    
   184   92   94 am   BACKBONE|DICT|INTERRES
   185   94   95 1    
   186   94  215 1    
   187   95   96 1    
   188   95   97 1    
   189   95  216 1    
   190   96  217 1    
   191   96  218 1    
   192   96  219 1    
   193   97   98 2    
   194   97   99 am   BACKBONE|DICT|INTERRES
   195   99  100 1    
   196   99  220 1    
   197  100  101 1    
   198  100  102 1    
   199  100  221 1    
   200  101  222 1    
   201  101  223 1    
   202  101  224 1    
   203  102  103 2    
   204  102  104 am   BACKBONE|DICT|INTERRES
   205  104  105 1    
   206  104  225 1    
   207  105  106 1    
   208  105  107 1    
   209  105  226 1    
   210  106  227 1    
   211  106  228 1    
   212  106  229 1    
   213  107  108 2    
   214  107  109 am   BACKBONE|DICT|INTERRES
   215  109  110 1    
   216  109  230 1    
   217  110  111 1    
   218  110  112 1    
   219  110  231 1    
   220  111  232 1    
   221  111  233 1    
   222  111  234 1    
   223  112  113 2    
   224  112  114 am   BACKBONE|DICT|INTERRES
   225  114  115 1    
   226  114  235 1    
   227  115  116 1    
   228  115  117 1    
   229  115  236 1    
   230  116  237 1    
   231  116  238 1    
   232  116  239 1    
   233  117  118 2    
   234  117  119 am   BACKBONE|DICT|INTERRES
   235  119  120 1    
   236  119  240 1    
   237  120  121 1    
   238  120  124 1    
   239  120  241 1    
   240  121  122 am   BACKBONE|DICT|INTERRES
   241  121  123 2    
   242  122  242 1    
   243  122  243 1    
   244  124  125 1    
   245  124  244 1    
   246  124  245 1    
   247  125  126 1    
   248  126  246 1    
   249  126  247 1    
@<TRIPOS>SUBSTRUCTURE
     1 UNK         1 GROUP             0       ****    0 ROOT    
