@<TRIPOS>MOLECULE
3R540
247   249    1
SMALL
USER_CHARGES


@<TRIPOS>ATOM
      1 CA          0.1089   -8.4793  -44.4833 C.3       0 UNK        -0.1800 
      2 C           0.3127   -9.9697  -44.7117 C.2       0 UNK         0.5000 
      3 O           1.4010  -10.4799  -44.4507 O.2       0 UNK        -0.5000 
      4 N          -0.7332  -10.6636  -45.1795 N.am      1 UNK        -0.5000 
      5 CA         -0.7487  -12.0851  -45.5617 C.3       1 UNK         0.1400 
      6 C6         -2.1175  -12.4515  -46.1948 C.3       23 UNK        -0.0398 
      7 S7         -2.0507  -13.8897  -47.3138 S.3       23 UNK        -0.2404 
      8 C8         -2.2395  -13.1076  -48.9452 C.3       23 UNK        -0.0205 
      9 C9         -2.2783  -14.1484  -50.0545 C.ar      23 UNK        -0.0193 
     10 C10        -1.2270  -14.2575  -50.9706 C.ar      23 UNK        -0.1150 
     11 C11        -1.2736  -15.2028  -52.0012 C.ar      23 UNK        -0.0193 
     12 C12        -2.3799  -16.0554  -52.0926 C.ar      23 UNK        -0.1150 
     13 C13        -3.4282  -15.9721  -51.1741 C.ar      23 UNK        -0.0193 
     14 C14        -3.3821  -14.9971  -50.1728 C.ar      23 UNK        -0.1150 
     15 C15        -4.6023  -16.9388  -51.2870 C.3       23 UNK        -0.0205 
     16 S16        -5.1326  -17.6679  -49.6990 S.3       23 UNK        -0.2404 
     17 C17        -3.5687  -18.2625  -48.9637 C.3       23 UNK        -0.0398 
     18 CA         -3.0512  -19.5975  -49.5455 C.3       11 UNK         0.1400 
     19 N          -1.6770  -19.8703  -49.1243 N.am      11 UNK        -0.5000 
     20 C          -0.9204  -20.9016  -49.5217 C.2       10 UNK         0.5000 
     21 O          -1.2703  -21.6996  -50.3909 O.2       10 UNK        -0.5000 
     22 CA          0.4295  -21.0898  -48.8036 C.3       10 UNK         0.1400 
     23 CB          1.5468  -20.3014  -49.4974 C.3       10 UNK        -0.1800 
     24 N           0.3509  -20.6729  -47.4050 N.am      10 UNK        -0.5000 
     25 C          -0.0910  -21.4457  -46.4037 C.2       9 UNK         0.5000 
     26 O          -0.4060  -22.6273  -46.5387 O.2       9 UNK        -0.5000 
     27 CA         -0.2181  -20.7828  -45.0185 C.3       9 UNK         0.1400 
     28 CB          1.0609  -21.0003  -44.1967 C.3       9 UNK        -0.1800 
     29 N          -0.5025  -19.3487  -45.1010 N.am      9 UNK        -0.5000 
     30 C          -1.6741  -18.8379  -45.5085 C.2       8 UNK         0.5000 
     31 O          -2.6424  -19.5301  -45.8266 O.2       8 UNK        -0.5000 
     32 CA         -1.7624  -17.3031  -45.6396 C.3       8 UNK         0.1400 
     33 CB         -2.2371  -16.6771  -44.3226 C.3       8 UNK        -0.1800 
     34 N          -0.5052  -16.6735  -46.0474 N.am      8 UNK        -0.5000 
     35 C           0.1669  -16.9530  -47.1721 C.2       7 UNK         0.5000 
     36 O          -0.2300  -17.7571  -48.0126 O.2       7 UNK        -0.5000 
     37 CA          1.5389  -16.2864  -47.3747 C.3       7 UNK         0.1400 
     38 CB          1.4252  -15.0740  -48.3103 C.3       7 UNK        -0.1800 
     39 N           2.2059  -15.8776  -46.1379 N.am      7 UNK        -0.5000 
     40 C           2.5421  -16.6700  -45.1085 C.2       6 UNK         0.5000 
     41 O           2.2745  -17.8721  -45.0622 O.2       6 UNK        -0.5000 
     42 CA          3.3140  -16.0024  -43.9511 C.3       6 UNK         0.1400 
     43 CB          4.3216  -16.9656  -43.2990 C.3       6 UNK        -0.1800 
     44 N           4.0301  -14.8171  -44.4322 N.am      6 UNK        -0.5000 
     45 C           3.7267  -13.5536  -44.1202 C.2       5 UNK         0.5000 
     46 O           2.8891  -13.2348  -43.2729 O.2       5 UNK        -0.5000 
     47 CA          4.4607  -12.4731  -44.9315 C.3       5 UNK         0.1400 
     48 CB          3.9753  -12.4743  -46.3923 C.3       5 UNK        -0.1800 
     49 N           4.1636  -11.1700  -44.3566 N.am      5 UNK        -0.5000 
     50 C           5.0393  -10.3228  -43.8107 C.2       4 UNK         0.5000 
     51 O           6.2617  -10.4721  -43.8377 O.2       4 UNK        -0.5000 
     52 CA          4.4262   -9.1173  -43.0788 C.3       4 UNK         0.1400 
     53 CB          4.0479   -8.0086  -44.0734 C.3       4 UNK        -0.1800 
     54 N           3.2392   -9.5103  -42.3160 N.am      4 UNK        -0.5000 
     55 C           3.2779  -10.1250  -41.1267 C.2       3 UNK         0.5000 
     56 O           4.3188  -10.3833  -40.5212 O.2       3 UNK        -0.5000 
     57 CA          1.9288  -10.5223  -40.5159 C.3       3 UNK         0.1400 
     58 CB          1.0238   -9.2998  -40.2687 C.3       3 UNK        -0.1800 
     59 N           1.2541  -11.5088  -41.3574 N.am      3 UNK        -0.5000 
     60 C           0.3470  -12.3861  -40.9107 C.2       2 UNK         0.5000 
     61 O          -0.0405  -12.4236  -39.7410 O.2       2 UNK        -0.5000 
     62 CA         -0.2434  -13.3582  -41.9480 C.3       2 UNK         0.1400 
     63 CB         -1.4841  -14.1106  -41.4306 C.3       2 UNK        -0.1800 
     64 N          -0.5907  -12.6274  -43.1639 N.am      2 UNK        -0.5000 
     65 C          -0.3788  -13.0572  -44.4132 C.2       1 UNK         0.5000 
     66 O           0.0936  -14.1629  -44.6816 O.2       1 UNK        -0.5000 
     67 C          -3.9805  -20.7778  -49.2052 C.2       11 UNK         0.5000 
     68 O          -4.6567  -21.2861  -50.0974 O.2       11 UNK        -0.5000 
     69 N          -3.9364  -21.2296  -47.9459 N.am      12 UNK        -0.5000 
     70 CA         -4.7210  -22.3483  -47.4256 C.3       12 UNK         0.1400 
     71 CB         -5.2472  -21.9657  -46.0312 C.3       12 UNK        -0.1800 
     72 C          -3.9208  -23.6678  -47.3996 C.2       12 UNK         0.5000 
     73 O          -4.1756  -24.5103  -46.5360 O.2       12 UNK        -0.5000 
     74 N          -2.9755  -23.8436  -48.3349 N.am      13 UNK        -0.5000 
     75 CA         -2.1040  -25.0182  -48.4386 C.3       13 UNK         0.1400 
     76 CB         -1.1364  -24.8427  -49.6155 C.3       13 UNK        -0.1800 
     77 C          -2.8733  -26.3478  -48.5598 C.2       13 UNK         0.5000 
     78 O          -3.8334  -26.4377  -49.3306 O.2       13 UNK        -0.5000 
     79 N          -2.4363  -27.3408  -47.7711 N.am      14 UNK        -0.5000 
     80 CA         -3.0284  -28.6745  -47.6102 C.3       14 UNK         0.1400 
     81 CB         -2.8633  -29.5013  -48.9026 C.3       14 UNK        -0.1800 
     82 C          -4.4893  -28.6200  -47.1134 C.2       14 UNK         0.5000 
     83 O          -5.3347  -29.3636  -47.6086 O.2       14 UNK        -0.5000 
     84 N          -4.7721  -27.7000  -46.1769 N.am      15 UNK        -0.5000 
     85 CA         -6.1079  -27.3561  -45.6650 C.3       15 UNK         0.1400 
     86 CB         -6.7048  -28.5181  -44.8436 C.3       15 UNK        -0.1800 
     87 C          -7.0442  -26.8580  -46.7887 C.2       15 UNK         0.5000 
     88 O          -8.2172  -27.2294  -46.8462 O.2       15 UNK        -0.5000 
     89 N          -6.4639  -26.0452  -47.6807 N.am      16 UNK        -0.5000 
     90 CA         -7.0226  -25.4706  -48.9053 C.3       16 UNK         0.1400 
     91 CB         -8.2331  -24.5662  -48.5982 C.3       16 UNK        -0.1800 
     92 C          -7.3068  -26.4903  -50.0302 C.2       16 UNK         0.5000 
     93 O          -7.9225  -26.1164  -51.0293 O.2       16 UNK        -0.5000 
     94 N          -6.8270  -27.7372  -49.9029 N.am      17 UNK        -0.5000 
     95 CA         -6.9165  -28.7518  -50.9592 C.3       17 UNK         0.1400 
     96 CB         -6.7144  -30.1508  -50.3594 C.3       17 UNK        -0.1800 
     97 C          -5.9142  -28.5100  -52.1055 C.2       17 UNK         0.5000 
     98 O          -6.1415  -28.9948  -53.2145 O.2       17 UNK        -0.5000 
     99 N          -4.8387  -27.7626  -51.8274 N.am      18 UNK        -0.5000 
    100 CA        -3.8033  -27.3672  -52.7801 C.3       18 UNK         0.1400 
    101 CB        -2.5160  -28.1566  -52.4765 C.3       18 UNK        -0.1800 
    102 C         -3.5978  -25.8435  -52.7072 C.2       18 UNK         0.5000 
    103 O         -2.4605  -25.3760  -52.7559 O.2       18 UNK        -0.5000 
    104 N         -4.7089  -25.1083  -52.5494 N.am      19 UNK        -0.5000 
    105 CA        -4.7735  -23.6679  -52.2994 C.3       19 UNK         0.1400 
    106 CB        -6.2512  -23.2488  -52.2202 C.3       19 UNK        -0.1800 
    107 C         -4.0373  -22.7864  -53.3277 C.2       19 UNK         0.5000 
    108 O         -3.9140  -23.1613  -54.4965 O.2       19 UNK        -0.5000 
    109 N         -3.6192  -21.6022  -52.8592 N.am      20 UNK        -0.5000 
    110 CA        -2.8873  -20.5615  -53.5904 C.3       20 UNK         0.1400 
    111 CB        -3.7687  -19.9350  -54.6901 C.3       20 UNK        -0.1800 
    112 C         -1.5159  -21.0477  -54.1035 C.2       20 UNK         0.5000 
    113 O         -1.1578  -20.8144  -55.2589 O.2       20 UNK        -0.5000 
    114 N         -0.7576  -21.6991  -53.2131 N.am      21 UNK        -0.5000 
    115 CA         0.5854  -22.2293  -53.4636 C.3       21 UNK         0.1400 
    116 CB         0.8090  -23.4354  -52.5346 C.3       21 UNK        -0.1800 
    117 C          1.7011  -21.1750  -53.2819 C.2       21 UNK         0.5000 
    118 O          2.8767  -21.5401  -53.2457 O.2       21 UNK        -0.5000 
    119 N          1.3250  -19.8978  -53.1320 N.am      22 UNK        -0.5000 
    120 CA         2.2114  -18.7528  -52.8632 C.3       22 UNK         0.1400 
    121 C          3.2226  -18.3859  -53.9931 C.2       22 UNK         0.5000 
    122 N          3.0795  -18.8971  -55.2098 N.am      22 UNK        -0.7600 
    123 O          4.1598  -17.6290  -53.7547 O.2       22 UNK        -0.5000 
    124 C124        1.3946  -17.5182  -52.3945 C.3       23 UNK        -0.0398 
    125 S125        0.2349  -16.9089  -53.6677 S.3       23 UNK        -0.2404 
    126 C126       -0.1595  -15.2389  -53.0452 C.3       23 UNK        -0.0205 
    127 H127        0.7615   -7.9089  -45.1440 H         1 UNK         0.0600 
    128 H128        0.3512   -8.2149  -43.4552 H         1 UNK         0.0600 
    129 H129       -0.9201   -8.1760  -44.6777 H         1 UNK         0.0600 
    130 H130       -1.5972  -10.1669  -45.3442 H         1 UNK         0.3000 
    131 H131        0.0235  -12.1980  -46.3256 H         1 UNK         0.0600 
    132 H132       -2.5039  -11.6068  -46.7668 H         1 UNK         0.0800 
    133 H133       -2.8662  -12.6433  -45.4239 H         1 UNK         0.0800 
    134 H134       -1.4212  -12.4032  -49.1029 H         1 UNK         0.0800 
    135 H135       -3.1629  -12.5271  -48.9678 H         1 UNK         0.0800 
    136 H136       -0.3798  -13.5906  -50.8930 H         1 UNK         0.1150 
    137 H137       -2.4333  -16.7830  -52.8895 H         1 UNK         0.1150 
    138 H138       -4.1952  -14.9134  -49.4654 H         1 UNK         0.1150 
    139 H139       -5.4477  -16.4096  -51.7281 H         1 UNK         0.0800 
    140 H140       -4.3620  -17.7542  -51.9709 H         1 UNK         0.0800 
    141 H141       -3.7390  -18.3575  -47.8922 H         1 UNK         0.0800 
    142 H142       -2.8060  -17.4906  -49.0660 H         1 UNK         0.0800 
    143 H143       -3.0266  -19.4968  -50.6301 H         1 UNK         0.0600 
    144 H144       -1.2574  -19.1938  -48.4916 H         1 UNK         0.3000 
    145 H145        0.6956  -22.1469  -48.8450 H         1 UNK         0.0600 
    146 H146        2.4829  -20.3703  -48.9432 H         1 UNK         0.0600 
    147 H147        1.7344  -20.7057  -50.4890 H         1 UNK         0.0600 
    148 H148        1.2993  -19.2458  -49.6068 H         1 UNK         0.0600 
    149 H149        0.5479  -19.7002  -47.2132 H         1 UNK         0.3000 
    150 H150       -1.0457  -21.2660  -44.4947 H         1 UNK         0.0600 
    151 H151        1.2661  -22.0640  -44.0697 H         1 UNK         0.0600 
    152 H152        0.9703  -20.5651  -43.2013 H         1 UNK         0.0600 
    153 H153        1.9311  -20.5545  -44.6799 H         1 UNK         0.0600 
    154 H154        0.2688  -18.7197  -44.9072 H         1 UNK         0.3000 
    155 H155       -2.5029  -17.0736  -46.4065 H         1 UNK         0.0600 
    156 H156       -1.5025  -16.8133  -43.5281 H         1 UNK         0.0600 
    157 H157       -3.1740  -17.1250  -43.9889 H         1 UNK         0.0600 
    158 H158       -2.4131  -15.6078  -44.4409 H         1 UNK         0.0600 
    159 H159       -0.1440  -15.9387  -45.4448 H         1 UNK         0.3000 
    160 H160        2.1795  -17.0269  -47.8577 H         1 UNK         0.0600 
    161 H161        0.8657  -14.2609  -47.8477 H         1 UNK         0.0600 
    162 H162        0.9143  -15.3413  -49.2363 H         1 UNK         0.0600 
    163 H163        2.4089  -14.6911  -48.5821 H         1 UNK         0.0600 
    164 H164        2.3997  -14.8927  -46.0437 H         1 UNK         0.3000 
    165 H165        2.5713  -15.7268  -43.1997 H         1 UNK         0.0600 
    166 H166        4.8600  -16.4785  -42.4858 H         1 UNK         0.0600 
    167 H167        3.8179  -17.8359  -42.8763 H         1 UNK         0.0600 
    168 H168        5.0564  -17.3271  -44.0192 H         1 UNK         0.0600 
    169 H169        4.7322  -14.9889  -45.1387 H         1 UNK         0.3000 
    170 H170        5.5323  -12.6803  -44.8998 H         1 UNK         0.0600 
    171 H171        4.2150  -13.4131  -46.8926 H         1 UNK         0.0600 
    172 H172        2.8955  -12.3296  -46.4572 H         1 UNK         0.0600 
    173 H173        4.4511  -11.6765  -46.9629 H         1 UNK         0.0600 
    174 H174        3.1707  -10.9661  -44.2626 H         1 UNK         0.3000 
    175 H175        5.1756   -8.7173  -42.3923 H         1 UNK         0.0600 
    176 H176        3.3098   -8.3507  -44.7997 H         1 UNK         0.0600 
    177 H177        3.6349   -7.1409  -43.5587 H         1 UNK         0.0600 
    178 H178        4.9229   -7.6710  -44.6301 H         1 UNK         0.0600 
    179 H179        2.3495   -9.3950  -42.7812 H         1 UNK         0.3000 
    180 H180        2.1486  -10.9802  -39.5487 H         1 UNK         0.0600 
    181 H181        0.1413   -9.5732  -39.6903 H         1 UNK         0.0600 
    182 H182        0.6821   -8.8510  -41.2005 H         1 UNK         0.0600 
    183 H183        1.5521   -8.5297  -39.7053 H         1 UNK         0.0600 
    184 H184        1.5874  -11.6037  -42.3115 H         1 UNK         0.3000 
    185 H185        0.5373  -14.0909  -42.1620 H         1 UNK         0.0600 
    186 H186       -1.8771  -14.7903  -42.1842 H         1 UNK         0.0600 
    187 H187       -1.2426  -14.7084  -40.5510 H         1 UNK         0.0600 
    188 H188       -2.2838  -13.4223  -41.1548 H         1 UNK         0.0600 
    189 H189       -0.9495  -11.6927  -43.0309 H         1 UNK         0.3000 
    190 H190       -3.3401  -20.7545  -47.2743 H         1 UNK         0.3000 
    191 H191       -5.5878  -22.5211  -48.0667 H         1 UNK         0.0600 
    192 H192       -5.9123  -22.7338  -45.6344 H         1 UNK         0.0600 
    193 H193       -5.8150  -21.0357  -46.0665 H         1 UNK         0.0600 
    194 H194       -4.4319  -21.8323  -45.3188 H         1 UNK         0.0600 
    195 H195       -2.8229  -23.1117  -49.0138 H         1 UNK         0.3000 
    196 H196       -1.5105  -25.0543  -47.5228 H         1 UNK         0.0600 
    197 H197       -1.6543  -24.5012  -50.5101 H         1 UNK         0.0600 
    198 H198       -0.3673  -24.1106  -49.3787 H         1 UNK         0.0600 
    199 H199       -0.6255  -25.7743  -49.8626 H         1 UNK         0.0600 
    200 H200       -1.6406  -27.1553  -47.1762 H         1 UNK         0.3000 
    201 H201       -2.4593  -29.1740  -46.8250 H         1 UNK         0.0600 
    202 H202       -3.4648  -29.1022  -49.7183 H         1 UNK         0.0600 
    203 H203       -3.1725  -30.5354  -48.7472 H         1 UNK         0.0600 
    204 H204       -1.8241  -29.5195  -49.2307 H         1 UNK         0.0600 
    205 H205       -4.0213  -27.1006  -45.8616 H         1 UNK         0.3000 
    206 H206       -5.9696  -26.5112  -44.9887 H         1 UNK         0.0600 
    207 H207       -6.0194  -28.8384  -44.0591 H         1 UNK         0.0600 
    208 H208       -7.6334  -28.2149  -44.3589 H         1 UNK         0.0600 
    209 H209       -6.9307  -29.3841  -45.4663 H         1 UNK         0.0600 
    210 H210       -5.4889  -25.8213  -47.5149 H         1 UNK         0.3000 
    211 H211       -6.2336  -24.8282  -49.2978 H         1 UNK         0.0600 
    212 H212       -8.5377  -24.0048  -49.4821 H         1 UNK         0.0600 
    213 H213       -7.9957  -23.8394  -47.8213 H         1 UNK         0.0600 
    214 H214       -9.0969  -25.1431  -48.2674 H         1 UNK         0.0600 
    215 H215       -6.3287  -27.9970  -49.0604 H         1 UNK         0.3000 
    216 H216       -7.9215  -28.7161  -51.3851 H         1 UNK         0.0600 
    217 H217       -5.6890  -30.3009  -50.0220 H         1 UNK         0.0600 
    218 H218       -6.9267  -30.9233  -51.0994 H         1 UNK         0.0600 
    219 H219       -7.3781  -30.3204  -49.5114 H         1 UNK         0.0600 
    220 H220       -4.7283  -27.3814  -50.8916 H         1 UNK         0.3000 
    221 H221       -4.1137  -27.5919  -53.8022 H         1 UNK         0.0600 
    222 H222       -2.6966  -29.2312  -52.5011 H         1 UNK         0.0600 
    223 H223       -2.1165  -27.9055  -51.4931 H         1 UNK         0.0600 
    224 H224       -1.7406  -27.9402  -53.2122 H         1 UNK         0.0600 
    225 H225       -5.5926  -25.5961  -52.5437 H         1 UNK         0.3000 
    226 H226       -4.3070  -23.5103  -51.3257 H         1 UNK         0.0600 
    227 H227       -6.7905  -23.5067  -53.1323 H         1 UNK         0.0600 
    228 H228       -6.7562  -23.7265  -51.3836 H         1 UNK         0.0600 
    229 H229       -6.3525  -22.1724  -52.0753 H         1 UNK         0.0600 
    230 H230       -3.8212  -21.4012  -51.8846 H         1 UNK         0.3000 
    231 H231       -2.6689  -19.7722  -52.8715 H         1 UNK         0.0600 
    232 H232       -3.9954  -20.6460  -55.4849 H         1 UNK         0.0600 
    233 H233       -3.2698  -19.0805  -55.1490 H         1 UNK         0.0600 
    234 H234       -4.7131  -19.5764  -54.2808 H         1 UNK         0.0600 
    235 H235       -1.1084  -21.8233  -52.2659 H         1 UNK         0.3000 
    236 H236        0.6403  -22.5839  -54.4946 H         1 UNK         0.0600 
    237 H237        0.0213  -24.1790  -52.6566 H         1 UNK         0.0600 
    238 H238        1.7556  -23.9316  -52.7513 H         1 UNK         0.0600 
    239 H239        0.8271  -23.1372  -51.4861 H         1 UNK         0.0600 
    240 H240        0.3440  -19.6807  -53.2147 H         1 UNK         0.3000 
    241 H241        2.8366  -19.0503  -52.0195 H         1 UNK         0.0600 
    242 H242        3.7406  -18.6577  -55.9318 H         1 UNK         0.3800 
    243 H243        2.3101  -19.5135  -55.4166 H         1 UNK         0.3800 
    244 H244        2.0670  -16.7107  -52.1000 H         1 UNK         0.0800 
    245 H245        0.8190  -17.7652  -51.5014 H         1 UNK         0.0800 
    246 H246       -0.4771  -14.6285  -53.8913 H         1 UNK         0.0800 
    247 H247        0.7485  -14.7735  -52.6587 H         1 UNK         0.0800 
@<TRIPOS>BOND
     1    1    2 1    
     2    1  127 1    
     3    1  128 1    
     4    1  129 1    
     5    2    3 2    
     6    2    4 am   BACKBONE|DICT|INTERRES
     7    4    5 1    
     8    4  130 1    
     9    5    6 1    
    10    5   65 1    
    11    5  131 1    
    12    6    7 1    
    13    6  132 1    
    14    6  133 1    
    15    7    8 1    
    16    8    9 1    
    17    8  134 1    
    18    8  135 1    
    19    9   10 ar   
    20    9   14 ar   
    21   10   11 ar   
    22   10  136 1    
    23   11   12 ar   
    24   11  126 1    
    25   12   13 ar   
    26   12  137 1    
    27   13   14 ar   
    28   13   15 1    
    29   14  138 1    
    30   15   16 1    
    31   15  139 1    
    32   15  140 1    
    33   16   17 1    
    34   17   18 1    
    35   17  141 1    
    36   17  142 1    
    37   18   19 1    
    38   18   67 1    
    39   18  143 1    
    40   19   20 am   BACKBONE|DICT|INTERRES
    41   19  144 1    
    42   20   21 2    
    43   20   22 1    
    44   22   23 1    
    45   22   24 1    
    46   22  145 1    
    47   23  146 1    
    48   23  147 1    
    49   23  148 1    
    50   24   25 am   BACKBONE|DICT|INTERRES
    51   24  149 1    
    52   25   26 2    
    53   25   27 1    
    54   27   28 1    
    55   27   29 1    
    56   27  150 1    
    57   28  151 1    
    58   28  152 1    
    59   28  153 1    
    60   29   30 am   BACKBONE|DICT|INTERRES
    61   29  154 1    
    62   30   31 2    
    63   30   32 1    
    64   32   33 1    
    65   32   34 1    
    66   32  155 1    
    67   33  156 1    
    68   33  157 1    
    69   33  158 1    
    70   34   35 am   BACKBONE|DICT|INTERRES
    71   34  159 1    
    72   35   36 2    
    73   35   37 1    
    74   37   38 1    
    75   37   39 1    
    76   37  160 1    
    77   38  161 1    
    78   38  162 1    
    79   38  163 1    
    80   39   40 am   BACKBONE|DICT|INTERRES
    81   39  164 1    
    82   40   41 2    
    83   40   42 1    
    84   42   43 1    
    85   42   44 1    
    86   42  165 1    
    87   43  166 1    
    88   43  167 1    
    89   43  168 1    
    90   44   45 am   BACKBONE|DICT|INTERRES
    91   44  169 1    
    92   45   46 2    
    93   45   47 1    
    94   47   48 1    
    95   47   49 1    
    96   47  170 1    
    97   48  171 1    
    98   48  172 1    
    99   48  173 1    
   100   49   50 am   BACKBONE|DICT|INTERRES
   101   49  174 1    
   102   50   51 2    
   103   50   52 1    
   104   52   53 1    
   105   52   54 1    
   106   52  175 1    
   107   53  176 1    
   108   53  177 1    
   109   53  178 1    
   110   54   55 am   BACKBONE|DICT|INTERRES
   111   54  179 1    
   112   55   56 2    
   113   55   57 1    
   114   57   58 1    
   115   57   59 1    
   116   57  180 1    
   117   58  181 1    
   118   58  182 1    
   119   58  183 1    
   120   59   60 am   BACKBONE|DICT|INTERRES
   121   59  184 1    
   122   60   61 2    
   123   60   62 1    
   124   62   63 1    
   125   62   64 1    
   126   62  185 1    
   127   63  186 1    
   128   63  187 1    
   129   63  188 1    
   130   64   65 am   BACKBONE|DICT|INTERRES
   131   64  189 1    
   132   65   66 2    
   133   67   68 2    
   134   67   69 am   BACKBONE|DICT|INTERRES
   135   69   70 1    
   136   69  190 1    
   137   70   71 1    
   138   70   72 1    
   139   70  191 1    
   140   71  192 1    
   141   71  193 1    
   142   71  194 1    
   143   72   73 2    
   144   72   74 am   BACKBONE|DICT|INTERRES
   145   74   75 1    
   146   74  195 1    
   147   75   76 1    
   148   75   77 1    
   149   75  196 1    
   150   76  197 1    
   151   76  198 1    
   152   76  199 1    
   153   77   78 2    
   154   77   79 am   BACKBONE|DICT|INTERRES
   155   79   80 1    
   156   79  200 1    
   157   80   81 1    
   158   80   82 1    
   159   80  201 1    
   160   81  202 1    
   161   81  203 1    
   162   81  204 1    
   163   82   83 2    
   164   82   84 am   BACKBONE|DICT|INTERRES
   165   84   85 1    
   166   84  205 1    
   167   85   86 1    
   168   85   87 1    
   169   85  206 1    
   170   86  207 1    
   171   86  208 1    
   172   86  209 1    
   173   87   88 2    
   174   87   89 am   BACKBONE|DICT|INTERRES
   175   89   90 1    
   176   89  210 1    
   177   90   91 1    
   178   90   92 1    
   179   90  211 1    
   180   91  212 1    
   181   91  213 1    
   182   91  214 1    
   183   92   93 2    
   184   92   94 am   BACKBONE|DICT|INTERRES
   185   94   95 1    
   186   94  215 1    
   187   95   96 1    
   188   95   97 1    
   189   95  216 1    
   190   96  217 1    
   191   96  218 1    
   192   96  219 1    
   193   97   98 2    
   194   97   99 am   BACKBONE|DICT|INTERRES
   195   99  100 1    
   196   99  220 1    
   197  100  101 1    
   198  100  102 1    
   199  100  221 1    
   200  101  222 1    
   201  101  223 1    
   202  101  224 1    
   203  102  103 2    
   204  102  104 am   BACKBONE|DICT|INTERRES
   205  104  105 1    
   206  104  225 1    
   207  105  106 1    
   208  105  107 1    
   209  105  226 1    
   210  106  227 1    
   211  106  228 1    
   212  106  229 1    
   213  107  108 2    
   214  107  109 am   BACKBONE|DICT|INTERRES
   215  109  110 1    
   216  109  230 1    
   217  110  111 1    
   218  110  112 1    
   219  110  231 1    
   220  111  232 1    
   221  111  233 1    
   222  111  234 1    
   223  112  113 2    
   224  112  114 am   BACKBONE|DICT|INTERRES
   225  114  115 1    
   226  114  235 1    
   227  115  116 1    
   228  115  117 1    
   229  115  236 1    
   230  116  237 1    
   231  116  238 1    
   232  116  239 1    
   233  117  118 2    
   234  117  119 am   BACKBONE|DICT|INTERRES
   235  119  120 1    
   236  119  240 1    
   237  120  121 1    
   238  120  124 1    
   239  120  241 1    
   240  121  122 am   BACKBONE|DICT|INTERRES
   241  121  123 2    
   242  122  242 1    
   243  122  243 1    
   244  124  125 1    
   245  124  244 1    
   246  124  245 1    
   247  125  126 1    
   248  126  246 1    
   249  126  247 1    
@<TRIPOS>SUBSTRUCTURE
     1 UNK         1 GROUP             0       ****    0 ROOT    
