@<TRIPOS>MOLECULE
3R540
247   249    1
SMALL
USER_CHARGES


@<TRIPOS>ATOM
      1 CA         -3.3364  -12.2831  -51.9042 C.3       0 UNK        -0.1800 
      2 C          -2.0979  -12.8435  -51.2216 C.2       0 UNK         0.5000 
      3 O          -2.2156  -13.5078  -50.1913 O.2       0 UNK        -0.5000 
      4 N          -0.9118  -12.5672  -51.7841 N.am      1 UNK        -0.5000 
      5 CA          0.4228  -12.9596  -51.3080 C.3       1 UNK         0.1400 
      6 C6          0.6052  -14.4997  -51.2138 C.3       23 UNK        -0.0398 
      7 S7          2.2662  -15.0678  -50.7038 S.3       23 UNK        -0.2404 
      8 C8          1.9788  -15.5986  -48.9832 C.3       23 UNK        -0.0205 
      9 C9          1.1117  -16.8463  -48.8916 C.ar      23 UNK        -0.0193 
     10 C10        -0.2562  -16.7410  -48.6191 C.ar      23 UNK        -0.1150 
     11 C11        -1.0590  -17.8829  -48.5569 C.ar      23 UNK        -0.0193 
     12 C12        -0.4762  -19.1412  -48.7280 C.ar      23 UNK        -0.1150 
     13 C13         0.8941  -19.2622  -48.9780 C.ar      23 UNK        -0.0193 
     14 C14         1.6808  -18.1104  -49.0676 C.ar      23 UNK        -0.1150 
     15 C15         1.5217  -20.6364  -49.1611 C.3       23 UNK        -0.0205 
     16 S16         2.6038  -21.1088  -47.7698 S.3       23 UNK        -0.2404 
     17 C17         1.4674  -21.0640  -46.3413 C.3       23 UNK        -0.0398 
     18 CA          0.8681  -22.4429  -45.9760 C.3       11 UNK         0.1400 
     19 N           0.3406  -22.4503  -44.6116 N.am      11 UNK        -0.5000 
     20 C          -0.1508  -23.5178  -43.9685 C.2       10 UNK         0.5000 
     21 O          -0.1600  -24.6571  -44.4326 O.2       10 UNK        -0.5000 
     22 CA         -0.7908  -23.2522  -42.5955 C.3       10 UNK         0.1400 
     23 CB          0.2772  -23.1703  -41.4943 C.3       10 UNK        -0.1800 
     24 N          -1.5937  -22.0285  -42.5973 N.am      10 UNK        -0.5000 
     25 C          -2.7451  -21.8805  -43.2680 C.2       9 UNK         0.5000 
     26 O          -3.2734  -22.7764  -43.9264 O.2       9 UNK        -0.5000 
     27 CA         -3.3897  -20.4825  -43.2289 C.3       9 UNK         0.1400 
     28 CB         -4.1720  -20.2790  -41.9229 C.3       9 UNK        -0.1800 
     29 N          -2.4090  -19.4061  -43.3811 N.am      9 UNK        -0.5000 
     30 C          -1.6946  -19.1916  -44.4946 C.2       8 UNK         0.5000 
     31 O          -1.8056  -19.8666  -45.5161 O.2       8 UNK        -0.5000 
     32 CA         -0.6363  -18.0754  -44.4408 C.3       8 UNK         0.1400 
     33 CB         -1.2673  -16.7166  -44.7758 C.3       8 UNK        -0.1800 
     34 N           0.0634  -17.9918  -43.1541 N.am      8 UNK        -0.5000 
     35 C           0.7724  -18.9925  -42.6058 C.2       7 UNK         0.5000 
     36 O           0.8871  -20.0978  -43.1336 O.2       7 UNK        -0.5000 
     37 CA          1.4654  -18.7510  -41.2519 C.3       7 UNK         0.1400 
     38 CB          2.9851  -18.9476  -41.3742 C.3       7 UNK        -0.1800 
     39 N           1.1888  -17.4274  -40.6939 N.am      7 UNK        -0.5000 
     40 C           0.1113  -17.1291  -39.9536 C.2       6 UNK         0.5000 
     41 O          -0.7548  -17.9524  -39.6555 O.2       6 UNK        -0.5000 
     42 CA         -0.0432  -15.6697  -39.4772 C.3       6 UNK         0.1400 
     43 CB          0.4322  -15.5274  -38.0233 C.3       6 UNK        -0.1800 
     44 N           0.6680  -14.6934  -40.3059 N.am      6 UNK        -0.5000 
     45 C           0.3849  -14.4236  -41.5869 C.2       5 UNK         0.5000 
     46 O          -0.5266  -14.9739  -42.2052 O.2       5 UNK        -0.5000 
     47 CA          1.2814  -13.4021  -42.3188 C.3       5 UNK         0.1400 
     48 CB          2.3250  -12.7087  -41.4144 C.3       5 UNK        -0.1800 
     49 N           1.9433  -13.9934  -43.4848 N.am      5 UNK        -0.5000 
     50 C           2.7193  -15.0896  -43.5071 C.2       4 UNK         0.5000 
     51 O           2.9653  -15.7677  -42.5092 O.2       4 UNK        -0.5000 
     52 CA          3.3375  -15.5018  -44.8602 C.3       4 UNK         0.1400 
     53 CB          2.6230  -16.7286  -45.4470 C.3       4 UNK        -0.1800 
     54 N           3.3266  -14.4276  -45.8542 N.am      4 UNK        -0.5000 
     55 C           4.1493  -13.3712  -45.8417 C.2       3 UNK         0.5000 
     56 O           5.0575  -13.2247  -45.0229 O.2       3 UNK        -0.5000 
     57 CA          3.9202  -12.2886  -46.9152 C.3       3 UNK         0.1400 
     58 CB          4.9007  -12.4854  -48.0818 C.3       3 UNK        -0.1800 
     59 N           2.5618  -12.2078  -47.4637 N.am      3 UNK        -0.5000 
     60 C           1.4233  -12.0059  -46.7893 C.2       2 UNK         0.5000 
     61 O           1.3580  -12.0033  -45.5602 O.2       2 UNK        -0.5000 
     62 CA          0.1297  -11.7793  -47.6038 C.3       2 UNK         0.1400 
     63 CB         -0.1842  -10.2754  -47.7039 C.3       2 UNK        -0.1800 
     64 N           0.0650  -12.4054  -48.9345 N.am      2 UNK        -0.5000 
     65 C           0.8204  -12.1984  -50.0230 C.2       1 UNK         0.5000 
     66 O           1.7913  -11.4417  -50.0493 O.2       1 UNK        -0.5000 
     67 C          -0.2000  -22.8948  -46.9919 C.2       11 UNK         0.5000 
     68 O           0.0674  -23.7924  -47.7892 O.2       11 UNK        -0.5000 
     69 N          -1.4023  -22.3047  -46.9169 N.am      12 UNK        -0.5000 
     70 CA         -2.5497  -22.6564  -47.7526 C.3       12 UNK         0.1400 
     71 CB         -3.7021  -21.6749  -47.5021 C.3       12 UNK        -0.1800 
     72 C          -3.0208  -24.1053  -47.5504 C.2       12 UNK         0.5000 
     73 O          -3.3397  -24.7704  -48.5350 O.2       12 UNK        -0.5000 
     74 N          -3.0260  -24.5807  -46.2974 N.am      13 UNK        -0.5000 
     75 CA         -3.3441  -25.9651  -45.9468 C.3       13 UNK         0.1400 
     76 CB         -3.4768  -26.1007  -44.4225 C.3       13 UNK        -0.1800 
     77 C          -2.3146  -26.9659  -46.5036 C.2       13 UNK         0.5000 
     78 O          -2.7098  -27.9850  -47.0700 O.2       13 UNK        -0.5000 
     79 N          -1.0207  -26.6422  -46.3675 N.am      14 UNK        -0.5000 
     80 CA          0.0971  -27.4345  -46.8847 C.3       14 UNK         0.1400 
     81 CB          1.4171  -26.8874  -46.3201 C.3       14 UNK        -0.1800 
     82 C           0.1402  -27.4788  -48.4234 C.2       14 UNK         0.5000 
     83 O           0.3952  -28.5397  -48.9946 O.2       14 UNK        -0.5000 
     84 N          -0.1302  -26.3343  -49.0648 N.am      15 UNK        -0.5000 
     85 CA         -0.1991  -26.1864  -50.5196 C.3       15 UNK         0.1400 
     86 CB         -0.1048  -24.6927  -50.8704 C.3       15 UNK        -0.1800 
     87 C          -1.4708  -26.7946  -51.1434 C.2       15 UNK         0.5000 
     88 O          -1.4936  -27.0055  -52.3562 O.2       15 UNK        -0.5000 
     89 N          -2.5000  -27.0376  -50.3165 N.am      16 UNK        -0.5000 
     90 CA         -3.8625  -27.4429  -50.6775 C.3       16 UNK         0.1400 
     91 CB         -3.8797  -28.8566  -51.2957 C.3       16 UNK        -0.1800 
     92 C          -4.5442  -26.3718  -51.5548 C.2       16 UNK         0.5000 
     93 O          -5.0415  -26.6789  -52.6394 O.2       16 UNK        -0.5000 
     94 N          -4.5129  -25.1304  -51.0466 N.am      17 UNK        -0.5000 
     95 CA         -4.8446  -23.8570  -51.6881 C.3       17 UNK         0.1400 
     96 CB         -6.2778  -23.8317  -52.2565 C.3       17 UNK        -0.1800 
     97 C          -3.7821  -23.4906  -52.7395 C.2       17 UNK         0.5000 
     98 O          -3.7915  -24.0294  -53.8474 O.2       17 UNK        -0.5000 
     99 N          -2.8722  -22.5815  -52.3594 N.am      18 UNK        -0.5000 
    100 CA        -1.7648  -22.0946  -53.1912 C.3       18 UNK         0.1400 
    101 CB        -0.8775  -21.1679  -52.3431 C.3       18 UNK        -0.1800 
    102 C         -2.2259  -21.3786  -54.4772 C.2       18 UNK         0.5000 
    103 O         -1.5651  -21.4888  -55.5104 O.2       18 UNK        -0.5000 
    104 N         -3.3667  -20.6905  -54.3845 N.am      19 UNK        -0.5000 
    105 CA        -4.1096  -20.0399  -55.4559 C.3       19 UNK         0.1400 
    106 CB        -3.3457  -18.8122  -55.9882 C.3       19 UNK        -0.1800 
    107 C         -5.4787  -19.6470  -54.8796 C.2       19 UNK         0.5000 
    108 O         -5.6727  -19.7301  -53.6613 O.2       19 UNK        -0.5000 
    109 N         -6.4004  -19.2126  -55.7479 N.am      20 UNK        -0.5000 
    110 CA        -7.7269  -18.7102  -55.3815 C.3       20 UNK         0.1400 
    111 CB        -8.5389  -18.4505  -56.6613 C.3       20 UNK        -0.1800 
    112 C         -7.6193  -17.4435  -54.5087 C.2       20 UNK         0.5000 
    113 O         -7.3038  -16.3723  -55.0290 O.2       20 UNK        -0.5000 
    114 N         -7.8281  -17.6199  -53.1956 N.am      21 UNK        -0.5000 
    115 CA        -7.6161  -16.6425  -52.1191 C.3       21 UNK         0.1400 
    116 CB        -8.5610  -15.4307  -52.2682 C.3       21 UNK        -0.1800 
    117 C         -6.1337  -16.2377  -51.9378 C.2       21 UNK         0.5000 
    118 O         -5.8587  -15.1445  -51.4407 O.2       21 UNK        -0.5000 
    119 N         -5.2182  -17.1414  -52.3178 N.am      22 UNK        -0.5000 
    120 CA        -3.7516  -16.9985  -52.3031 C.3       22 UNK         0.1400 
    121 C         -3.1949  -15.9511  -53.3145 C.2       22 UNK         0.5000 
    122 N         -1.8854  -15.9325  -53.5281 N.am      22 UNK        -0.7600 
    123 O         -3.9174  -15.1817  -53.9419 O.2       22 UNK        -0.5000 
    124 C124       -3.1677  -16.8000  -50.8768 C.3       23 UNK        -0.0398 
    125 S125       -3.5361  -18.2065  -49.7750 S.3       23 UNK        -0.2404 
    126 C126       -2.5556  -17.7581  -48.3079 C.3       23 UNK        -0.0205 
    127 H127       -3.1018  -11.8429  -52.8735 H         1 UNK         0.0600 
    128 H128       -3.7940  -11.5163  -51.2795 H         1 UNK         0.0600 
    129 H129       -4.0679  -13.0754  -52.0613 H         1 UNK         0.0600 
    130 H130       -0.9035  -11.9913  -52.6147 H         1 UNK         0.3000 
    131 H131        1.1102  -12.6145  -52.0823 H         1 UNK         0.0600 
    132 H132        0.4142  -14.9337  -52.1949 H         1 UNK         0.0800 
    133 H133       -0.1445  -14.9362  -50.5610 H         1 UNK         0.0800 
    134 H134        1.5281  -14.7833  -48.4189 H         1 UNK         0.0800 
    135 H135        2.9456  -15.7953  -48.5179 H         1 UNK         0.0800 
    136 H136       -0.7030  -15.7675  -48.4733 H         1 UNK         0.1150 
    137 H137       -1.0954  -20.0247  -48.6690 H         1 UNK         0.1150 
    138 H138        2.7390  -18.1995  -49.2698 H         1 UNK         0.1150 
    139 H139        0.7538  -21.3982  -49.2988 H         1 UNK         0.0800 
    140 H140        2.1113  -20.6372  -50.0789 H         1 UNK         0.0800 
    141 H141        0.6877  -20.3180  -46.4874 H         1 UNK         0.0800 
    142 H142        2.0601  -20.6961  -45.5028 H         1 UNK         0.0800 
    143 H143        1.6735  -23.1800  -45.9989 H         1 UNK         0.0600 
    144 H144        0.3557  -21.5602  -44.1190 H         1 UNK         0.3000 
    145 H145       -1.4505  -24.0917  -42.3661 H         1 UNK         0.0600 
    146 H146       -0.1780  -23.0345  -40.5132 H         1 UNK         0.0600 
    147 H147        0.9710  -22.3457  -41.6592 H         1 UNK         0.0600 
    148 H148        0.8648  -24.0885  -41.4551 H         1 UNK         0.0600 
    149 H149       -1.2022  -21.2276  -42.1250 H         1 UNK         0.3000 
    150 H150       -4.0935  -20.4186  -44.0617 H         1 UNK         0.0600 
    151 H151       -4.9176  -21.0639  -41.7886 H         1 UNK         0.0600 
    152 H152       -4.7016  -19.3262  -41.9257 H         1 UNK         0.0600 
    153 H153       -3.5161  -20.2958  -41.0515 H         1 UNK         0.0600 
    154 H154       -2.2458  -18.8142  -42.5797 H         1 UNK         0.3000 
    155 H155        0.1071  -18.3016  -45.2067 H         1 UNK         0.0600 
    156 H156       -2.0188  -16.4305  -44.0391 H         1 UNK         0.0600 
    157 H157       -1.7561  -16.7401  -45.7488 H         1 UNK         0.0600 
    158 H158       -0.5177  -15.9264  -44.8108 H         1 UNK         0.0600 
    159 H159        0.0040  -17.1077  -42.6639 H         1 UNK         0.3000 
    160 H160        1.0924  -19.5121  -40.5634 H         1 UNK         0.0600 
    161 H161        3.4228  -18.2875  -42.1225 H         1 UNK         0.0600 
    162 H162        3.2219  -19.9708  -41.6687 H         1 UNK         0.0600 
    163 H163        3.4865  -18.7606  -40.4247 H         1 UNK         0.0600 
    164 H164        1.8328  -16.6890  -40.9570 H         1 UNK         0.3000 
    165 H165       -1.1073  -15.4273  -39.5139 H         1 UNK         0.0600 
    166 H166        0.2504  -14.5214  -37.6447 H         1 UNK         0.0600 
    167 H167       -0.0986  -16.2199  -37.3685 H         1 UNK         0.0600 
    168 H168        1.4984  -15.7364  -37.9268 H         1 UNK         0.0600 
    169 H169        1.4486  -14.2189  -39.8760 H         1 UNK         0.3000 
    170 H170        0.6120  -12.6313  -42.7031 H         1 UNK         0.0600 
    171 H171        1.8467  -12.1897  -40.5828 H         1 UNK         0.0600 
    172 H172        3.0478  -13.4135  -41.0019 H         1 UNK         0.0600 
    173 H173        2.8839  -11.9600  -41.9761 H         1 UNK         0.0600 
    174 H174        1.7984  -13.4860  -44.3521 H         1 UNK         0.3000 
    175 H175        4.3743  -15.7824  -44.6632 H         1 UNK         0.0600 
    176 H176        1.6068  -16.4901  -45.7585 H         1 UNK         0.0600 
    177 H177        3.1545  -17.1149  -46.3167 H         1 UNK         0.0600 
    178 H178        2.5692  -17.5396  -44.7199 H         1 UNK         0.0600 
    179 H179        2.5974  -14.4526  -46.5486 H         1 UNK         0.3000 
    180 H180        4.1344  -11.3260  -46.4471 H         1 UNK         0.0600 
    181 H181        4.8326  -11.6654  -48.7970 H         1 UNK         0.0600 
    182 H182        4.7027  -13.4144  -48.6182 H         1 UNK         0.0600 
    183 H183        5.9321  -12.5218  -47.7283 H         1 UNK         0.0600 
    184 H184        2.4978  -12.1161  -48.4739 H         1 UNK         0.3000 
    185 H185       -0.6730  -12.2425  -47.0280 H         1 UNK         0.0600 
    186 H186        0.5797   -9.7376  -48.2664 H         1 UNK         0.0600 
    187 H187       -1.1433  -10.1051  -48.1933 H         1 UNK         0.0600 
    188 H188       -0.2401   -9.8209  -46.7139 H         1 UNK         0.0600 
    189 H189       -0.7426  -13.0065  -49.0795 H         1 UNK         0.3000 
    190 H190       -1.5425  -21.5424  -46.2570 H         1 UNK         0.3000 
    191 H191       -2.2402  -22.5547  -48.7947 H         1 UNK         0.0600 
    192 H192       -3.4120  -20.6577  -47.7586 H         1 UNK         0.0600 
    193 H193       -4.0155  -21.6797  -46.4576 H         1 UNK         0.0600 
    194 H194       -4.5721  -21.9256  -48.1102 H         1 UNK         0.0600 
    195 H195       -2.8050  -23.9533  -45.5312 H         1 UNK         0.3000 
    196 H196       -4.3125  -26.2059  -46.3903 H         1 UNK         0.0600 
    197 H197       -4.2609  -25.4491  -44.0365 H         1 UNK         0.0600 
    198 H198       -2.5491  -25.8453  -43.9107 H         1 UNK         0.0600 
    199 H199       -3.7358  -27.1225  -44.1426 H         1 UNK         0.0600 
    200 H200       -0.7774  -25.8010  -45.8508 H         1 UNK         0.3000 
    201 H201       -0.0254  -28.4588  -46.5269 H         1 UNK         0.0600 
    202 H202        1.4282  -26.9339  -45.2310 H         1 UNK         0.0600 
    203 H203        1.5799  -25.8490  -46.6109 H         1 UNK         0.0600 
    204 H204        2.2676  -27.4679  -46.6797 H         1 UNK         0.0600 
    205 H205       -0.2548  -25.4845  -48.5184 H         1 UNK         0.3000 
    206 H206        0.6608  -26.6958  -50.9593 H         1 UNK         0.0600 
    207 H207       -0.9467  -24.1322  -50.4621 H         1 UNK         0.0600 
    208 H208        0.8125  -24.2508  -50.4809 H         1 UNK         0.0600 
    209 H209       -0.1026  -24.5445  -51.9505 H         1 UNK         0.0600 
    210 H210       -2.3712  -26.7932  -49.3433 H         1 UNK         0.3000 
    211 H211       -4.4265  -27.4859  -49.7444 H         1 UNK         0.0600 
    212 H212       -3.3729  -28.8889  -52.2604 H         1 UNK         0.0600 
    213 H213       -4.9034  -29.1973  -51.4546 H         1 UNK         0.0600 
    214 H214       -3.3953  -29.5783  -50.6380 H         1 UNK         0.0600 
    215 H215       -4.0682  -25.0317  -50.1339 H         1 UNK         0.3000 
    216 H216       -4.8072  -23.1090  -50.8944 H         1 UNK         0.0600 
    217 H217       -6.5320  -22.8311  -52.6087 H         1 UNK         0.0600 
    218 H218       -7.0087  -24.1055  -51.4958 H         1 UNK         0.0600 
    219 H219       -6.4016  -24.5095  -53.1012 H         1 UNK         0.0600 
    220 H220       -2.9381  -22.1838  -51.4346 H         1 UNK         0.3000 
    221 H221       -1.1708  -22.9588  -53.4943 H         1 UNK         0.0600 
    222 H222       -1.4294  -20.2999  -51.9792 H         1 UNK         0.0600 
    223 H223       -0.4713  -21.6925  -51.4786 H         1 UNK         0.0600 
    224 H224       -0.0310  -20.7983  -52.9232 H         1 UNK         0.0600 
    225 H225       -3.8628  -20.6784  -53.5011 H         1 UNK         0.3000 
    226 H226       -4.2687  -20.7577  -56.2628 H         1 UNK         0.0600 
    227 H227       -2.4058  -19.0997  -56.4587 H         1 UNK         0.0600 
    228 H228       -3.9259  -18.2765  -56.7401 H         1 UNK         0.0600 
    229 H229       -3.1139  -18.1089  -55.1909 H         1 UNK         0.0600 
    230 H230       -6.1583  -19.1513  -56.7262 H         1 UNK         0.3000 
    231 H231       -8.2402  -19.4886  -54.8127 H         1 UNK         0.0600 
    232 H232       -9.5319  -18.0686  -56.4212 H         1 UNK         0.0600 
    233 H233       -8.6741  -19.3674  -57.2354 H         1 UNK         0.0600 
    234 H234       -8.0533  -17.7186  -57.3082 H         1 UNK         0.0600 
    235 H235       -8.0407  -18.5569  -52.8808 H         1 UNK         0.3000 
    236 H236       -7.8935  -17.1544  -51.1966 H         1 UNK         0.0600 
    237 H237       -8.2899  -14.8062  -53.1196 H         1 UNK         0.0600 
    238 H238       -9.5949  -15.7495  -52.3997 H         1 UNK         0.0600 
    239 H239       -8.5284  -14.7991  -51.3798 H         1 UNK         0.0600 
    240 H240       -5.5541  -18.0126  -52.7148 H         1 UNK         0.3000 
    241 H241       -3.3866  -17.9583  -52.6710 H         1 UNK         0.0600 
    242 H242       -1.5190  -15.2784  -54.2012 H         1 UNK         0.3800 
    243 H243       -1.2615  -16.5855  -53.0826 H         1 UNK         0.3800 
    244 H244       -3.5461  -15.8835  -50.4231 H         1 UNK         0.0800 
    245 H245       -2.0839  -16.6893  -50.9188 H         1 UNK         0.0800 
    246 H246       -2.8377  -18.4069  -47.4796 H         1 UNK         0.0800 
    247 H247       -2.8177  -16.7442  -48.0020 H         1 UNK         0.0800 
@<TRIPOS>BOND
     1    1    2 1    
     2    1  127 1    
     3    1  128 1    
     4    1  129 1    
     5    2    3 2    
     6    2    4 am   BACKBONE|DICT|INTERRES
     7    4    5 1    
     8    4  130 1    
     9    5    6 1    
    10    5   65 1    
    11    5  131 1    
    12    6    7 1    
    13    6  132 1    
    14    6  133 1    
    15    7    8 1    
    16    8    9 1    
    17    8  134 1    
    18    8  135 1    
    19    9   10 ar   
    20    9   14 ar   
    21   10   11 ar   
    22   10  136 1    
    23   11   12 ar   
    24   11  126 1    
    25   12   13 ar   
    26   12  137 1    
    27   13   14 ar   
    28   13   15 1    
    29   14  138 1    
    30   15   16 1    
    31   15  139 1    
    32   15  140 1    
    33   16   17 1    
    34   17   18 1    
    35   17  141 1    
    36   17  142 1    
    37   18   19 1    
    38   18   67 1    
    39   18  143 1    
    40   19   20 am   BACKBONE|DICT|INTERRES
    41   19  144 1    
    42   20   21 2    
    43   20   22 1    
    44   22   23 1    
    45   22   24 1    
    46   22  145 1    
    47   23  146 1    
    48   23  147 1    
    49   23  148 1    
    50   24   25 am   BACKBONE|DICT|INTERRES
    51   24  149 1    
    52   25   26 2    
    53   25   27 1    
    54   27   28 1    
    55   27   29 1    
    56   27  150 1    
    57   28  151 1    
    58   28  152 1    
    59   28  153 1    
    60   29   30 am   BACKBONE|DICT|INTERRES
    61   29  154 1    
    62   30   31 2    
    63   30   32 1    
    64   32   33 1    
    65   32   34 1    
    66   32  155 1    
    67   33  156 1    
    68   33  157 1    
    69   33  158 1    
    70   34   35 am   BACKBONE|DICT|INTERRES
    71   34  159 1    
    72   35   36 2    
    73   35   37 1    
    74   37   38 1    
    75   37   39 1    
    76   37  160 1    
    77   38  161 1    
    78   38  162 1    
    79   38  163 1    
    80   39   40 am   BACKBONE|DICT|INTERRES
    81   39  164 1    
    82   40   41 2    
    83   40   42 1    
    84   42   43 1    
    85   42   44 1    
    86   42  165 1    
    87   43  166 1    
    88   43  167 1    
    89   43  168 1    
    90   44   45 am   BACKBONE|DICT|INTERRES
    91   44  169 1    
    92   45   46 2    
    93   45   47 1    
    94   47   48 1    
    95   47   49 1    
    96   47  170 1    
    97   48  171 1    
    98   48  172 1    
    99   48  173 1    
   100   49   50 am   BACKBONE|DICT|INTERRES
   101   49  174 1    
   102   50   51 2    
   103   50   52 1    
   104   52   53 1    
   105   52   54 1    
   106   52  175 1    
   107   53  176 1    
   108   53  177 1    
   109   53  178 1    
   110   54   55 am   BACKBONE|DICT|INTERRES
   111   54  179 1    
   112   55   56 2    
   113   55   57 1    
   114   57   58 1    
   115   57   59 1    
   116   57  180 1    
   117   58  181 1    
   118   58  182 1    
   119   58  183 1    
   120   59   60 am   BACKBONE|DICT|INTERRES
   121   59  184 1    
   122   60   61 2    
   123   60   62 1    
   124   62   63 1    
   125   62   64 1    
   126   62  185 1    
   127   63  186 1    
   128   63  187 1    
   129   63  188 1    
   130   64   65 am   BACKBONE|DICT|INTERRES
   131   64  189 1    
   132   65   66 2    
   133   67   68 2    
   134   67   69 am   BACKBONE|DICT|INTERRES
   135   69   70 1    
   136   69  190 1    
   137   70   71 1    
   138   70   72 1    
   139   70  191 1    
   140   71  192 1    
   141   71  193 1    
   142   71  194 1    
   143   72   73 2    
   144   72   74 am   BACKBONE|DICT|INTERRES
   145   74   75 1    
   146   74  195 1    
   147   75   76 1    
   148   75   77 1    
   149   75  196 1    
   150   76  197 1    
   151   76  198 1    
   152   76  199 1    
   153   77   78 2    
   154   77   79 am   BACKBONE|DICT|INTERRES
   155   79   80 1    
   156   79  200 1    
   157   80   81 1    
   158   80   82 1    
   159   80  201 1    
   160   81  202 1    
   161   81  203 1    
   162   81  204 1    
   163   82   83 2    
   164   82   84 am   BACKBONE|DICT|INTERRES
   165   84   85 1    
   166   84  205 1    
   167   85   86 1    
   168   85   87 1    
   169   85  206 1    
   170   86  207 1    
   171   86  208 1    
   172   86  209 1    
   173   87   88 2    
   174   87   89 am   BACKBONE|DICT|INTERRES
   175   89   90 1    
   176   89  210 1    
   177   90   91 1    
   178   90   92 1    
   179   90  211 1    
   180   91  212 1    
   181   91  213 1    
   182   91  214 1    
   183   92   93 2    
   184   92   94 am   BACKBONE|DICT|INTERRES
   185   94   95 1    
   186   94  215 1    
   187   95   96 1    
   188   95   97 1    
   189   95  216 1    
   190   96  217 1    
   191   96  218 1    
   192   96  219 1    
   193   97   98 2    
   194   97   99 am   BACKBONE|DICT|INTERRES
   195   99  100 1    
   196   99  220 1    
   197  100  101 1    
   198  100  102 1    
   199  100  221 1    
   200  101  222 1    
   201  101  223 1    
   202  101  224 1    
   203  102  103 2    
   204  102  104 am   BACKBONE|DICT|INTERRES
   205  104  105 1    
   206  104  225 1    
   207  105  106 1    
   208  105  107 1    
   209  105  226 1    
   210  106  227 1    
   211  106  228 1    
   212  106  229 1    
   213  107  108 2    
   214  107  109 am   BACKBONE|DICT|INTERRES
   215  109  110 1    
   216  109  230 1    
   217  110  111 1    
   218  110  112 1    
   219  110  231 1    
   220  111  232 1    
   221  111  233 1    
   222  111  234 1    
   223  112  113 2    
   224  112  114 am   BACKBONE|DICT|INTERRES
   225  114  115 1    
   226  114  235 1    
   227  115  116 1    
   228  115  117 1    
   229  115  236 1    
   230  116  237 1    
   231  116  238 1    
   232  116  239 1    
   233  117  118 2    
   234  117  119 am   BACKBONE|DICT|INTERRES
   235  119  120 1    
   236  119  240 1    
   237  120  121 1    
   238  120  124 1    
   239  120  241 1    
   240  121  122 am   BACKBONE|DICT|INTERRES
   241  121  123 2    
   242  122  242 1    
   243  122  243 1    
   244  124  125 1    
   245  124  244 1    
   246  124  245 1    
   247  125  126 1    
   248  126  246 1    
   249  126  247 1    
@<TRIPOS>SUBSTRUCTURE
     1 UNK         1 GROUP             0       ****    0 ROOT    
