@<TRIPOS>MOLECULE
3R540
247   249    1
SMALL
USER_CHARGES


@<TRIPOS>ATOM
      1 CA          4.5039  -18.0469  -43.6033 C.3       0 UNK        -0.1800 
      2 C           3.7175  -16.7502  -43.7157 C.2       0 UNK         0.5000 
      3 O           3.3234  -16.1798  -42.6989 O.2       0 UNK        -0.5000 
      4 N           3.4998  -16.2702  -44.9463 N.am      1 UNK        -0.5000 
      5 CA          2.7063  -15.0755  -45.2774 C.3       1 UNK         0.1400 
      6 C6          2.4754  -14.9372  -46.8014 C.3       23 UNK        -0.0398 
      7 S7          1.7397  -16.4347  -47.5307 S.3       23 UNK        -0.2404 
      8 C8          1.9001  -16.0602  -49.3015 C.3       23 UNK        -0.0205 
      9 C9          1.4981  -17.2654  -50.1324 C.ar      23 UNK        -0.0193 
     10 C10         0.1635  -17.4592  -50.4934 C.ar      23 UNK        -0.1150 
     11 C11        -0.2190  -18.6009  -51.2012 C.ar      23 UNK        -0.0193 
     12 C12         0.7460  -19.5471  -51.5624 C.ar      23 UNK        -0.1150 
     13 C13         2.0880  -19.3549  -51.2210 C.ar      23 UNK        -0.0193 
     14 C14         2.4569  -18.2073  -50.5120 C.ar      23 UNK        -0.1150 
     15 C15         3.1457  -20.3721  -51.6258 C.3       23 UNK        -0.0205 
     16 S16         4.0297  -21.0503  -50.1816 S.3       23 UNK        -0.2404 
     17 C17         3.4958  -22.7987  -50.1353 C.3       23 UNK        -0.0398 
     18 CA          2.5027  -23.1498  -48.9979 C.3       11 UNK         0.1400 
     19 N           2.8988  -22.5797  -47.7058 N.am      11 UNK        -0.5000 
     20 C           2.3643  -22.8866  -46.5180 C.2       10 UNK         0.5000 
     21 O           1.4582  -23.7082  -46.3748 O.2       10 UNK        -0.5000 
     22 CA          2.8832  -22.1222  -45.2844 C.3       10 UNK         0.1400 
     23 CB          4.1905  -21.3339  -45.5280 C.3       10 UNK        -0.1800 
     24 N           1.8448  -21.2484  -44.7288 N.am      10 UNK        -0.5000 
     25 C           1.2123  -20.2467  -45.3574 C.2       9 UNK         0.5000 
     26 O           1.4399  -19.9169  -46.5240 O.2       9 UNK        -0.5000 
     27 CA          0.1278  -19.5071  -44.5548 C.3       9 UNK         0.1400 
     28 CB          0.5739  -19.1529  -43.1208 C.3       9 UNK        -0.1800 
     29 N          -0.2742  -18.2996  -45.2736 N.am      9 UNK        -0.5000 
     30 C          -1.4313  -17.6533  -45.1054 C.2       8 UNK         0.5000 
     31 O          -2.3015  -18.0051  -44.3027 O.2       8 UNK        -0.5000 
     32 CA         -1.6671  -16.4142  -45.9836 C.3       8 UNK         0.1400 
     33 CB         -1.9821  -16.8064  -47.4383 C.3       8 UNK        -0.1800 
     34 N          -2.7820  -15.6656  -45.4187 N.am      8 UNK        -0.5000 
     35 C          -3.0571  -14.3739  -45.6203 C.2       7 UNK         0.5000 
     36 O          -2.4193  -13.6485  -46.3854 O.2       7 UNK        -0.5000 
     37 CA         -4.2381  -13.7797  -44.8347 C.3       7 UNK         0.1400 
     38 CB         -5.0804  -14.8148  -44.0554 C.3       7 UNK        -0.1800 
     39 N          -3.7234  -12.7698  -43.9163 N.am      7 UNK        -0.5000 
     40 C          -4.4085  -11.7027  -43.4846 C.2       6 UNK         0.5000 
     41 O          -5.5600  -11.4482  -43.8415 O.2       6 UNK        -0.5000 
     42 CA         -3.7198  -10.7638  -42.4708 C.3       6 UNK         0.1400 
     43 CB         -4.3234  -10.9537  -41.0700 C.3       6 UNK        -0.1800 
     44 N          -2.2726  -10.9562  -42.3824 N.am      6 UNK        -0.5000 
     45 C          -1.3847  -10.5438  -43.2961 C.2       5 UNK         0.5000 
     46 O          -1.6868   -9.8801  -44.2885 O.2       5 UNK        -0.5000 
     47 CA          0.0853  -10.9520  -43.0739 C.3       5 UNK         0.1400 
     48 CB          0.9012   -9.7735  -42.5214 C.3       5 UNK        -0.1800 
     49 N           0.2714  -12.1070  -42.1890 N.am      5 UNK        -0.5000 
     50 C          -0.1449  -13.3556  -42.4360 C.2       4 UNK         0.5000 
     51 O          -0.8421  -13.6543  -43.4051 O.2       4 UNK        -0.5000 
     52 CA          0.2901  -14.4421  -41.4313 C.3       4 UNK         0.1400 
     53 CB         -0.0672  -15.8595  -41.9113 C.3       4 UNK        -0.1800 
     54 N           1.7273  -14.3899  -41.1621 N.am      4 UNK        -0.5000 
     55 C           2.3345  -13.5632  -40.3006 C.2       3 UNK         0.5000 
     56 O           1.7366  -12.7240  -39.6264 O.2       3 UNK        -0.5000 
     57 CA          3.8657  -13.6553  -40.2269 C.3       3 UNK         0.1400 
     58 CB          4.3088  -14.9416  -39.5113 C.3       3 UNK        -0.1800 
     59 N           4.4362  -13.6216  -41.5717 N.am      3 UNK        -0.5000 
     60 C           4.7979  -12.5029  -42.2158 C.2       2 UNK         0.5000 
     61 O           4.7703  -11.3808  -41.7091 O.2       2 UNK        -0.5000 
     62 CA          5.2608  -12.6594  -43.6782 C.3       2 UNK         0.1400 
     63 CB          6.7799  -12.8787  -43.7428 C.3       2 UNK        -0.1800 
     64 N           4.5881  -13.7614  -44.3674 N.am      2 UNK        -0.5000 
     65 C           3.2919  -13.7630  -44.7104 C.2       1 UNK         0.5000 
     66 O           2.5598  -12.7834  -44.5838 O.2       1 UNK        -0.5000 
     67 C           1.0350  -22.8719  -49.3916 C.2       11 UNK         0.5000 
     68 O           0.4963  -23.6132  -50.2117 O.2       11 UNK        -0.5000 
     69 N           0.3855  -21.8762  -48.7699 N.am      12 UNK        -0.5000 
     70 CA         -1.0501  -21.6211  -48.9094 C.3       12 UNK         0.1400 
     71 CB         -1.3876  -20.2814  -48.2434 C.3       12 UNK        -0.1800 
     72 C          -1.9338  -22.7324  -48.3086 C.2       12 UNK         0.5000 
     73 O          -3.0753  -22.8902  -48.7371 O.2       12 UNK        -0.5000 
     74 N          -1.4095  -23.4803  -47.3275 N.am      13 UNK        -0.5000 
     75 CA         -2.1405  -24.5436  -46.6379 C.3       13 UNK         0.1400 
     76 CB         -1.5338  -24.7407  -45.2400 C.3       13 UNK        -0.1800 
     77 C          -2.1582  -25.8757  -47.4114 C.2       13 UNK         0.5000 
     78 O          -2.9321  -26.7597  -47.0412 O.2       13 UNK        -0.5000 
     79 N          -1.3110  -26.0123  -48.4444 N.am      14 UNK        -0.5000 
     80 CA         -1.1138  -27.2226  -49.2471 C.3       14 UNK         0.1400 
     81 CB         -0.0192  -26.9629  -50.2939 C.3       14 UNK        -0.1800 
     82 C          -2.4185  -27.7209  -49.8990 C.2       14 UNK         0.5000 
     83 O          -2.8924  -27.1242  -50.8675 O.2       14 UNK        -0.5000 
     84 N          -3.0005  -28.7718  -49.3013 N.am      15 UNK        -0.5000 
     85 CA         -4.2940  -29.3851  -49.6314 C.3       15 UNK         0.1400 
     86 CB         -4.2230  -30.0811  -51.0069 C.3       15 UNK        -0.1800 
     87 C          -5.4933  -28.4142  -49.5275 C.2       15 UNK         0.5000 
     88 O          -6.5244  -28.6561  -50.1572 O.2       15 UNK        -0.5000 
     89 N          -5.3298  -27.3185  -48.7679 N.am      16 UNK        -0.5000 
     90 CA         -6.2216  -26.1638  -48.5791 C.3       16 UNK         0.1400 
     91 CB         -7.5430  -26.5851  -47.9107 C.3       16 UNK        -0.1800 
     92 C          -6.4885  -25.3231  -49.8482 C.2       16 UNK         0.5000 
     93 O          -6.5497  -24.0973  -49.7568 O.2       16 UNK        -0.5000 
     94 N          -6.6319  -25.9806  -51.0055 N.am      17 UNK        -0.5000 
     95 CA         -6.9292  -25.3982  -52.3152 C.3       17 UNK         0.1400 
     96 CB         -7.1510  -26.5352  -53.3233 C.3       17 UNK        -0.1800 
     97 C          -5.8588  -24.4236  -52.8382 C.2       17 UNK         0.5000 
     98 O          -6.1879  -23.5443  -53.6377 O.2       17 UNK        -0.5000 
     99 N          -4.6106  -24.5622  -52.3650 N.am      18 UNK        -0.5000 
    100 CA        -3.4937  -23.6757  -52.6970 C.3       18 UNK         0.1400 
    101 CB        -2.2115  -24.1674  -52.0185 C.3       18 UNK        -0.1800 
    102 C         -3.7563  -22.1940  -52.3710 C.2       18 UNK         0.5000 
    103 O         -3.3030  -21.3312  -53.1212 O.2       18 UNK        -0.5000 
    104 N         -4.5351  -21.9320  -51.3099 N.am      19 UNK        -0.5000 
    105 CA        -4.9825  -20.6029  -50.8888 C.3       19 UNK         0.1400 
    106 CB        -5.7504  -20.7199  -49.5639 C.3       19 UNK        -0.1800 
    107 C         -5.8388  -19.8696  -51.9391 C.2       19 UNK         0.5000 
    108 O         -5.8281  -18.6390  -51.9696 O.2       19 UNK        -0.5000 
    109 N         -6.5562  -20.6287  -52.7781 N.am      20 UNK        -0.5000 
    110 CA        -7.2895  -20.1071  -53.9277 C.3       20 UNK         0.1400 
    111 CB        -8.5404  -20.9662  -54.1713 C.3       20 UNK        -0.1800 
    112 C         -6.3915  -20.0793  -55.1749 C.2       20 UNK         0.5000 
    113 O         -6.3887  -19.0828  -55.8998 O.2       20 UNK        -0.5000 
    114 N         -5.6382  -21.1676  -55.3974 N.am      21 UNK        -0.5000 
    115 CA        -4.7964  -21.3786  -56.5783 C.3       21 UNK         0.1400 
    116 CB        -4.2289  -22.8048  -56.5591 C.3       21 UNK        -0.1800 
    117 C         -3.6604  -20.3515  -56.7498 C.2       21 UNK         0.5000 
    118 O         -3.2843  -20.0703  -57.8889 O.2       21 UNK        -0.5000 
    119 N         -3.1458  -19.7979  -55.6419 N.am      22 UNK        -0.5000 
    120 CA        -2.1512  -18.7113  -55.6543 C.3       22 UNK         0.1400 
    121 C         -2.6835  -17.3293  -56.1490 C.2       22 UNK         0.5000 
    122 N         -3.9863  -17.1337  -56.3261 N.am      22 UNK        -0.7600 
    123 O         -1.8938  -16.4213  -56.3949 O.2       22 UNK        -0.5000 
    124 C124       -1.3645  -18.6121  -54.3184 C.3       23 UNK        -0.0398 
    125 S125       -2.2966  -17.8840  -52.9245 S.3       23 UNK        -0.2404 
    126 C126       -1.6868  -18.8436  -51.5055 C.3       23 UNK        -0.0205 
    127 H127        5.3787  -17.9010  -42.9700 H         1 UNK         0.0600 
    128 H128        4.8436  -18.3979  -44.5779 H         1 UNK         0.0600 
    129 H129        3.8844  -18.8245  -43.1570 H         1 UNK         0.0600 
    130 H130        3.8399  -16.7895  -45.7436 H         1 UNK         0.3000 
    131 H131        1.7297  -15.2036  -44.8051 H         1 UNK         0.0600 
    132 H132        1.8104  -14.0976  -47.0141 H         1 UNK         0.0800 
    133 H133        3.4172  -14.7265  -47.3115 H         1 UNK         0.0800 
    134 H134        2.9290  -15.7768  -49.5282 H         1 UNK         0.0800 
    135 H135        1.2753  -15.2015  -49.5520 H         1 UNK         0.0800 
    136 H136       -0.5837  -16.7364  -50.1975 H         1 UNK         0.1150 
    137 H137        0.4495  -20.4384  -52.0973 H         1 UNK         0.1150 
    138 H138        3.4910  -18.0603  -50.2337 H         1 UNK         0.1150 
    139 H139        2.7066  -21.1731  -52.2215 H         1 UNK         0.0800 
    140 H140        3.8703  -19.8775  -52.2739 H         1 UNK         0.0800 
    141 H141        4.4018  -23.3889  -49.9915 H         1 UNK         0.0800 
    142 H142        3.1138  -23.1121  -51.1083 H         1 UNK         0.0800 
    143 H143        2.5525  -24.2337  -48.8715 H         1 UNK         0.0600 
    144 H144        3.5941  -21.8479  -47.7492 H         1 UNK         0.3000 
    145 H145        3.0934  -22.8792  -44.5275 H         1 UNK         0.0600 
    146 H146        4.9744  -21.9827  -45.9206 H         1 UNK         0.0600 
    147 H147        4.0577  -20.5093  -46.2292 H         1 UNK         0.0600 
    148 H148        4.5655  -20.9152  -44.5946 H         1 UNK         0.0600 
    149 H149        1.5609  -21.4709  -43.7855 H         1 UNK         0.3000 
    150 H150       -0.7289  -20.1818  -44.5004 H         1 UNK         0.0600 
    151 H151        0.8771  -20.0343  -42.5560 H         1 UNK         0.0600 
    152 H152       -0.2396  -18.6935  -42.5604 H         1 UNK         0.0600 
    153 H153        1.4102  -18.4557  -43.1228 H         1 UNK         0.0600 
    154 H154        0.3697  -18.0166  -46.0044 H         1 UNK         0.3000 
    155 H155       -0.7705  -15.7921  -45.9488 H         1 UNK         0.0600 
    156 H156       -2.8630  -17.4461  -47.5022 H         1 UNK         0.0600 
    157 H157       -1.1473  -17.3471  -47.8800 H         1 UNK         0.0600 
    158 H158       -2.1572  -15.9288  -48.0603 H         1 UNK         0.0600 
    159 H159       -3.3160  -16.1936  -44.7389 H         1 UNK         0.3000 
    160 H160       -4.8828  -13.3000  -45.5741 H         1 UNK         0.0600 
    161 H161       -4.5041  -15.2944  -43.2630 H         1 UNK         0.0600 
    162 H162       -5.4613  -15.5942  -44.7166 H         1 UNK         0.0600 
    163 H163       -5.9466  -14.3435  -43.5908 H         1 UNK         0.0600 
    164 H164       -2.7543  -12.8921  -43.6380 H         1 UNK         0.3000 
    165 H165       -3.9152   -9.7379  -42.7901 H         1 UNK         0.0600 
    166 H166       -3.8918  -10.2525  -40.3555 H         1 UNK         0.0600 
    167 H167       -5.4005  -10.7815  -41.0809 H         1 UNK         0.0600 
    168 H168       -4.1567  -11.9638  -40.6938 H         1 UNK         0.0600 
    169 H169       -1.9318  -11.4902  -41.5968 H         1 UNK         0.3000 
    170 H170        0.4888  -11.2166  -44.0528 H         1 UNK         0.0600 
    171 H171        0.8159   -8.8995  -43.1685 H         1 UNK         0.0600 
    172 H172        0.5622   -9.4818  -41.5266 H         1 UNK         0.0600 
    173 H173        1.9602  -10.0257  -42.4561 H         1 UNK         0.0600 
    174 H174        0.8243  -11.9566  -41.3533 H         1 UNK         0.3000 
    175 H175       -0.2531  -14.2589  -40.5021 H         1 UNK         0.0600 
    176 H176        0.4240  -16.0980  -42.8552 H         1 UNK         0.0600 
    177 H177        0.2328  -16.6094  -41.1794 H         1 UNK         0.0600 
    178 H178       -1.1419  -15.9672  -42.0642 H         1 UNK         0.0600 
    179 H179        2.3022  -15.0352  -41.6999 H         1 UNK         0.3000 
    180 H180        4.2308  -12.8060  -39.6455 H         1 UNK         0.0600 
    181 H181        5.3941  -14.9848  -39.4201 H         1 UNK         0.0600 
    182 H182        3.9830  -15.8376  -40.0408 H         1 UNK         0.0600 
    183 H183        3.8956  -14.9878  -38.5030 H         1 UNK         0.0600 
    184 H184        4.4279  -14.4965  -42.0815 H         1 UNK         0.3000 
    185 H185        5.0264  -11.7308  -44.2031 H         1 UNK         0.0600 
    186 H186        7.1285  -12.9242  -44.7747 H         1 UNK         0.0600 
    187 H187        7.3129  -12.0606  -43.2564 H         1 UNK         0.0600 
    188 H188        7.0753  -13.8040  -43.2464 H         1 UNK         0.0600 
    189 H189        5.1245  -14.6032  -44.5179 H         1 UNK         0.3000 
    190 H190        0.8931  -21.2893  -48.1165 H         1 UNK         0.3000 
    191 H191       -1.2780  -21.5498  -49.9744 H         1 UNK         0.0600 
    192 H192       -2.4021  -19.9668  -48.4906 H         1 UNK         0.0600 
    193 H193       -0.7058  -19.4987  -48.5709 H         1 UNK         0.0600 
    194 H194       -1.3209  -20.3439  -47.1574 H         1 UNK         0.0600 
    195 H195       -0.4466  -23.3347  -47.0422 H         1 UNK         0.3000 
    196 H196       -3.1787  -24.2305  -46.5078 H         1 UNK         0.0600 
    197 H197       -0.5145  -25.1242  -45.2928 H         1 UNK         0.0600 
    198 H198       -1.5130  -23.8051  -44.6808 H         1 UNK         0.0600 
    199 H199       -2.1194  -25.4536  -44.6582 H         1 UNK         0.0600 
    200 H200       -0.7515  -25.2123  -48.7043 H         1 UNK         0.3000 
    201 H201       -0.7451  -28.0005  -48.5756 H         1 UNK         0.0600 
    202 H202        0.9260  -26.6978  -49.8197 H         1 UNK         0.0600 
    203 H203       -0.2899  -26.1520  -50.9695 H         1 UNK         0.0600 
    204 H204        0.1586  -27.8506  -50.9020 H         1 UNK         0.0600 
    205 H205       -2.5523  -29.1466  -48.4764 H         1 UNK         0.3000 
    206 H206       -4.4668  -30.1558  -48.8791 H         1 UNK         0.0600 
    207 H207       -3.3749  -30.7636  -51.0604 H         1 UNK         0.0600 
    208 H208       -5.1216  -30.6691  -51.1971 H         1 UNK         0.0600 
    209 H209       -4.1262  -29.3610  -51.8201 H         1 UNK         0.0600 
    210 H210       -4.4378  -27.2331  -48.2897 H         1 UNK         0.3000 
    211 H211       -5.6980  -25.5068  -47.8827 H         1 UNK         0.0600 
    212 H212       -8.1550  -25.7130  -47.6775 H         1 UNK         0.0600 
    213 H213       -7.3601  -27.1133  -46.9750 H         1 UNK         0.0600 
    214 H214       -8.1369  -27.2356  -48.5533 H         1 UNK         0.0600 
    215 H215       -6.5932  -26.9954  -50.9573 H         1 UNK         0.3000 
    216 H216       -7.8596  -24.8350  -52.2212 H         1 UNK         0.0600 
    217 H217       -6.2595  -27.1547  -53.4305 H         1 UNK         0.0600 
    218 H218       -7.4002  -26.1420  -54.3099 H         1 UNK         0.0600 
    219 H219       -7.9729  -27.1814  -53.0145 H         1 UNK         0.0600 
    220 H220       -4.4140  -25.3196  -51.7237 H         1 UNK         0.3000 
    221 H221       -3.3389  -23.7479  -53.7722 H         1 UNK         0.0600 
    222 H222       -1.9080  -25.1334  -52.4204 H         1 UNK         0.0600 
    223 H223       -2.3376  -24.2766  -50.9416 H         1 UNK         0.0600 
    224 H224       -1.3856  -23.4752  -52.1875 H         1 UNK         0.0600 
    225 H225       -4.8588  -22.7089  -50.7468 H         1 UNK         0.3000 
    226 H226       -4.0956  -19.9986  -50.7077 H         1 UNK         0.0600 
    227 H227       -6.6463  -21.3321  -49.6727 H         1 UNK         0.0600 
    228 H228       -5.1329  -21.1654  -48.7844 H         1 UNK         0.0600 
    229 H229       -6.0643  -19.7386  -49.2059 H         1 UNK         0.0600 
    230 H230       -6.4807  -21.6360  -52.7083 H         1 UNK         0.3000 
    231 H231       -7.6212  -19.0863  -53.7260 H         1 UNK         0.0600 
    232 H232       -8.2876  -22.0038  -54.3914 H         1 UNK         0.0600 
    233 H233       -9.1160  -20.5836  -55.0151 H         1 UNK         0.0600 
    234 H234       -9.1965  -20.9599  -53.3008 H         1 UNK         0.0600 
    235 H235       -5.7145  -21.9480  -54.7537 H         1 UNK         0.3000 
    236 H236       -5.4487  -21.2904  -57.4494 H         1 UNK         0.0600 
    237 H237       -3.4516  -22.9114  -55.8047 H         1 UNK         0.0600 
    238 H238       -5.0038  -23.5457  -56.3610 H         1 UNK         0.0600 
    239 H239       -3.7782  -23.0526  -57.5208 H         1 UNK         0.0600 
    240 H240       -3.4576  -20.1214  -54.7314 H         1 UNK         0.3000 
    241 H241       -1.4107  -18.9991  -56.4031 H         1 UNK         0.0600 
    242 H242       -4.3115  -16.2376  -56.6522 H         1 UNK         0.3800 
    243 H243       -4.6558  -17.8701  -56.1376 H         1 UNK         0.3800 
    244 H244       -0.4650  -18.0114  -54.4618 H         1 UNK         0.0800 
    245 H245       -1.0120  -19.6046  -54.0354 H         1 UNK         0.0800 
    246 H246       -2.2759  -18.5691  -50.6301 H         1 UNK         0.0800 
    247 H247       -1.8602  -19.9042  -51.6717 H         1 UNK         0.0800 
@<TRIPOS>BOND
     1    1    2 1    
     2    1  127 1    
     3    1  128 1    
     4    1  129 1    
     5    2    3 2    
     6    2    4 am   BACKBONE|DICT|INTERRES
     7    4    5 1    
     8    4  130 1    
     9    5    6 1    
    10    5   65 1    
    11    5  131 1    
    12    6    7 1    
    13    6  132 1    
    14    6  133 1    
    15    7    8 1    
    16    8    9 1    
    17    8  134 1    
    18    8  135 1    
    19    9   10 ar   
    20    9   14 ar   
    21   10   11 ar   
    22   10  136 1    
    23   11   12 ar   
    24   11  126 1    
    25   12   13 ar   
    26   12  137 1    
    27   13   14 ar   
    28   13   15 1    
    29   14  138 1    
    30   15   16 1    
    31   15  139 1    
    32   15  140 1    
    33   16   17 1    
    34   17   18 1    
    35   17  141 1    
    36   17  142 1    
    37   18   19 1    
    38   18   67 1    
    39   18  143 1    
    40   19   20 am   BACKBONE|DICT|INTERRES
    41   19  144 1    
    42   20   21 2    
    43   20   22 1    
    44   22   23 1    
    45   22   24 1    
    46   22  145 1    
    47   23  146 1    
    48   23  147 1    
    49   23  148 1    
    50   24   25 am   BACKBONE|DICT|INTERRES
    51   24  149 1    
    52   25   26 2    
    53   25   27 1    
    54   27   28 1    
    55   27   29 1    
    56   27  150 1    
    57   28  151 1    
    58   28  152 1    
    59   28  153 1    
    60   29   30 am   BACKBONE|DICT|INTERRES
    61   29  154 1    
    62   30   31 2    
    63   30   32 1    
    64   32   33 1    
    65   32   34 1    
    66   32  155 1    
    67   33  156 1    
    68   33  157 1    
    69   33  158 1    
    70   34   35 am   BACKBONE|DICT|INTERRES
    71   34  159 1    
    72   35   36 2    
    73   35   37 1    
    74   37   38 1    
    75   37   39 1    
    76   37  160 1    
    77   38  161 1    
    78   38  162 1    
    79   38  163 1    
    80   39   40 am   BACKBONE|DICT|INTERRES
    81   39  164 1    
    82   40   41 2    
    83   40   42 1    
    84   42   43 1    
    85   42   44 1    
    86   42  165 1    
    87   43  166 1    
    88   43  167 1    
    89   43  168 1    
    90   44   45 am   BACKBONE|DICT|INTERRES
    91   44  169 1    
    92   45   46 2    
    93   45   47 1    
    94   47   48 1    
    95   47   49 1    
    96   47  170 1    
    97   48  171 1    
    98   48  172 1    
    99   48  173 1    
   100   49   50 am   BACKBONE|DICT|INTERRES
   101   49  174 1    
   102   50   51 2    
   103   50   52 1    
   104   52   53 1    
   105   52   54 1    
   106   52  175 1    
   107   53  176 1    
   108   53  177 1    
   109   53  178 1    
   110   54   55 am   BACKBONE|DICT|INTERRES
   111   54  179 1    
   112   55   56 2    
   113   55   57 1    
   114   57   58 1    
   115   57   59 1    
   116   57  180 1    
   117   58  181 1    
   118   58  182 1    
   119   58  183 1    
   120   59   60 am   BACKBONE|DICT|INTERRES
   121   59  184 1    
   122   60   61 2    
   123   60   62 1    
   124   62   63 1    
   125   62   64 1    
   126   62  185 1    
   127   63  186 1    
   128   63  187 1    
   129   63  188 1    
   130   64   65 am   BACKBONE|DICT|INTERRES
   131   64  189 1    
   132   65   66 2    
   133   67   68 2    
   134   67   69 am   BACKBONE|DICT|INTERRES
   135   69   70 1    
   136   69  190 1    
   137   70   71 1    
   138   70   72 1    
   139   70  191 1    
   140   71  192 1    
   141   71  193 1    
   142   71  194 1    
   143   72   73 2    
   144   72   74 am   BACKBONE|DICT|INTERRES
   145   74   75 1    
   146   74  195 1    
   147   75   76 1    
   148   75   77 1    
   149   75  196 1    
   150   76  197 1    
   151   76  198 1    
   152   76  199 1    
   153   77   78 2    
   154   77   79 am   BACKBONE|DICT|INTERRES
   155   79   80 1    
   156   79  200 1    
   157   80   81 1    
   158   80   82 1    
   159   80  201 1    
   160   81  202 1    
   161   81  203 1    
   162   81  204 1    
   163   82   83 2    
   164   82   84 am   BACKBONE|DICT|INTERRES
   165   84   85 1    
   166   84  205 1    
   167   85   86 1    
   168   85   87 1    
   169   85  206 1    
   170   86  207 1    
   171   86  208 1    
   172   86  209 1    
   173   87   88 2    
   174   87   89 am   BACKBONE|DICT|INTERRES
   175   89   90 1    
   176   89  210 1    
   177   90   91 1    
   178   90   92 1    
   179   90  211 1    
   180   91  212 1    
   181   91  213 1    
   182   91  214 1    
   183   92   93 2    
   184   92   94 am   BACKBONE|DICT|INTERRES
   185   94   95 1    
   186   94  215 1    
   187   95   96 1    
   188   95   97 1    
   189   95  216 1    
   190   96  217 1    
   191   96  218 1    
   192   96  219 1    
   193   97   98 2    
   194   97   99 am   BACKBONE|DICT|INTERRES
   195   99  100 1    
   196   99  220 1    
   197  100  101 1    
   198  100  102 1    
   199  100  221 1    
   200  101  222 1    
   201  101  223 1    
   202  101  224 1    
   203  102  103 2    
   204  102  104 am   BACKBONE|DICT|INTERRES
   205  104  105 1    
   206  104  225 1    
   207  105  106 1    
   208  105  107 1    
   209  105  226 1    
   210  106  227 1    
   211  106  228 1    
   212  106  229 1    
   213  107  108 2    
   214  107  109 am   BACKBONE|DICT|INTERRES
   215  109  110 1    
   216  109  230 1    
   217  110  111 1    
   218  110  112 1    
   219  110  231 1    
   220  111  232 1    
   221  111  233 1    
   222  111  234 1    
   223  112  113 2    
   224  112  114 am   BACKBONE|DICT|INTERRES
   225  114  115 1    
   226  114  235 1    
   227  115  116 1    
   228  115  117 1    
   229  115  236 1    
   230  116  237 1    
   231  116  238 1    
   232  116  239 1    
   233  117  118 2    
   234  117  119 am   BACKBONE|DICT|INTERRES
   235  119  120 1    
   236  119  240 1    
   237  120  121 1    
   238  120  124 1    
   239  120  241 1    
   240  121  122 am   BACKBONE|DICT|INTERRES
   241  121  123 2    
   242  122  242 1    
   243  122  243 1    
   244  124  125 1    
   245  124  244 1    
   246  124  245 1    
   247  125  126 1    
   248  126  246 1    
   249  126  247 1    
@<TRIPOS>SUBSTRUCTURE
     1 UNK         1 GROUP             0       ****    0 ROOT    
