@<TRIPOS>MOLECULE
3R540
247   249    1
SMALL
USER_CHARGES


@<TRIPOS>ATOM
      1 CA         -2.6369  -13.4816  -41.8413 C.3       0 UNK        -0.1800 
      2 C          -2.7287  -12.5646  -43.0526 C.2       0 UNK         0.5000 
      3 O          -2.2513  -11.4316  -42.9971 O.2       0 UNK        -0.5000 
      4 N          -3.3522  -13.0408  -44.1385 N.am      1 UNK        -0.5000 
      5 CA         -3.5515  -12.2833  -45.3808 C.3       1 UNK         0.1400 
      6 C6         -4.7444  -12.8355  -46.2058 C.3       23 UNK        -0.0398 
      7 S7         -4.5208  -14.5460  -46.8196 S.3       23 UNK        -0.2404 
      8 C8         -4.1070  -14.2073  -48.5673 C.3       23 UNK        -0.0205 
      9 C9         -3.3936  -15.3450  -49.2937 C.ar      23 UNK        -0.0193 
     10 C10        -3.5799  -15.4902  -50.6726 C.ar      23 UNK        -0.1150 
     11 C11        -2.8840  -16.4667  -51.3908 C.ar      23 UNK        -0.0193 
     12 C12        -1.9922  -17.3049  -50.7163 C.ar      23 UNK        -0.1150 
     13 C13        -1.7911  -17.1738  -49.3402 C.ar      23 UNK        -0.0193 
     14 C14        -2.4982  -16.1966  -48.6344 C.ar      23 UNK        -0.1150 
     15 C15        -0.7680  -18.0499  -48.6330 C.3       23 UNK        -0.0205 
     16 S16        -1.1847  -19.8183  -48.7235 S.3       23 UNK        -0.2404 
     17 C17        -2.4434  -19.9869  -47.4131 C.3       23 UNK        -0.0398 
     18 CA         -2.3058  -21.3501  -46.6970 C.3       11 UNK         0.1400 
     19 N          -1.0341  -21.4831  -45.9708 N.am      11 UNK        -0.5000 
     20 C          -0.5532  -22.6466  -45.5116 C.2       10 UNK         0.5000 
     21 O          -1.1441  -23.7167  -45.6314 O.2       10 UNK        -0.5000 
     22 CA          0.7746  -22.6111  -44.7372 C.3       10 UNK         0.1400 
     23 CB          1.9703  -22.4098  -45.6807 C.3       10 UNK        -0.1800 
     24 N           0.7667  -21.5883  -43.6930 N.am      10 UNK        -0.5000 
     25 C          -0.0225  -21.6313  -42.6094 C.2       9 UNK         0.5000 
     26 O          -0.7630  -22.5776  -42.3429 O.2       9 UNK        -0.5000 
     27 CA         -0.0132  -20.4023  -41.6821 C.3       9 UNK         0.1400 
     28 CB          1.1062  -20.5226  -40.6377 C.3       9 UNK        -0.1800 
     29 N           0.1208  -19.1361  -42.4036 N.am      9 UNK        -0.5000 
     30 C          -0.7674  -18.6596  -43.2879 C.2       8 UNK         0.5000 
     31 O          -1.8232  -19.2238  -43.5704 O.2       8 UNK        -0.5000 
     32 CA         -0.3825  -17.3653  -44.0276 C.3       8 UNK         0.1400 
     33 CB         -0.6201  -16.1359  -43.1402 C.3       8 UNK        -0.1800 
     34 N           1.0029  -17.3833  -44.4990 N.am      8 UNK        -0.5000 
     35 C           1.4835  -18.2763  -45.3765 C.2       7 UNK         0.5000 
     36 O           0.7971  -19.1484  -45.9076 O.2       7 UNK        -0.5000 
     37 CA          2.9930  -18.2254  -45.6588 C.3       7 UNK         0.1400 
     38 CB          3.3357  -17.1206  -46.6695 C.3       7 UNK        -0.1800 
     39 N           3.7609  -18.0337  -44.4291 N.am      7 UNK        -0.5000 
     40 C           3.8966  -18.9676  -43.4763 C.2       6 UNK         0.5000 
     41 O           3.4311  -20.1036  -43.5615 O.2       6 UNK        -0.5000 
     42 CA          4.6447  -18.5482  -42.1975 C.3       6 UNK         0.1400 
     43 CB          6.1616  -18.7020  -42.3828 C.3       6 UNK        -0.1800 
     44 N           4.3431  -17.1744  -41.7922 N.am      6 UNK        -0.5000 
     45 C           3.1404  -16.7517  -41.3769 C.2       5 UNK         0.5000 
     46 O           2.1629  -17.4874  -41.2551 O.2       5 UNK        -0.5000 
     47 CA          2.9918  -15.2448  -41.0991 C.3       5 UNK         0.1400 
     48 CB          3.3480  -14.9268  -39.6396 C.3       5 UNK        -0.1800 
     49 N           3.8029  -14.4127  -41.9918 N.am      5 UNK        -0.5000 
     50 C           3.6367  -14.3421  -43.3183 C.2       4 UNK         0.5000 
     51 O           2.7905  -14.9905  -43.9402 O.2       4 UNK        -0.5000 
     52 CA          4.6150  -13.4422  -44.0802 C.3       4 UNK         0.1400 
     53 CB          5.8231  -14.2550  -44.5740 C.3       4 UNK        -0.1800 
     54 N           3.9232  -12.8608  -45.2236 N.am      4 UNK        -0.5000 
     55 C           4.0514  -11.5981  -45.6479 C.2       3 UNK         0.5000 
     56 O           4.8342  -10.7889  -45.1476 O.2       3 UNK        -0.5000 
     57 CA          3.1679  -11.1507  -46.8326 C.3       3 UNK         0.1400 
     58 CB          4.0121  -11.0224  -48.1106 C.3       3 UNK        -0.1800 
     59 N           2.0340  -12.0379  -47.1087 N.am      3 UNK        -0.5000 
     60 C           0.9589  -12.1810  -46.3235 C.2       2 UNK         0.5000 
     61 O           0.8035  -11.5764  -45.2600 O.2       2 UNK        -0.5000 
     62 CA         -0.0807  -13.2109  -46.8048 C.3       2 UNK         0.1400 
     63 CB          0.4775  -14.6359  -46.6656 C.3       2 UNK        -0.1800 
     64 N          -1.3396  -13.1246  -46.0666 N.am      2 UNK        -0.5000 
     65 C          -2.2657  -12.1700  -46.2332 C.2       1 UNK         0.5000 
     66 O          -2.1559  -11.2456  -47.0407 O.2       1 UNK        -0.5000 
     67 C          -3.5353  -21.6675  -45.8165 C.2       11 UNK         0.5000 
     68 O          -4.5328  -22.1708  -46.3340 O.2       11 UNK        -0.5000 
     69 N          -3.4350  -21.4383  -44.4986 N.am      12 UNK        -0.5000 
     70 CA         -4.4168  -21.8760  -43.5010 C.3       12 UNK         0.1400 
     71 CB         -4.1241  -21.1910  -42.1580 C.3       12 UNK        -0.1800 
     72 C          -4.4715  -23.4104  -43.3309 C.2       12 UNK         0.5000 
     73 O          -5.5073  -23.9340  -42.9210 O.2       12 UNK        -0.5000 
     74 N          -3.3839  -24.1057  -43.6895 N.am      13 UNK        -0.5000 
     75 CA         -3.2712  -25.5633  -43.7651 C.3       13 UNK         0.1400 
     76 CB         -1.9323  -25.9911  -43.1376 C.3       13 UNK        -0.1800 
     77 C          -3.4221  -26.0454  -45.2256 C.2       13 UNK         0.5000 
     78 O          -2.7728  -27.0100  -45.6355 O.2       13 UNK        -0.5000 
     79 N          -4.2797  -25.3508  -45.9854 N.am      14 UNK        -0.5000 
     80 CA         -4.6118  -25.5144  -47.4000 C.3       14 UNK         0.1400 
     81 CB         -5.1430  -26.9252  -47.7235 C.3       14 UNK        -0.1800 
     82 C          -3.4789  -25.0887  -48.3475 C.2       14 UNK         0.5000 
     83 O          -3.6717  -24.1348  -49.0980 O.2       14 UNK        -0.5000 
     84 N          -2.3468  -25.8078  -48.3268 N.am      15 UNK        -0.5000 
     85 CA         -1.1761  -25.6422  -49.2040 C.3       15 UNK         0.1400 
     86 CB         -0.3395  -24.4192  -48.7804 C.3       15 UNK        -0.1800 
     87 C          -1.5491  -25.6093  -50.7021 C.2       15 UNK         0.5000 
     88 O          -1.2793  -24.6230  -51.3914 O.2       15 UNK        -0.5000 
     89 N          -2.2158  -26.6808  -51.1578 N.am      16 UNK        -0.5000 
     90 CA         -2.7372  -26.8723  -52.5178 C.3       16 UNK         0.1400 
     91 CB         -1.5822  -27.0166  -53.5320 C.3       16 UNK        -0.1800 
     92 C          -3.7537  -25.7810  -52.9147 C.2       16 UNK         0.5000 
     93 O          -3.6530  -25.2027  -53.9979 O.2       16 UNK        -0.5000 
     94 N          -4.6968  -25.5054  -52.0008 N.am      17 UNK        -0.5000 
     95 CA         -5.7424  -24.4798  -52.0907 C.3       17 UNK         0.1400 
     96 CB         -6.7765  -24.8520  -53.1744 C.3       17 UNK        -0.1800 
     97 C          -5.1530  -23.0678  -52.2812 C.2       17 UNK         0.5000 
     98 O          -5.5005  -22.3736  -53.2370 O.2       17 UNK        -0.5000 
     99 N          -4.2374  -22.6948  -51.3775 N.am      18 UNK        -0.5000 
    100 CA        -3.4665  -21.4511  -51.3491 C.3       18 UNK         0.1400 
    101 CB        -4.3882  -20.2561  -51.0304 C.3       18 UNK        -0.1800 
    102 C         -2.6322  -21.2589  -52.6308 C.2       18 UNK         0.5000 
    103 O         -2.7075  -20.2073  -53.2678 O.2       18 UNK        -0.5000 
    104 N         -1.8881  -22.3113  -53.0058 N.am      19 UNK        -0.5000 
    105 CA        -1.0842  -22.4344  -54.2256 C.3       19 UNK         0.1400 
    106 CB         0.1543  -21.5178  -54.1439 C.3       19 UNK        -0.1800 
    107 C         -1.9220  -22.2082  -55.5025 C.2       19 UNK         0.5000 
    108 O         -1.5518  -21.3929  -56.3493 O.2       19 UNK        -0.5000 
    109 N         -3.0616  -22.9122  -55.5841 N.am      20 UNK        -0.5000 
    110 CA        -4.1078  -22.7994  -56.6052 C.3       20 UNK         0.1400 
    111 CB        -3.6064  -23.3426  -57.9591 C.3       20 UNK        -0.1800 
    112 C         -4.6766  -21.3676  -56.6953 C.2       20 UNK         0.5000 
    113 O         -4.7131  -20.7772  -57.7772 O.2       20 UNK        -0.5000 
    114 N         -5.0645  -20.8236  -55.5323 N.am      21 UNK        -0.5000 
    115 CA        -5.5660  -19.4654  -55.2970 C.3       21 UNK         0.1400 
    116 CB        -7.0010  -19.3290  -55.8447 C.3       21 UNK        -0.1800 
    117 C         -4.6140  -18.3668  -55.8187 C.2       21 UNK         0.5000 
    118 O         -5.0706  -17.3632  -56.3695 O.2       21 UNK        -0.5000 
    119 N         -3.3043  -18.5992  -55.6579 N.am      22 UNK        -0.5000 
    120 CA        -2.1952  -17.7930  -56.1942 C.3       22 UNK         0.1400 
    121 C         -2.1114  -17.7554  -57.7549 C.2       22 UNK         0.5000 
    122 N         -2.8018  -18.6192  -58.4907 N.am      22 UNK        -0.7600 
    123 O         -1.3770  -16.9487  -58.3197 O.2       22 UNK        -0.5000 
    124 C124       -2.1154  -16.3782  -55.5472 C.3       23 UNK        -0.0398 
    125 S125       -1.5387  -16.4180  -53.8167 S.3       23 UNK        -0.2404 
    126 C126       -3.0952  -16.6175  -52.8912 C.3       23 UNK        -0.0205 
    127 H127       -1.5958  -13.7307  -41.6363 H         1 UNK         0.0600 
    128 H128       -3.1916  -14.4078  -41.9912 H         1 UNK         0.0600 
    129 H129       -3.0467  -12.9831  -40.9628 H         1 UNK         0.0600 
    130 H130       -3.7380  -13.9747  -44.1305 H         1 UNK         0.3000 
    131 H131       -3.8167  -11.2619  -45.0985 H         1 UNK         0.0600 
    132 H132       -5.6446  -12.8205  -45.5899 H         1 UNK         0.0800 
    133 H133       -4.9630  -12.1704  -47.0432 H         1 UNK         0.0800 
    134 H134       -5.0301  -13.9488  -49.0886 H         1 UNK         0.0800 
    135 H135       -3.4624  -13.3304  -48.6288 H         1 UNK         0.0800 
    136 H136       -4.2587  -14.8284  -51.1921 H         1 UNK         0.1150 
    137 H137       -1.4470  -18.0584  -51.2683 H         1 UNK         0.1150 
    138 H138       -2.3320  -16.0845  -47.5736 H         1 UNK         0.1150 
    139 H139        0.2051  -17.8978  -49.1014 H         1 UNK         0.0800 
    140 H140       -0.6523  -17.7519  -47.5912 H         1 UNK         0.0800 
    141 H141       -3.4237  -19.8875  -47.8830 H         1 UNK         0.0800 
    142 H142       -2.3552  -19.1692  -46.6956 H         1 UNK         0.0800 
    143 H143       -2.3065  -22.1181  -47.4733 H         1 UNK         0.0600 
    144 H144       -0.4773  -20.6394  -45.8618 H         1 UNK         0.3000 
    145 H145        0.8990  -23.5808  -44.2503 H         1 UNK         0.0600 
    146 H146        2.9123  -22.4314  -45.1326 H         1 UNK         0.0600 
    147 H147        2.0105  -23.2026  -46.4285 H         1 UNK         0.0600 
    148 H148        1.9167  -21.4625  -46.2152 H         1 UNK         0.0600 
    149 H149        1.3844  -20.7960  -43.8219 H         1 UNK         0.3000 
    150 H150       -0.9682  -20.3806  -41.1535 H         1 UNK         0.0600 
    151 H151        1.0189  -21.4532  -40.0757 H         1 UNK         0.0600 
    152 H152        1.0642  -19.7040  -39.9191 H         1 UNK         0.0600 
    153 H153        2.0923  -20.5099  -41.1027 H         1 UNK         0.0600 
    154 H154        0.9436  -18.5789  -42.1872 H         1 UNK         0.3000 
    155 H155       -1.0286  -17.2798  -44.9039 H         1 UNK         0.0600 
    156 H156       -1.6582  -16.1009  -42.8100 H         1 UNK         0.0600 
    157 H157       -0.4146  -15.2083  -43.6729 H         1 UNK         0.0600 
    158 H158        0.0050  -16.1537  -42.2480 H         1 UNK         0.0600 
    159 H159        1.6302  -16.6801  -44.1234 H         1 UNK         0.3000 
    160 H160        3.2802  -19.1832  -46.0981 H         1 UNK         0.0600 
    161 H161        3.1213  -16.1275  -46.2771 H         1 UNK         0.0600 
    162 H162        2.7606  -17.2414  -47.5885 H         1 UNK         0.0600 
    163 H163        4.3912  -17.1503  -46.9401 H         1 UNK         0.0600 
    164 H164        4.1245  -17.1082  -44.2588 H         1 UNK         0.3000 
    165 H165        4.3288  -19.2158  -41.3931 H         1 UNK         0.0600 
    166 H166        6.6960  -18.4821  -41.4584 H         1 UNK         0.0600 
    167 H167        6.4176  -19.7228  -42.6698 H         1 UNK         0.0600 
    168 H168        6.5436  -18.0371  -43.1585 H         1 UNK         0.0600 
    169 H169        5.0926  -16.5021  -41.8590 H         1 UNK         0.3000 
    170 H170        1.9441  -14.9821  -41.2587 H         1 UNK         0.0600 
    171 H171        2.7422  -15.5192  -38.9525 H         1 UNK         0.0600 
    172 H172        4.3951  -15.1420  -39.4233 H         1 UNK         0.0600 
    173 H173        3.1654  -13.8771  -39.4087 H         1 UNK         0.0600 
    174 H174        4.5262  -13.8587  -41.5559 H         1 UNK         0.3000 
    175 H175        4.9581  -12.6556  -43.4047 H         1 UNK         0.0600 
    176 H176        5.5209  -15.0556  -45.2505 H         1 UNK         0.0600 
    177 H177        6.5319  -13.6198  -45.1055 H         1 UNK         0.0600 
    178 H178        6.3581  -14.7111  -43.7402 H         1 UNK         0.0600 
    179 H179        3.2139  -13.4505  -45.6364 H         1 UNK         0.3000 
    180 H180        2.7722  -10.1634  -46.5851 H         1 UNK         0.0600 
    181 H181        4.4261  -11.9839  -48.4171 H         1 UNK         0.0600 
    182 H182        4.8484  -10.3382  -47.9611 H         1 UNK         0.0600 
    183 H183        3.4200  -10.6311  -48.9381 H         1 UNK         0.0600 
    184 H184        2.0916  -12.5770  -47.9607 H         1 UNK         0.3000 
    185 H185       -0.2906  -13.0223  -47.8600 H         1 UNK         0.0600 
    186 H186       -0.2655  -15.3876  -46.9216 H         1 UNK         0.0600 
    187 H187        1.3295  -14.7917  -47.3275 H         1 UNK         0.0600 
    188 H188        0.8121  -14.8325  -45.6489 H         1 UNK         0.0600 
    189 H189       -1.4977  -13.8179  -45.3524 H         1 UNK         0.3000 
    190 H190       -2.6249  -20.9349  -44.1494 H         1 UNK         0.3000 
    191 H191       -5.4033  -21.5499  -43.8367 H         1 UNK         0.0600 
    192 H192       -4.1440  -20.1055  -42.2553 H         1 UNK         0.0600 
    193 H193       -4.8696  -21.4636  -41.4100 H         1 UNK         0.0600 
    194 H194       -3.1483  -21.4752  -41.7655 H         1 UNK         0.0600 
    195 H195       -2.5863  -23.5992  -44.0569 H         1 UNK         0.3000 
    196 H196       -4.0730  -26.0310  -43.1908 H         1 UNK         0.0600 
    197 H197       -1.8420  -27.0774  -43.1055 H         1 UNK         0.0600 
    198 H198       -1.8446  -25.6276  -42.1136 H         1 UNK         0.0600 
    199 H199       -1.0818  -25.6058  -43.7007 H         1 UNK         0.0600 
    200 H200       -4.7031  -24.5397  -45.5558 H         1 UNK         0.3000 
    201 H201       -5.4354  -24.8205  -47.5770 H         1 UNK         0.0600 
    202 H202       -5.9916  -27.1793  -47.0884 H         1 UNK         0.0600 
    203 H203       -4.3850  -27.6971  -47.5912 H         1 UNK         0.0600 
    204 H204       -5.4845  -26.9818  -48.7576 H         1 UNK         0.0600 
    205 H205       -2.2807  -26.5336  -47.6211 H         1 UNK         0.3000 
    206 H206       -0.5527  -26.5264  -49.0645 H         1 UNK         0.0600 
    207 H207        0.0539  -24.5501  -47.7742 H         1 UNK         0.0600 
    208 H208        0.5192  -24.2812  -49.4384 H         1 UNK         0.0600 
    209 H209       -0.9216  -23.4981  -48.8055 H         1 UNK         0.0600 
    210 H210       -2.4087  -27.4286  -50.5060 H         1 UNK         0.3000 
    211 H211       -3.2875  -27.8142  -52.5113 H         1 UNK         0.0600 
    212 H212       -1.0096  -26.0942  -53.6328 H         1 UNK         0.0600 
    213 H213       -1.9623  -27.2730  -54.5215 H         1 UNK         0.0600 
    214 H214       -0.8936  -27.8075  -53.2349 H         1 UNK         0.0600 
    215 H215       -4.6604  -26.0128  -51.1293 H         1 UNK         0.3000 
    216 H216       -6.2580  -24.4723  -51.1292 H         1 UNK         0.0600 
    217 H217       -7.6051  -24.1430  -53.1812 H         1 UNK         0.0600 
    218 H218       -7.1973  -25.8411  -52.9940 H         1 UNK         0.0600 
    219 H219       -6.3391  -24.8511  -54.1733 H         1 UNK         0.0600 
    220 H220       -4.0179  -23.3408  -50.6188 H         1 UNK         0.3000 
    221 H221       -2.7557  -21.5549  -50.5291 H         1 UNK         0.0600 
    222 H222       -5.1068  -20.0703  -51.8286 H         1 UNK         0.0600 
    223 H223       -4.9447  -20.4243  -50.1086 H         1 UNK         0.0600 
    224 H224       -3.8090  -19.3447  -50.8942 H         1 UNK         0.0600 
    225 H225       -1.8796  -23.1331  -52.4053 H         1 UNK         0.3000 
    226 H226       -0.7340  -23.4670  -54.2618 H         1 UNK         0.0600 
    227 H227        0.7364  -21.7232  -53.2456 H         1 UNK         0.0600 
    228 H228        0.8119  -21.6732  -54.9999 H         1 UNK         0.0600 
    229 H229       -0.1215  -20.4626  -54.1303 H         1 UNK         0.0600 
    230 H230       -3.2633  -23.5836  -54.8456 H         1 UNK         0.3000 
    231 H231       -4.9284  -23.4379  -56.2747 H         1 UNK         0.0600 
    232 H232       -2.7978  -22.7352  -58.3669 H         1 UNK         0.0600 
    233 H233       -4.4104  -23.3535  -58.6958 H         1 UNK         0.0600 
    234 H234       -3.2416  -24.3650  -57.8613 H         1 UNK         0.0600 
    235 H235       -5.0168  -21.4059  -54.6970 H         1 UNK         0.3000 
    236 H236       -5.6091  -19.3407  -54.2143 H         1 UNK         0.0600 
    237 H237       -7.6524  -20.1018  -55.4365 H         1 UNK         0.0600 
    238 H238       -7.4343  -18.3654  -55.5749 H         1 UNK         0.0600 
    239 H239       -7.0264  -19.4083  -56.9321 H         1 UNK         0.0600 
    240 H240       -3.0279  -19.4254  -55.1367 H         1 UNK         0.3000 
    241 H241       -1.2930  -18.3331  -55.9048 H         1 UNK         0.0600 
    242 H242       -2.7216  -18.5853  -59.4940 H         1 UNK         0.3800 
    243 H243       -3.4082  -19.3120  -58.0625 H         1 UNK         0.3800 
    244 H244       -3.0669  -15.8506  -55.6144 H         1 UNK         0.0800 
    245 H245       -1.3981  -15.7504  -56.0773 H         1 UNK         0.0800 
    246 H246       -3.5102  -17.6065  -53.0835 H         1 UNK         0.0800 
    247 H247       -3.8258  -15.8931  -53.2541 H         1 UNK         0.0800 
@<TRIPOS>BOND
     1    1    2 1    
     2    1  127 1    
     3    1  128 1    
     4    1  129 1    
     5    2    3 2    
     6    2    4 am   BACKBONE|DICT|INTERRES
     7    4    5 1    
     8    4  130 1    
     9    5    6 1    
    10    5   65 1    
    11    5  131 1    
    12    6    7 1    
    13    6  132 1    
    14    6  133 1    
    15    7    8 1    
    16    8    9 1    
    17    8  134 1    
    18    8  135 1    
    19    9   10 ar   
    20    9   14 ar   
    21   10   11 ar   
    22   10  136 1    
    23   11   12 ar   
    24   11  126 1    
    25   12   13 ar   
    26   12  137 1    
    27   13   14 ar   
    28   13   15 1    
    29   14  138 1    
    30   15   16 1    
    31   15  139 1    
    32   15  140 1    
    33   16   17 1    
    34   17   18 1    
    35   17  141 1    
    36   17  142 1    
    37   18   19 1    
    38   18   67 1    
    39   18  143 1    
    40   19   20 am   BACKBONE|DICT|INTERRES
    41   19  144 1    
    42   20   21 2    
    43   20   22 1    
    44   22   23 1    
    45   22   24 1    
    46   22  145 1    
    47   23  146 1    
    48   23  147 1    
    49   23  148 1    
    50   24   25 am   BACKBONE|DICT|INTERRES
    51   24  149 1    
    52   25   26 2    
    53   25   27 1    
    54   27   28 1    
    55   27   29 1    
    56   27  150 1    
    57   28  151 1    
    58   28  152 1    
    59   28  153 1    
    60   29   30 am   BACKBONE|DICT|INTERRES
    61   29  154 1    
    62   30   31 2    
    63   30   32 1    
    64   32   33 1    
    65   32   34 1    
    66   32  155 1    
    67   33  156 1    
    68   33  157 1    
    69   33  158 1    
    70   34   35 am   BACKBONE|DICT|INTERRES
    71   34  159 1    
    72   35   36 2    
    73   35   37 1    
    74   37   38 1    
    75   37   39 1    
    76   37  160 1    
    77   38  161 1    
    78   38  162 1    
    79   38  163 1    
    80   39   40 am   BACKBONE|DICT|INTERRES
    81   39  164 1    
    82   40   41 2    
    83   40   42 1    
    84   42   43 1    
    85   42   44 1    
    86   42  165 1    
    87   43  166 1    
    88   43  167 1    
    89   43  168 1    
    90   44   45 am   BACKBONE|DICT|INTERRES
    91   44  169 1    
    92   45   46 2    
    93   45   47 1    
    94   47   48 1    
    95   47   49 1    
    96   47  170 1    
    97   48  171 1    
    98   48  172 1    
    99   48  173 1    
   100   49   50 am   BACKBONE|DICT|INTERRES
   101   49  174 1    
   102   50   51 2    
   103   50   52 1    
   104   52   53 1    
   105   52   54 1    
   106   52  175 1    
   107   53  176 1    
   108   53  177 1    
   109   53  178 1    
   110   54   55 am   BACKBONE|DICT|INTERRES
   111   54  179 1    
   112   55   56 2    
   113   55   57 1    
   114   57   58 1    
   115   57   59 1    
   116   57  180 1    
   117   58  181 1    
   118   58  182 1    
   119   58  183 1    
   120   59   60 am   BACKBONE|DICT|INTERRES
   121   59  184 1    
   122   60   61 2    
   123   60   62 1    
   124   62   63 1    
   125   62   64 1    
   126   62  185 1    
   127   63  186 1    
   128   63  187 1    
   129   63  188 1    
   130   64   65 am   BACKBONE|DICT|INTERRES
   131   64  189 1    
   132   65   66 2    
   133   67   68 2    
   134   67   69 am   BACKBONE|DICT|INTERRES
   135   69   70 1    
   136   69  190 1    
   137   70   71 1    
   138   70   72 1    
   139   70  191 1    
   140   71  192 1    
   141   71  193 1    
   142   71  194 1    
   143   72   73 2    
   144   72   74 am   BACKBONE|DICT|INTERRES
   145   74   75 1    
   146   74  195 1    
   147   75   76 1    
   148   75   77 1    
   149   75  196 1    
   150   76  197 1    
   151   76  198 1    
   152   76  199 1    
   153   77   78 2    
   154   77   79 am   BACKBONE|DICT|INTERRES
   155   79   80 1    
   156   79  200 1    
   157   80   81 1    
   158   80   82 1    
   159   80  201 1    
   160   81  202 1    
   161   81  203 1    
   162   81  204 1    
   163   82   83 2    
   164   82   84 am   BACKBONE|DICT|INTERRES
   165   84   85 1    
   166   84  205 1    
   167   85   86 1    
   168   85   87 1    
   169   85  206 1    
   170   86  207 1    
   171   86  208 1    
   172   86  209 1    
   173   87   88 2    
   174   87   89 am   BACKBONE|DICT|INTERRES
   175   89   90 1    
   176   89  210 1    
   177   90   91 1    
   178   90   92 1    
   179   90  211 1    
   180   91  212 1    
   181   91  213 1    
   182   91  214 1    
   183   92   93 2    
   184   92   94 am   BACKBONE|DICT|INTERRES
   185   94   95 1    
   186   94  215 1    
   187   95   96 1    
   188   95   97 1    
   189   95  216 1    
   190   96  217 1    
   191   96  218 1    
   192   96  219 1    
   193   97   98 2    
   194   97   99 am   BACKBONE|DICT|INTERRES
   195   99  100 1    
   196   99  220 1    
   197  100  101 1    
   198  100  102 1    
   199  100  221 1    
   200  101  222 1    
   201  101  223 1    
   202  101  224 1    
   203  102  103 2    
   204  102  104 am   BACKBONE|DICT|INTERRES
   205  104  105 1    
   206  104  225 1    
   207  105  106 1    
   208  105  107 1    
   209  105  226 1    
   210  106  227 1    
   211  106  228 1    
   212  106  229 1    
   213  107  108 2    
   214  107  109 am   BACKBONE|DICT|INTERRES
   215  109  110 1    
   216  109  230 1    
   217  110  111 1    
   218  110  112 1    
   219  110  231 1    
   220  111  232 1    
   221  111  233 1    
   222  111  234 1    
   223  112  113 2    
   224  112  114 am   BACKBONE|DICT|INTERRES
   225  114  115 1    
   226  114  235 1    
   227  115  116 1    
   228  115  117 1    
   229  115  236 1    
   230  116  237 1    
   231  116  238 1    
   232  116  239 1    
   233  117  118 2    
   234  117  119 am   BACKBONE|DICT|INTERRES
   235  119  120 1    
   236  119  240 1    
   237  120  121 1    
   238  120  124 1    
   239  120  241 1    
   240  121  122 am   BACKBONE|DICT|INTERRES
   241  121  123 2    
   242  122  242 1    
   243  122  243 1    
   244  124  125 1    
   245  124  244 1    
   246  124  245 1    
   247  125  126 1    
   248  126  246 1    
   249  126  247 1    
@<TRIPOS>SUBSTRUCTURE
     1 UNK         1 GROUP             0       ****    0 ROOT    
