@<TRIPOS>MOLECULE
3R540
247   249    1
SMALL
USER_CHARGES


@<TRIPOS>ATOM
      1 CA          4.3521  -12.4458  -46.6024 C.3       0 UNK        -0.1800 
      2 C           2.8776  -12.4314  -46.9806 C.2       0 UNK         0.5000 
      3 O           2.3864  -11.4214  -47.4838 O.2       0 UNK        -0.5000 
      4 N           2.1821  -13.5505  -46.7366 N.am      1 UNK        -0.5000 
      5 CA          0.7539  -13.7777  -47.0030 C.3       1 UNK         0.1400 
      6 C6          0.4004  -13.8289  -48.5146 C.3       23 UNK        -0.0398 
      7 S7          1.2377  -15.1962  -49.3907 S.3       23 UNK        -0.2404 
      8 C8          0.1545  -16.5776  -48.9151 C.3       23 UNK        -0.0205 
      9 C9          0.4617  -17.8570  -49.6786 C.ar      23 UNK        -0.0193 
     10 C10        -0.3903  -18.2837  -50.7013 C.ar      23 UNK        -0.1150 
     11 C11        -0.1350  -19.4725  -51.3902 C.ar      23 UNK        -0.0193 
     12 C12         0.9838  -20.2381  -51.0496 C.ar      23 UNK        -0.1150 
     13 C13         1.8455  -19.8224  -50.0298 C.ar      23 UNK        -0.0193 
     14 C14         1.5763  -18.6323  -49.3450 C.ar      23 UNK        -0.1150 
     15 C15         3.0863  -20.6415  -49.6996 C.3       23 UNK        -0.0205 
     16 S16         2.7036  -22.1615  -48.7704 S.3       23 UNK        -0.2404 
     17 C17         2.2629  -21.4882  -47.1331 C.3       23 UNK        -0.0398 
     18 CA          1.0102  -22.1422  -46.5045 C.3       11 UNK         0.1400 
     19 N           0.8603  -21.7718  -45.0943 N.am      11 UNK        -0.5000 
     20 C          -0.0378  -22.2999  -44.2504 C.2       10 UNK         0.5000 
     21 O          -0.8017  -23.2159  -44.5518 O.2       10 UNK        -0.5000 
     22 CA         -0.1331  -21.6677  -42.8496 C.3       10 UNK         0.1400 
     23 CB          0.9495  -22.2342  -41.9194 C.3       10 UNK        -0.1800 
     24 N          -0.0401  -20.2072  -42.8867 N.am      10 UNK        -0.5000 
     25 C          -0.9394  -19.4042  -43.4744 C.2       9 UNK         0.5000 
     26 O          -1.9850  -19.8108  -43.9817 O.2       9 UNK        -0.5000 
     27 CA         -0.5799  -17.9074  -43.5683 C.3       9 UNK         0.1400 
     28 CB         -0.8846  -17.1758  -42.2529 C.3       9 UNK        -0.1800 
     29 N           0.8208  -17.6949  -43.9384 N.am      9 UNK        -0.5000 
     30 C           1.3598  -18.0852  -45.1014 C.2       8 UNK         0.5000 
     31 O           0.7127  -18.5953  -46.0126 O.2       8 UNK        -0.5000 
     32 CA          2.8809  -17.9325  -45.2565 C.3       8 UNK         0.1400 
     33 CB          3.2456  -16.5267  -45.7504 C.3       8 UNK        -0.1800 
     34 N           3.5791  -18.2234  -44.0057 N.am      8 UNK        -0.5000 
     35 C           3.7505  -19.4583  -43.5142 C.2       7 UNK         0.5000 
     36 O           3.3691  -20.4769  -44.0903 O.2       7 UNK        -0.5000 
     37 CA          4.4260  -19.5727  -42.1343 C.3       7 UNK         0.1400 
     38 CB          5.9548  -19.5542  -42.2782 C.3       7 UNK        -0.1800 
     39 N           4.0128  -18.5149  -41.2103 N.am      7 UNK        -0.5000 
     40 C           2.7743  -18.3893  -40.7140 C.2       6 UNK         0.5000 
     41 O           1.8630  -19.1809  -40.9517 O.2       6 UNK        -0.5000 
     42 CA          2.4888  -17.1466  -39.8480 C.3       6 UNK         0.1400 
     43 CB          2.8123  -17.4317  -38.3742 C.3       6 UNK        -0.1800 
     44 N           3.1883  -15.9275  -40.2681 N.am      6 UNK        -0.5000 
     45 C           3.1488  -15.3884  -41.4941 C.2       5 UNK         0.5000 
     46 O           2.5914  -15.9187  -42.4559 O.2       5 UNK        -0.5000 
     47 CA          3.8112  -14.0114  -41.6443 C.3       5 UNK         0.1400 
     48 CB          3.9663  -13.5855  -43.1162 C.3       5 UNK        -0.1800 
     49 N           2.9701  -13.0377  -40.9588 N.am      5 UNK        -0.5000 
     50 C           3.2298  -12.4763  -39.7714 C.2       4 UNK         0.5000 
     51 O           4.2581  -12.6904  -39.1284 O.2       4 UNK        -0.5000 
     52 CA          2.1645  -11.5201  -39.1947 C.3       4 UNK         0.1400 
     53 CB          2.5594  -10.0591  -39.4595 C.3       4 UNK        -0.1800 
     54 N           0.8239  -11.7504  -39.7367 N.am      4 UNK        -0.5000 
     55 C           0.0474  -12.8028  -39.4428 C.2       3 UNK         0.5000 
     56 O           0.3463  -13.6613  -38.6123 O.2       3 UNK        -0.5000 
     57 CA         -1.2743  -12.9332  -40.2301 C.3       3 UNK         0.1400 
     58 CB         -2.4398  -12.3405  -39.4237 C.3       3 UNK        -0.1800 
     59 N          -1.2535  -12.3185  -41.5652 N.am      3 UNK        -0.5000 
     60 C          -0.4212  -12.6713  -42.5531 C.2       2 UNK         0.5000 
     61 O           0.4683  -13.5144  -42.4221 O.2       2 UNK        -0.5000 
     62 CA         -0.5738  -11.9426  -43.8945 C.3       2 UNK         0.1400 
     63 CB          0.0107  -10.5213  -43.8231 C.3       2 UNK        -0.1800 
     64 N           0.1499  -12.7150  -44.8955 N.am      2 UNK        -0.5000 
     65 C          -0.1415  -12.8104  -46.1955 C.2       1 UNK         0.5000 
     66 O          -1.0547  -12.1868  -46.7398 O.2       1 UNK        -0.5000 
     67 C          -0.2778  -21.8589  -47.3079 C.2       11 UNK         0.5000 
     68 O          -0.7443  -22.7442  -48.0233 O.2       11 UNK        -0.5000 
     69 N          -0.8683  -20.6691  -47.1224 N.am      12 UNK        -0.5000 
     70 CA         -2.1429  -20.2707  -47.7221 C.3       12 UNK         0.1400 
     71 CB         -2.4560  -18.8116  -47.3620 C.3       12 UNK        -0.1800 
     72 C          -3.3099  -21.1796  -47.3008 C.2       12 UNK         0.5000 
     73 O          -4.1049  -21.5763  -48.1524 O.2       12 UNK        -0.5000 
     74 N          -3.3736  -21.5160  -46.0048 N.am      13 UNK        -0.5000 
     75 CA         -4.3658  -22.4269  -45.4332 C.3       13 UNK         0.1400 
     76 CB         -4.2708  -22.3927  -43.9004 C.3       13 UNK        -0.1800 
     77 C          -4.2342  -23.8685  -45.9603 C.2       13 UNK         0.5000 
     78 O          -5.2524  -24.5137  -46.2109 O.2       13 UNK        -0.5000 
     79 N          -2.9916  -24.3398  -46.1334 N.am      14 UNK        -0.5000 
     80 CA         -2.6727  -25.6468  -46.7077 C.3       14 UNK         0.1400 
     81 CB         -1.1988  -25.9826  -46.4322 C.3       14 UNK        -0.1800 
     82 C          -2.9795  -25.7213  -48.2150 C.2       14 UNK         0.5000 
     83 O          -3.5130  -26.7321  -48.6741 O.2       14 UNK        -0.5000 
     84 N          -2.6411  -24.6542  -48.9520 N.am      15 UNK        -0.5000 
     85 CA         -2.8969  -24.5032  -50.3847 C.3       15 UNK         0.1400 
     86 CB         -2.1260  -23.2778  -50.9024 C.3       15 UNK        -0.1800 
     87 C          -4.4007  -24.3968  -50.7028 C.2       15 UNK         0.5000 
     88 O          -4.8817  -25.0779  -51.6107 O.2       15 UNK        -0.5000 
     89 N          -5.1102  -23.5731  -49.9171 N.am      16 UNK        -0.5000 
     90 CA         -6.5560  -23.3419  -49.9358 C.3       16 UNK         0.1400 
     91 CB         -7.2925  -24.6084  -49.4439 C.3       16 UNK        -0.1800 
     92 C          -7.0811  -22.8244  -51.2948 C.2       16 UNK         0.5000 
     93 O          -6.3161  -22.2886  -52.1000 O.2       16 UNK        -0.5000 
     94 N          -8.3906  -22.9868  -51.5273 N.am      17 UNK        -0.5000 
     95 CA         -9.0685  -22.6368  -52.7788 C.3       17 UNK         0.1400 
     96 CB        -10.5842  -22.6031  -52.5284 C.3       17 UNK        -0.1800 
     97 C          -8.7345  -23.5946  -53.9409 C.2       17 UNK         0.5000 
     98 O          -8.9519  -23.2359  -55.0986 O.2       17 UNK        -0.5000 
     99 N          -8.2156  -24.7893  -53.6171 N.am      18 UNK        -0.5000 
    100 CA        -7.7723  -25.8063  -54.5720 C.3       18 UNK         0.1400 
    101 CB        -7.4328  -27.0972  -53.8119 C.3       18 UNK        -0.1800 
    102 C         -6.5731  -25.3443  -55.4199 C.2       18 UNK         0.5000 
    103 O         -6.5062  -25.6637  -56.6078 O.2       18 UNK        -0.5000 
    104 N         -5.6730  -24.5591  -54.8138 N.am      19 UNK        -0.5000 
    105 CA        -4.5378  -23.9117  -55.4681 C.3       19 UNK         0.1400 
    106 CB        -3.4541  -23.6402  -54.4136 C.3       19 UNK        -0.1800 
    107 C         -4.9801  -22.6273  -56.1980 C.2       19 UNK         0.5000 
    108 O         -4.4896  -21.5392  -55.8955 O.2       19 UNK        -0.5000 
    109 N         -5.9061  -22.7727  -57.1544 N.am      20 UNK        -0.5000 
    110 CA        -6.5376  -21.6836  -57.9079 C.3       20 UNK         0.1400 
    111 CB        -7.6476  -22.2741  -58.7903 C.3       20 UNK        -0.1800 
    112 C         -5.5631  -20.8372  -58.7543 C.2       20 UNK         0.5000 
    113 O         -5.8770  -19.6901  -59.0738 O.2       20 UNK        -0.5000 
    114 N         -4.3988  -21.4086  -59.0905 N.am      21 UNK        -0.5000 
    115 CA        -3.3015  -20.7341  -59.7839 C.3       21 UNK         0.1400 
    116 CB        -2.3795  -21.8013  -60.3952 C.3       21 UNK        -0.1800 
    117 C         -2.4935  -19.7795  -58.8786 C.2       21 UNK         0.5000 
    118 O         -1.7642  -18.9375  -59.4049 O.2       21 UNK        -0.5000 
    119 N         -2.6073  -19.9290  -57.5509 N.am      22 UNK        -0.5000 
    120 CA        -1.9438  -19.0779  -56.5542 C.3       22 UNK         0.1400 
    121 C         -2.5701  -17.6555  -56.4930 C.2       22 UNK         0.5000 
    122 N         -1.7565  -16.6113  -56.4137 N.am      22 UNK        -0.7600 
    123 O         -3.7882  -17.4923  -56.4861 O.2       22 UNK        -0.5000 
    124 C124       -1.9353  -19.7637  -55.1634 C.3       23 UNK        -0.0398 
    125 S125       -0.5982  -19.1516  -54.0863 S.3       23 UNK        -0.2404 
    126 C126       -1.0647  -19.9203  -52.5064 C.3       23 UNK        -0.0205 
    127 H127        4.9648  -12.2038  -47.4708 H         1 UNK         0.0600 
    128 H128        4.6663  -13.4201  -46.2273 H         1 UNK         0.0600 
    129 H129        4.5472  -11.7040  -45.8280 H         1 UNK         0.0600 
    130 H130        2.6707  -14.3376  -46.3370 H         1 UNK         0.3000 
    131 H131        0.5328  -14.7618  -46.5877 H         1 UNK         0.0600 
    132 H132        0.6676  -12.8906  -49.0023 H         1 UNK         0.0800 
    133 H133       -0.6753  -13.9424  -48.6596 H         1 UNK         0.0800 
    134 H134       -0.8863  -16.2911  -49.0729 H         1 UNK         0.0800 
    135 H135        0.2650  -16.7624  -47.8473 H         1 UNK         0.0800 
    136 H136       -1.2540  -17.6898  -50.9652 H         1 UNK         0.1150 
    137 H137        1.1904  -21.1550  -51.5836 H         1 UNK         0.1150 
    138 H138        2.2348  -18.3016  -48.5545 H         1 UNK         0.1150 
    139 H139        3.5853  -20.9184  -50.6293 H         1 UNK         0.0800 
    140 H140        3.8066  -20.0447  -49.1378 H         1 UNK         0.0800 
    141 H141        2.1348  -20.4098  -47.1991 H         1 UNK         0.0800 
    142 H142        3.1250  -21.6476  -46.4846 H         1 UNK         0.0800 
    143 H143        1.1638  -23.2234  -46.5213 H         1 UNK         0.0600 
    144 H144        1.4908  -21.0589  -44.7457 H         1 UNK         0.3000 
    145 H145       -1.1078  -21.9296  -42.4331 H         1 UNK         0.0600 
    146 H146        0.8358  -21.8514  -40.9051 H         1 UNK         0.0600 
    147 H147        1.9519  -21.9775  -42.2624 H         1 UNK         0.0600 
    148 H148        0.8882  -23.3218  -41.8657 H         1 UNK         0.0600 
    149 H149        0.7637  -19.7903  -42.4259 H         1 UNK         0.3000 
    150 H150       -1.1988  -17.4655  -44.3521 H         1 UNK         0.0600 
    151 H151       -1.9452  -17.2430  -42.0081 H         1 UNK         0.0600 
    152 H152       -0.6308  -16.1175  -42.3205 H         1 UNK         0.0600 
    153 H153       -0.3291  -17.6004  -41.4177 H         1 UNK         0.0600 
    154 H154        1.4161  -17.2253  -43.2617 H         1 UNK         0.3000 
    155 H155        3.2176  -18.6455  -46.0113 H         1 UNK         0.0600 
    156 H156        2.8030  -16.3415  -46.7299 H         1 UNK         0.0600 
    157 H157        4.3247  -16.4120  -45.8544 H         1 UNK         0.0600 
    158 H158        2.8886  -15.7564  -45.0677 H         1 UNK         0.0600 
    159 H159        3.8196  -17.4287  -43.4284 H         1 UNK         0.3000 
    160 H160        4.1361  -20.5329  -41.7024 H         1 UNK         0.0600 
    161 H161        6.3111  -18.6063  -42.6835 H         1 UNK         0.0600 
    162 H162        6.2929  -20.3458  -42.9483 H         1 UNK         0.0600 
    163 H163        6.4432  -19.7135  -41.3167 H         1 UNK         0.0600 
    164 H164        4.7021  -17.8182  -40.9692 H         1 UNK         0.3000 
    165 H165        1.4201  -16.9390  -39.9227 H         1 UNK         0.0600 
    166 H166        2.5043  -16.6031  -37.7359 H         1 UNK         0.0600 
    167 H167        2.2879  -18.3218  -38.0236 H         1 UNK         0.0600 
    168 H168        3.8795  -17.5966  -38.2209 H         1 UNK         0.0600 
    169 H169        3.6545  -15.4079  -39.5378 H         1 UNK         0.3000 
    170 H170        4.8061  -14.0606  -41.1974 H         1 UNK         0.0600 
    171 H171        3.0033  -13.5130  -43.6223 H         1 UNK         0.0600 
    172 H172        4.4551  -12.6144  -43.1935 H         1 UNK         0.0600 
    173 H173        4.5767  -14.3017  -43.6672 H         1 UNK         0.0600 
    174 H174        2.0542  -12.9027  -41.3738 H         1 UNK         0.3000 
    175 H175        2.1316  -11.6759  -38.1143 H         1 UNK         0.0600 
    176 H176        2.5970   -9.8396  -40.5274 H         1 UNK         0.0600 
    177 H177        1.8522   -9.3692  -38.9986 H         1 UNK         0.0600 
    178 H178        3.5437   -9.8387  -39.0442 H         1 UNK         0.0600 
    179 H179        0.4924  -11.0906  -40.4245 H         1 UNK         0.3000 
    180 H180       -1.4617  -14.0007  -40.3651 H         1 UNK         0.0600 
    181 H181       -3.3941  -12.5173  -39.9201 H         1 UNK         0.0600 
    182 H182       -2.3262  -11.2647  -39.2846 H         1 UNK         0.0600 
    183 H183       -2.5018  -12.7949  -38.4338 H         1 UNK         0.0600 
    184 H184       -1.9482  -11.6065  -41.7405 H         1 UNK         0.3000 
    185 H185       -1.6348  -11.9012  -44.1496 H         1 UNK         0.0600 
    186 H186       -0.5161   -9.9137  -43.0865 H         1 UNK         0.0600 
    187 H187        1.0661  -10.5349  -43.5472 H         1 UNK         0.0600 
    188 H188       -0.0753  -10.0122  -44.7833 H         1 UNK         0.0600 
    189 H189        0.8733  -13.3030  -44.5002 H         1 UNK         0.3000 
    190 H190       -0.3943  -19.9707  -46.5544 H         1 UNK         0.3000 
    191 H191       -2.0305  -20.3409  -48.8060 H         1 UNK         0.0600 
    192 H192       -1.6364  -18.1549  -47.6375 H         1 UNK         0.0600 
    193 H193       -2.6335  -18.6838  -46.2945 H         1 UNK         0.0600 
    194 H194       -3.3458  -18.4631  -47.8874 H         1 UNK         0.0600 
    195 H195       -2.7049  -21.1044  -45.3611 H         1 UNK         0.3000 
    196 H196       -5.3541  -22.0607  -45.7184 H         1 UNK         0.0600 
    197 H197       -4.4293  -21.3841  -43.5181 H         1 UNK         0.0600 
    198 H198       -3.2970  -22.7335  -43.5488 H         1 UNK         0.0600 
    199 H199       -5.0268  -23.0356  -43.4481 H         1 UNK         0.0600 
    200 H200       -2.2062  -23.7666  -45.8404 H         1 UNK         0.3000 
    201 H201       -3.2878  -26.3963  -46.2054 H         1 UNK         0.0600 
    202 H202       -0.9939  -26.0047  -45.3617 H         1 UNK         0.0600 
    203 H203       -0.5269  -25.2528  -46.8848 H         1 UNK         0.0600 
    204 H204       -0.9394  -26.9627  -46.8342 H         1 UNK         0.0600 
    205 H205       -2.1394  -23.8917  -48.5022 H         1 UNK         0.3000 
    206 H206       -2.5083  -25.3887  -50.8917 H         1 UNK         0.0600 
    207 H207       -2.4725  -22.3546  -50.4365 H         1 UNK         0.0600 
    208 H208       -2.2378  -23.1657  -51.9782 H         1 UNK         0.0600 
    209 H209       -1.0584  -23.3700  -50.7018 H         1 UNK         0.0600 
    210 H210       -4.6040  -23.0070  -49.2400 H         1 UNK         0.3000 
    211 H211       -6.7385  -22.5454  -49.2132 H         1 UNK         0.0600 
    212 H212       -7.2477  -25.4143  -50.1774 H         1 UNK         0.0600 
    213 H213       -8.3427  -24.4076  -49.2311 H         1 UNK         0.0600 
    214 H214       -6.8511  -24.9810  -48.5192 H         1 UNK         0.0600 
    215 H215       -8.9606  -23.4185  -50.8143 H         1 UNK         0.3000 
    216 H216       -8.7486  -21.6362  -53.0774 H         1 UNK         0.0600 
    217 H217      -11.1233  -22.3141  -53.4317 H         1 UNK         0.0600 
    218 H218      -10.8406  -21.8798  -51.7541 H         1 UNK         0.0600 
    219 H219      -10.9631  -23.5777  -52.2181 H         1 UNK         0.0600 
    220 H220       -8.0705  -24.9948  -52.6401 H         1 UNK         0.3000 
    221 H221       -8.6006  -26.0145  -55.2523 H         1 UNK         0.0600 
    222 H222       -6.6265  -26.9410  -53.0936 H         1 UNK         0.0600 
    223 H223       -8.2989  -27.4747  -53.2681 H         1 UNK         0.0600 
    224 H224       -7.1135  -27.8821  -54.4987 H         1 UNK         0.0600 
    225 H225       -5.8121  -24.3309  -53.8377 H         1 UNK         0.3000 
    226 H226       -4.1166  -24.5885  -56.2142 H         1 UNK         0.0600 
    227 H227       -2.5633  -23.2032  -54.8659 H         1 UNK         0.0600 
    228 H228       -3.8144  -22.9481  -53.6513 H         1 UNK         0.0600 
    229 H229       -3.1482  -24.5609  -53.9164 H         1 UNK         0.0600 
    230 H230       -6.2619  -23.7074  -57.3214 H         1 UNK         0.3000 
    231 H231       -7.0002  -21.0112  -57.1826 H         1 UNK         0.0600 
    232 H232       -8.3939  -22.7933  -58.1881 H         1 UNK         0.0600 
    233 H233       -7.2485  -22.9831  -59.5168 H         1 UNK         0.0600 
    234 H234       -8.1666  -21.4910  -59.3448 H         1 UNK         0.0600 
    235 H235       -4.2337  -22.3592  -58.7948 H         1 UNK         0.3000 
    236 H236       -3.7187  -20.1380  -60.5984 H         1 UNK         0.0600 
    237 H237       -1.9340  -22.4356  -59.6278 H         1 UNK         0.0600 
    238 H238       -2.9236  -22.4430  -61.0885 H         1 UNK         0.0600 
    239 H239       -1.5639  -21.3404  -60.9541 H         1 UNK         0.0600 
    240 H240       -3.2814  -20.5913  -57.1823 H         1 UNK         0.3000 
    241 H241       -0.9063  -18.9774  -56.8806 H         1 UNK         0.0600 
    242 H242       -2.1499  -15.6845  -56.3620 H         1 UNK         0.3800 
    243 H243       -0.7548  -16.7259  -56.3951 H         1 UNK         0.3800 
    244 H244       -1.7794  -20.8372  -55.2775 H         1 UNK         0.0800 
    245 H245       -2.8990  -19.6511  -54.6628 H         1 UNK         0.0800 
    246 H246       -1.0368  -21.0058  -52.6105 H         1 UNK         0.0800 
    247 H247       -2.0945  -19.6582  -52.2580 H         1 UNK         0.0800 
@<TRIPOS>BOND
     1    1    2 1    
     2    1  127 1    
     3    1  128 1    
     4    1  129 1    
     5    2    3 2    
     6    2    4 am   BACKBONE|DICT|INTERRES
     7    4    5 1    
     8    4  130 1    
     9    5    6 1    
    10    5   65 1    
    11    5  131 1    
    12    6    7 1    
    13    6  132 1    
    14    6  133 1    
    15    7    8 1    
    16    8    9 1    
    17    8  134 1    
    18    8  135 1    
    19    9   10 ar   
    20    9   14 ar   
    21   10   11 ar   
    22   10  136 1    
    23   11   12 ar   
    24   11  126 1    
    25   12   13 ar   
    26   12  137 1    
    27   13   14 ar   
    28   13   15 1    
    29   14  138 1    
    30   15   16 1    
    31   15  139 1    
    32   15  140 1    
    33   16   17 1    
    34   17   18 1    
    35   17  141 1    
    36   17  142 1    
    37   18   19 1    
    38   18   67 1    
    39   18  143 1    
    40   19   20 am   BACKBONE|DICT|INTERRES
    41   19  144 1    
    42   20   21 2    
    43   20   22 1    
    44   22   23 1    
    45   22   24 1    
    46   22  145 1    
    47   23  146 1    
    48   23  147 1    
    49   23  148 1    
    50   24   25 am   BACKBONE|DICT|INTERRES
    51   24  149 1    
    52   25   26 2    
    53   25   27 1    
    54   27   28 1    
    55   27   29 1    
    56   27  150 1    
    57   28  151 1    
    58   28  152 1    
    59   28  153 1    
    60   29   30 am   BACKBONE|DICT|INTERRES
    61   29  154 1    
    62   30   31 2    
    63   30   32 1    
    64   32   33 1    
    65   32   34 1    
    66   32  155 1    
    67   33  156 1    
    68   33  157 1    
    69   33  158 1    
    70   34   35 am   BACKBONE|DICT|INTERRES
    71   34  159 1    
    72   35   36 2    
    73   35   37 1    
    74   37   38 1    
    75   37   39 1    
    76   37  160 1    
    77   38  161 1    
    78   38  162 1    
    79   38  163 1    
    80   39   40 am   BACKBONE|DICT|INTERRES
    81   39  164 1    
    82   40   41 2    
    83   40   42 1    
    84   42   43 1    
    85   42   44 1    
    86   42  165 1    
    87   43  166 1    
    88   43  167 1    
    89   43  168 1    
    90   44   45 am   BACKBONE|DICT|INTERRES
    91   44  169 1    
    92   45   46 2    
    93   45   47 1    
    94   47   48 1    
    95   47   49 1    
    96   47  170 1    
    97   48  171 1    
    98   48  172 1    
    99   48  173 1    
   100   49   50 am   BACKBONE|DICT|INTERRES
   101   49  174 1    
   102   50   51 2    
   103   50   52 1    
   104   52   53 1    
   105   52   54 1    
   106   52  175 1    
   107   53  176 1    
   108   53  177 1    
   109   53  178 1    
   110   54   55 am   BACKBONE|DICT|INTERRES
   111   54  179 1    
   112   55   56 2    
   113   55   57 1    
   114   57   58 1    
   115   57   59 1    
   116   57  180 1    
   117   58  181 1    
   118   58  182 1    
   119   58  183 1    
   120   59   60 am   BACKBONE|DICT|INTERRES
   121   59  184 1    
   122   60   61 2    
   123   60   62 1    
   124   62   63 1    
   125   62   64 1    
   126   62  185 1    
   127   63  186 1    
   128   63  187 1    
   129   63  188 1    
   130   64   65 am   BACKBONE|DICT|INTERRES
   131   64  189 1    
   132   65   66 2    
   133   67   68 2    
   134   67   69 am   BACKBONE|DICT|INTERRES
   135   69   70 1    
   136   69  190 1    
   137   70   71 1    
   138   70   72 1    
   139   70  191 1    
   140   71  192 1    
   141   71  193 1    
   142   71  194 1    
   143   72   73 2    
   144   72   74 am   BACKBONE|DICT|INTERRES
   145   74   75 1    
   146   74  195 1    
   147   75   76 1    
   148   75   77 1    
   149   75  196 1    
   150   76  197 1    
   151   76  198 1    
   152   76  199 1    
   153   77   78 2    
   154   77   79 am   BACKBONE|DICT|INTERRES
   155   79   80 1    
   156   79  200 1    
   157   80   81 1    
   158   80   82 1    
   159   80  201 1    
   160   81  202 1    
   161   81  203 1    
   162   81  204 1    
   163   82   83 2    
   164   82   84 am   BACKBONE|DICT|INTERRES
   165   84   85 1    
   166   84  205 1    
   167   85   86 1    
   168   85   87 1    
   169   85  206 1    
   170   86  207 1    
   171   86  208 1    
   172   86  209 1    
   173   87   88 2    
   174   87   89 am   BACKBONE|DICT|INTERRES
   175   89   90 1    
   176   89  210 1    
   177   90   91 1    
   178   90   92 1    
   179   90  211 1    
   180   91  212 1    
   181   91  213 1    
   182   91  214 1    
   183   92   93 2    
   184   92   94 am   BACKBONE|DICT|INTERRES
   185   94   95 1    
   186   94  215 1    
   187   95   96 1    
   188   95   97 1    
   189   95  216 1    
   190   96  217 1    
   191   96  218 1    
   192   96  219 1    
   193   97   98 2    
   194   97   99 am   BACKBONE|DICT|INTERRES
   195   99  100 1    
   196   99  220 1    
   197  100  101 1    
   198  100  102 1    
   199  100  221 1    
   200  101  222 1    
   201  101  223 1    
   202  101  224 1    
   203  102  103 2    
   204  102  104 am   BACKBONE|DICT|INTERRES
   205  104  105 1    
   206  104  225 1    
   207  105  106 1    
   208  105  107 1    
   209  105  226 1    
   210  106  227 1    
   211  106  228 1    
   212  106  229 1    
   213  107  108 2    
   214  107  109 am   BACKBONE|DICT|INTERRES
   215  109  110 1    
   216  109  230 1    
   217  110  111 1    
   218  110  112 1    
   219  110  231 1    
   220  111  232 1    
   221  111  233 1    
   222  111  234 1    
   223  112  113 2    
   224  112  114 am   BACKBONE|DICT|INTERRES
   225  114  115 1    
   226  114  235 1    
   227  115  116 1    
   228  115  117 1    
   229  115  236 1    
   230  116  237 1    
   231  116  238 1    
   232  116  239 1    
   233  117  118 2    
   234  117  119 am   BACKBONE|DICT|INTERRES
   235  119  120 1    
   236  119  240 1    
   237  120  121 1    
   238  120  124 1    
   239  120  241 1    
   240  121  122 am   BACKBONE|DICT|INTERRES
   241  121  123 2    
   242  122  242 1    
   243  122  243 1    
   244  124  125 1    
   245  124  244 1    
   246  124  245 1    
   247  125  126 1    
   248  126  246 1    
   249  126  247 1    
@<TRIPOS>SUBSTRUCTURE
     1 UNK         1 GROUP             0       ****    0 ROOT    
