@<TRIPOS>MOLECULE
3R540
247   249    1
SMALL
USER_CHARGES


@<TRIPOS>ATOM
      1 CA         -1.7090  -16.2873  -47.5585 C.3       0 UNK        -0.1800 
      2 C          -1.7094  -14.7940  -47.2655 C.2       0 UNK         0.5000 
      3 O          -2.6421  -14.2947  -46.6360 O.2       0 UNK        -0.5000 
      4 N          -0.6780  -14.0816  -47.7351 N.am      1 UNK        -0.5000 
      5 CA         -0.4931  -12.6380  -47.5516 C.3       1 UNK         0.1400 
      6 C6          0.6656  -12.0900  -48.4173 C.3       23 UNK        -0.0398 
      7 S7          0.3572  -12.2868  -50.2064 S.3       23 UNK        -0.2404 
      8 C8          1.8455  -13.1777  -50.7571 C.3       23 UNK        -0.0205 
      9 C9          1.6909  -14.6878  -50.6500 C.ar      23 UNK        -0.0193 
     10 C10         1.2551  -15.4228  -51.7566 C.ar      23 UNK        -0.1150 
     11 C11         1.1806  -16.8160  -51.6963 C.ar      23 UNK        -0.0193 
     12 C12         1.5261  -17.4713  -50.5133 C.ar      23 UNK        -0.1150 
     13 C13         1.9476  -16.7522  -49.3860 C.ar      23 UNK        -0.0193 
     14 C14         2.0307  -15.3579  -49.4701 C.ar      23 UNK        -0.1150 
     15 C15         2.3633  -17.4264  -48.0750 C.3       23 UNK        -0.0205 
     16 S16         2.0904  -19.2307  -47.9766 S.3       23 UNK        -0.2404 
     17 C17         0.2748  -19.3045  -47.8264 C.3       23 UNK        -0.0398 
     18 CA         -0.2367  -20.7234  -47.5020 C.3       11 UNK         0.1400 
     19 N           0.2791  -21.2331  -46.2284 N.am      11 UNK        -0.5000 
     20 C           0.1233  -22.4897  -45.7920 C.2       10 UNK         0.5000 
     21 O          -0.4580  -23.3659  -46.4318 O.2       10 UNK        -0.5000 
     22 CA          0.6687  -22.8074  -44.3905 C.3       10 UNK         0.1400 
     23 CB          2.1748  -23.1057  -44.4403 C.3       10 UNK        -0.1800 
     24 N           0.4127  -21.7119  -43.4557 N.am      10 UNK        -0.5000 
     25 C          -0.7775  -21.4692  -42.8896 C.2       9 UNK         0.5000 
     26 O          -1.7721  -22.1742  -43.0654 O.2       9 UNK        -0.5000 
     27 CA         -0.8834  -20.2104  -42.0038 C.3       9 UNK         0.1400 
     28 CB         -0.3711  -20.5024  -40.5857 C.3       9 UNK        -0.1800 
     29 N          -0.1632  -19.0559  -42.5444 N.am      9 UNK        -0.5000 
     30 C          -0.4346  -18.4763  -43.7219 C.2       8 UNK         0.5000 
     31 O          -1.3510  -18.8256  -44.4610 O.2       8 UNK        -0.5000 
     32 CA          0.5026  -17.3515  -44.1867 C.3       8 UNK         0.1400 
     33 CB          0.0273  -16.0033  -43.6334 C.3       8 UNK        -0.1800 
     34 N           1.9088  -17.5651  -43.8430 N.am      8 UNK        -0.5000 
     35 C           2.6429  -18.6421  -44.1601 C.2       7 UNK         0.5000 
     36 O           2.1898  -19.6449  -44.7091 O.2       7 UNK        -0.5000 
     37 CA          4.1252  -18.6022  -43.7649 C.3       7 UNK         0.1400 
     38 CB          4.9238  -17.7194  -44.7369 C.3       7 UNK        -0.1800 
     39 N           4.2763  -18.1001  -42.4017 N.am      7 UNK        -0.5000 
     40 C           4.1882  -18.8650  -41.3055 C.2       6 UNK         0.5000 
     41 O           4.0741  -20.0909  -41.3326 O.2       6 UNK        -0.5000 
     42 CA          4.2127  -18.1391  -39.9463 C.3       6 UNK         0.1400 
     43 CB          5.6547  -18.0007  -39.4351 C.3       6 UNK        -0.1800 
     44 N           3.5858  -16.8158  -39.9784 N.am      6 UNK        -0.5000 
     45 C           2.2840  -16.5938  -40.2058 C.2       5 UNK         0.5000 
     46 O           1.4616  -17.4849  -40.4251 O.2       5 UNK        -0.5000 
     47 CA          1.8309  -15.1206  -40.2241 C.3       5 UNK         0.1400 
     48 CB          1.5660  -14.6278  -38.7934 C.3       5 UNK        -0.1800 
     49 N           2.7370  -14.1780  -40.8955 N.am      5 UNK        -0.5000 
     50 C           3.2954  -14.3170  -42.1084 C.2       4 UNK         0.5000 
     51 O           3.2453  -15.3528  -42.7704 O.2       4 UNK        -0.5000 
     52 CA          3.9842  -13.0704  -42.6866 C.3       4 UNK         0.1400 
     53 CB          4.3385  -13.2158  -44.1800 C.3       4 UNK        -0.1800 
     54 N           3.1100  -11.9158  -42.4959 N.am      4 UNK        -0.5000 
     55 C           3.5079  -10.6514  -42.3169 C.2       3 UNK         0.5000 
     56 O           4.6913  -10.3087  -42.2898 O.2       3 UNK        -0.5000 
     57 CA          2.3917   -9.6040  -42.1037 C.3       3 UNK         0.1400 
     58 CB          2.8128   -8.1800  -42.5257 C.3       3 UNK        -0.1800 
     59 N           1.1031   -9.9797  -42.7056 N.am      3 UNK        -0.5000 
     60 C           0.8224  -10.1111  -44.0108 C.2       2 UNK         0.5000 
     61 O           1.6299   -9.9044  -44.9202 O.2       2 UNK        -0.5000 
     62 CA         -0.6296  -10.5152  -44.3391 C.3       2 UNK         0.1400 
     63 CB         -1.5638   -9.2992  -44.2277 C.3       2 UNK        -0.1800 
     64 N          -0.7747  -11.0907  -45.6767 N.am      2 UNK        -0.5000 
     65 C          -0.2674  -12.2660  -46.0700 C.2       1 UNK         0.5000 
     66 O           0.3697  -13.0206  -45.3318 O.2       1 UNK        -0.5000 
     67 C          -1.7770  -20.7720  -47.5614 C.2       11 UNK         0.5000 
     68 O          -2.3245  -21.1422  -48.5966 O.2       11 UNK        -0.5000 
     69 N          -2.4515  -20.4505  -46.4485 N.am      12 UNK        -0.5000 
     70 CA         -3.9026  -20.5580  -46.2949 C.3       12 UNK         0.1400 
     71 CB         -4.3321  -19.9221  -44.9648 C.3       12 UNK        -0.1800 
     72 C          -4.4044  -22.0094  -46.3879 C.2       12 UNK         0.5000 
     73 O          -5.4380  -22.2502  -47.0099 O.2       12 UNK        -0.5000 
     74 N          -3.6508  -22.9542  -45.8068 N.am      13 UNK        -0.5000 
     75 CA         -3.9248  -24.3895  -45.8984 C.3       13 UNK         0.1400 
     76 CB         -3.0506  -25.1523  -44.8918 C.3       13 UNK        -0.1800 
     77 C          -3.7328  -24.9296  -47.3282 C.2       13 UNK         0.5000 
     78 O          -4.5379  -25.7423  -47.7831 O.2       13 UNK        -0.5000 
     79 N          -2.7014  -24.4371  -48.0286 N.am      14 UNK        -0.5000 
     80 CA         -2.4543  -24.7245  -49.4413 C.3       14 UNK         0.1400 
     81 CB         -1.0599  -24.2188  -49.8406 C.3       14 UNK        -0.1800 
     82 C          -3.5447  -24.1312  -50.3524 C.2       14 UNK         0.5000 
     83 O          -4.0377  -24.8268  -51.2388 O.2       14 UNK        -0.5000 
     84 N          -3.9359  -22.8755  -50.0992 N.am      15 UNK        -0.5000 
     85 CA         -4.9934  -22.1701  -50.8250 C.3       15 UNK         0.1400 
     86 CB         -4.9758  -20.6823  -50.4483 C.3       15 UNK        -0.1800 
     87 C          -6.3936  -22.7741  -50.6077 C.2       15 UNK         0.5000 
     88 O          -7.2367  -22.6713  -51.4955 O.2       15 UNK        -0.5000 
     89 N          -6.6217  -23.4223  -49.4582 N.am      16 UNK        -0.5000 
     90 CA         -7.8346  -24.1959  -49.1885 C.3       16 UNK         0.1400 
     91 CB         -7.9120  -24.5294  -47.6911 C.3       16 UNK        -0.1800 
     92 C          -7.9242  -25.4773  -50.0427 C.2       16 UNK         0.5000 
     93 O          -9.0325  -25.9150  -50.3548 O.2       16 UNK        -0.5000 
     94 N          -6.7689  -26.0480  -50.4123 N.am      17 UNK        -0.5000 
     95 CA         -6.6656  -27.2192  -51.2800 C.3       17 UNK         0.1400 
     96 CB         -5.3971  -28.0109  -50.9237 C.3       17 UNK        -0.1800 
     97 C          -6.6736  -26.8336  -52.7704 C.2       17 UNK         0.5000 
     98 O          -7.3636  -27.4853  -53.5557 O.2       17 UNK        -0.5000 
     99 N          -5.9134  -25.7937  -53.1373 N.am      18 UNK        -0.5000 
    100 CA        -5.7322  -25.3349  -54.5112 C.3       18 UNK         0.1400 
    101 CB        -4.5363  -26.0695  -55.1439 C.3       18 UNK        -0.1800 
    102 C         -5.5577  -23.8098  -54.5229 C.2       18 UNK         0.5000 
    103 O         -4.4288  -23.3118  -54.5102 O.2       18 UNK        -0.5000 
    104 N         -6.6871  -23.0900  -54.5349 N.am      19 UNK        -0.5000 
    105 CA        -6.7557  -21.6251  -54.5084 C.3       19 UNK         0.1400 
    106 CB        -8.2230  -21.1827  -54.3919 C.3       19 UNK        -0.1800 
    107 C         -6.0966  -20.9610  -55.7277 C.2       19 UNK         0.5000 
    108 O         -5.3834  -19.9704  -55.5700 O.2       19 UNK        -0.5000 
    109 N         -6.3130  -21.5458  -56.9142 N.am      20 UNK        -0.5000 
    110 CA        -5.7587  -21.0820  -58.1894 C.3       20 UNK         0.1400 
    111 CB        -6.4349  -21.8496  -59.3356 C.3       20 UNK        -0.1800 
    112 C         -4.2264  -21.2202  -58.2789 C.2       20 UNK         0.5000 
    113 O         -3.5896  -20.4585  -59.0075 O.2       20 UNK        -0.5000 
    114 N         -3.6662  -22.1774  -57.5287 N.am      21 UNK        -0.5000 
    115 CA        -2.2286  -22.4146  -57.4147 C.3       21 UNK         0.1400 
    116 CB        -1.9998  -23.9188  -57.1954 C.3       21 UNK        -0.1800 
    117 C         -1.5837  -21.6071  -56.2714 C.2       21 UNK         0.5000 
    118 O         -0.3558  -21.6018  -56.1738 O.2       21 UNK        -0.5000 
    119 N         -2.4008  -20.9664  -55.4195 N.am      22 UNK        -0.5000 
    120 CA        -1.9894  -20.3333  -54.1544 C.3       22 UNK         0.1400 
    121 C         -1.4702  -21.3732  -53.1095 C.2       22 UNK         0.5000 
    122 N         -2.0254  -22.5796  -53.0820 N.am      22 UNK        -0.7600 
    123 O         -0.5607  -21.1080  -52.3291 O.2       22 UNK        -0.5000 
    124 C124       -1.0480  -19.1174  -54.3947 C.3       23 UNK        -0.0398 
    125 S125       -1.0061  -17.9143  -53.0184 S.3       23 UNK        -0.2404 
    126 C126        0.7881  -17.6266  -52.9213 C.3       23 UNK        -0.0205 
    127 H127       -1.6914  -16.8527  -46.6269 H         1 UNK         0.0600 
    128 H128       -0.8468  -16.5761  -48.1590 H         1 UNK         0.0600 
    129 H129       -2.6096  -16.5635  -48.1068 H         1 UNK         0.0600 
    130 H130        0.0458  -14.5461  -48.2632 H         1 UNK         0.3000 
    131 H131       -1.4168  -12.1545  -47.8777 H         1 UNK         0.0600 
    132 H132        0.8068  -11.0229  -48.2346 H         1 UNK         0.0800 
    133 H133        1.6067  -12.5660  -48.1383 H         1 UNK         0.0800 
    134 H134        2.7193  -12.8421  -50.1966 H         1 UNK         0.0800 
    135 H135        2.0414  -12.9050  -51.7953 H         1 UNK         0.0800 
    136 H136        1.0001  -14.9129  -52.6751 H         1 UNK         0.1150 
    137 H137        1.4777  -18.5498  -50.4965 H         1 UNK         0.1150 
    138 H138        2.3856  -14.7942  -48.6186 H         1 UNK         0.1150 
    139 H139        3.4280  -17.2440  -47.9242 H         1 UNK         0.0800 
    140 H140        1.8516  -16.9454  -47.2406 H         1 UNK         0.0800 
    141 H141       -0.1615  -18.9493  -48.7614 H         1 UNK         0.0800 
    142 H142       -0.0415  -18.6102  -47.0505 H         1 UNK         0.0800 
    143 H143        0.1285  -21.3920  -48.2847 H         1 UNK         0.0600 
    144 H144        0.8292  -20.5878  -45.6675 H         1 UNK         0.3000 
    145 H145        0.1607  -23.7038  -44.0282 H         1 UNK         0.0600 
    146 H146        2.5579  -23.3643  -43.4531 H         1 UNK         0.0600 
    147 H147        2.3815  -23.9485  -45.1010 H         1 UNK         0.0600 
    148 H148        2.7472  -22.2540  -44.8088 H         1 UNK         0.0600 
    149 H149        1.1575  -21.0375  -43.3359 H         1 UNK         0.3000 
    150 H150       -1.9397  -19.9418  -41.9381 H         1 UNK         0.0600 
    151 H151       -0.8938  -21.3535  -40.1473 H         1 UNK         0.0600 
    152 H152       -0.5296  -19.6484  -39.9267 H         1 UNK         0.0600 
    153 H153        0.6955  -20.7318  -40.5829 H         1 UNK         0.0600 
    154 H154        0.5865  -18.6749  -41.9774 H         1 UNK         0.3000 
    155 H155        0.4516  -17.2983  -45.2733 H         1 UNK         0.0600 
    156 H156       -0.0682  -16.0295  -42.5495 H         1 UNK         0.0600 
    157 H157        0.7160  -15.2008  -43.8946 H         1 UNK         0.0600 
    158 H158       -0.9494  -15.7390  -44.0408 H         1 UNK         0.0600 
    159 H159        2.3812  -16.7814  -43.3962 H         1 UNK         0.3000 
    160 H160        4.5221  -19.6177  -43.8299 H         1 UNK         0.0600 
    161 H161        4.5721  -16.6872  -44.7351 H         1 UNK         0.0600 
    162 H162        4.8375  -18.0924  -45.7584 H         1 UNK         0.0600 
    163 H163        5.9833  -17.7122  -44.4813 H         1 UNK         0.0600 
    164 H164        4.2867  -17.0931  -42.2930 H         1 UNK         0.3000 
    165 H165        3.6566  -18.7548  -39.2360 H         1 UNK         0.0600 
    166 H166        5.6793  -17.5659  -38.4357 H         1 UNK         0.0600 
    167 H167        6.1433  -18.9742  -39.3766 H         1 UNK         0.0600 
    168 H168        6.2558  -17.3704  -40.0917 H         1 UNK         0.0600 
    169 H169        4.1882  -16.0207  -39.8246 H         1 UNK         0.3000 
    170 H170        0.8837  -15.0808  -40.7612 H         1 UNK         0.0600 
    171 H171        0.8793  -15.2947  -38.2699 H         1 UNK         0.0600 
    172 H172        2.4851  -14.5777  -38.2084 H         1 UNK         0.0600 
    173 H173        1.1136  -13.6360  -38.7940 H         1 UNK         0.0600 
    174 H174        2.8627  -13.2911  -40.4294 H         1 UNK         0.3000 
    175 H175        4.9071  -12.9311  -42.1200 H         1 UNK         0.0600 
    176 H176        3.4463  -13.3756  -44.7874 H         1 UNK         0.0600 
    177 H177        4.8428  -12.3254  -44.5554 H         1 UNK         0.0600 
    178 H178        5.0077  -14.0610  -44.3453 H         1 UNK         0.0600 
    179 H179        2.1186  -12.1112  -42.5089 H         1 UNK         0.3000 
    180 H180        2.2185   -9.5795  -41.0270 H         1 UNK         0.0600 
    181 H181        3.0948   -8.1335  -43.5778 H         1 UNK         0.0600 
    182 H182        3.6700   -7.8376  -41.9450 H         1 UNK         0.0600 
    183 H183        2.0065   -7.4650  -42.3619 H         1 UNK         0.0600 
    184 H184        0.3612  -10.1582  -42.0424 H         1 UNK         0.3000 
    185 H185       -0.9475  -11.2681  -43.6145 H         1 UNK         0.0600 
    186 H186       -1.5234   -8.8594  -43.2304 H         1 UNK         0.0600 
    187 H187       -1.2937   -8.5187  -44.9403 H         1 UNK         0.0600 
    188 H188       -2.6010   -9.5794  -44.4134 H         1 UNK         0.0600 
    189 H189       -1.2561  -10.5163  -46.3529 H         1 UNK         0.3000 
    190 H190       -1.9426  -20.0756  -45.6505 H         1 UNK         0.3000 
    191 H191       -4.3670  -19.9932  -47.1055 H         1 UNK         0.0600 
    192 H192       -3.8497  -20.4047  -44.1138 H         1 UNK         0.0600 
    193 H193       -5.4105  -20.0014  -44.8222 H         1 UNK         0.0600 
    194 H194       -4.0785  -18.8622  -44.9362 H         1 UNK         0.0600 
    195 H195       -2.8153  -22.6770  -45.3095 H         1 UNK         0.3000 
    196 H196       -4.9695  -24.5488  -45.6230 H         1 UNK         0.0600 
    197 H197       -3.2858  -26.2172  -44.9028 H         1 UNK         0.0600 
    198 H198       -3.2143  -24.7927  -43.8757 H         1 UNK         0.0600 
    199 H199       -1.9888  -25.0506  -45.1143 H         1 UNK         0.0600 
    200 H200       -2.0466  -23.8175  -47.5617 H         1 UNK         0.3000 
    201 H201       -2.4678  -25.8090  -49.5686 H         1 UNK         0.0600 
    202 H202       -0.2894  -24.6314  -49.1890 H         1 UNK         0.0600 
    203 H203       -0.9903  -23.1320  -49.7918 H         1 UNK         0.0600 
    204 H204       -0.8157  -24.5173  -50.8604 H         1 UNK         0.0600 
    205 H205       -3.4315  -22.3358  -49.3982 H         1 UNK         0.3000 
    206 H206       -4.7669  -22.2486  -51.8897 H         1 UNK         0.0600 
    207 H207       -4.0111  -20.2298  -50.6799 H         1 UNK         0.0600 
    208 H208       -5.7359  -20.1295  -51.0016 H         1 UNK         0.0600 
    209 H209       -5.1694  -20.5371  -49.3854 H         1 UNK         0.0600 
    210 H210       -5.9225  -23.3858  -48.7256 H         1 UNK         0.3000 
    211 H211       -8.6962  -23.5730  -49.4378 H         1 UNK         0.0600 
    212 H212       -7.0789  -25.1547  -47.3718 H         1 UNK         0.0600 
    213 H213       -8.8321  -25.0671  -47.4591 H         1 UNK         0.0600 
    214 H214       -7.9035  -23.6238  -47.0842 H         1 UNK         0.0600 
    215 H215       -5.8995  -25.6149  -50.1295 H         1 UNK         0.3000 
    216 H216       -7.5210  -27.8738  -51.0998 H         1 UNK         0.0600 
    217 H217       -5.3211  -28.9154  -51.5284 H         1 UNK         0.0600 
    218 H218       -5.4064  -28.3179  -49.8777 H         1 UNK         0.0600 
    219 H219       -4.4907  -27.4292  -51.0914 H         1 UNK         0.0600 
    220 H220       -5.3417  -25.3261  -52.4354 H         1 UNK         0.3000 
    221 H221       -6.6214  -25.5653  -55.1020 H         1 UNK         0.0600 
    222 H222       -3.6160  -25.8978  -54.5839 H         1 UNK         0.0600 
    223 H223       -4.7084  -27.1452  -55.1792 H         1 UNK         0.0600 
    224 H224       -4.3708  -25.7346  -56.1683 H         1 UNK         0.0600 
    225 H225       -7.5707  -23.5770  -54.4974 H         1 UNK         0.3000 
    226 H226       -6.2227  -21.2796  -53.6210 H         1 UNK         0.0600 
    227 H227       -8.6861  -21.5773  -53.4877 H         1 UNK         0.0600 
    228 H228       -8.3001  -20.0956  -54.3449 H         1 UNK         0.0600 
    229 H229       -8.8156  -21.5179  -55.2439 H         1 UNK         0.0600 
    230 H230       -6.9069  -22.3615  -56.9466 H         1 UNK         0.3000 
    231 H231       -5.9996  -20.0223  -58.2969 H         1 UNK         0.0600 
    232 H232       -6.0650  -21.5108  -60.3044 H         1 UNK         0.0600 
    233 H233       -7.5143  -21.6968  -59.3305 H         1 UNK         0.0600 
    234 H234       -6.2459  -22.9217  -59.2689 H         1 UNK         0.0600 
    235 H235       -4.2610  -22.7380  -56.9354 H         1 UNK         0.3000 
    236 H236       -1.7335  -22.1277  -58.3447 H         1 UNK         0.0600 
    237 H237       -2.4671  -24.5115  -57.9819 H         1 UNK         0.0600 
    238 H238       -0.9352  -24.1561  -57.1994 H         1 UNK         0.0600 
    239 H239       -2.4023  -24.2491  -56.2375 H         1 UNK         0.0600 
    240 H240       -3.3980  -21.0074  -55.5820 H         1 UNK         0.3000 
    241 H241       -2.9121  -19.9431  -53.7236 H         1 UNK         0.0600 
    242 H242       -2.8045  -22.8166  -53.6917 H         1 UNK         0.3800 
    243 H243       -1.6812  -23.2591  -52.4278 H         1 UNK         0.3800 
    244 H244       -0.0398  -19.4637  -54.6254 H         1 UNK         0.0800 
    245 H245       -1.3789  -18.5675  -55.2767 H         1 UNK         0.0800 
    246 H246        1.3066  -18.5868  -52.8995 H         1 UNK         0.0800 
    247 H247        1.1208  -17.1195  -53.8283 H         1 UNK         0.0800 
@<TRIPOS>BOND
     1    1    2 1    
     2    1  127 1    
     3    1  128 1    
     4    1  129 1    
     5    2    3 2    
     6    2    4 am   BACKBONE|DICT|INTERRES
     7    4    5 1    
     8    4  130 1    
     9    5    6 1    
    10    5   65 1    
    11    5  131 1    
    12    6    7 1    
    13    6  132 1    
    14    6  133 1    
    15    7    8 1    
    16    8    9 1    
    17    8  134 1    
    18    8  135 1    
    19    9   10 ar   
    20    9   14 ar   
    21   10   11 ar   
    22   10  136 1    
    23   11   12 ar   
    24   11  126 1    
    25   12   13 ar   
    26   12  137 1    
    27   13   14 ar   
    28   13   15 1    
    29   14  138 1    
    30   15   16 1    
    31   15  139 1    
    32   15  140 1    
    33   16   17 1    
    34   17   18 1    
    35   17  141 1    
    36   17  142 1    
    37   18   19 1    
    38   18   67 1    
    39   18  143 1    
    40   19   20 am   BACKBONE|DICT|INTERRES
    41   19  144 1    
    42   20   21 2    
    43   20   22 1    
    44   22   23 1    
    45   22   24 1    
    46   22  145 1    
    47   23  146 1    
    48   23  147 1    
    49   23  148 1    
    50   24   25 am   BACKBONE|DICT|INTERRES
    51   24  149 1    
    52   25   26 2    
    53   25   27 1    
    54   27   28 1    
    55   27   29 1    
    56   27  150 1    
    57   28  151 1    
    58   28  152 1    
    59   28  153 1    
    60   29   30 am   BACKBONE|DICT|INTERRES
    61   29  154 1    
    62   30   31 2    
    63   30   32 1    
    64   32   33 1    
    65   32   34 1    
    66   32  155 1    
    67   33  156 1    
    68   33  157 1    
    69   33  158 1    
    70   34   35 am   BACKBONE|DICT|INTERRES
    71   34  159 1    
    72   35   36 2    
    73   35   37 1    
    74   37   38 1    
    75   37   39 1    
    76   37  160 1    
    77   38  161 1    
    78   38  162 1    
    79   38  163 1    
    80   39   40 am   BACKBONE|DICT|INTERRES
    81   39  164 1    
    82   40   41 2    
    83   40   42 1    
    84   42   43 1    
    85   42   44 1    
    86   42  165 1    
    87   43  166 1    
    88   43  167 1    
    89   43  168 1    
    90   44   45 am   BACKBONE|DICT|INTERRES
    91   44  169 1    
    92   45   46 2    
    93   45   47 1    
    94   47   48 1    
    95   47   49 1    
    96   47  170 1    
    97   48  171 1    
    98   48  172 1    
    99   48  173 1    
   100   49   50 am   BACKBONE|DICT|INTERRES
   101   49  174 1    
   102   50   51 2    
   103   50   52 1    
   104   52   53 1    
   105   52   54 1    
   106   52  175 1    
   107   53  176 1    
   108   53  177 1    
   109   53  178 1    
   110   54   55 am   BACKBONE|DICT|INTERRES
   111   54  179 1    
   112   55   56 2    
   113   55   57 1    
   114   57   58 1    
   115   57   59 1    
   116   57  180 1    
   117   58  181 1    
   118   58  182 1    
   119   58  183 1    
   120   59   60 am   BACKBONE|DICT|INTERRES
   121   59  184 1    
   122   60   61 2    
   123   60   62 1    
   124   62   63 1    
   125   62   64 1    
   126   62  185 1    
   127   63  186 1    
   128   63  187 1    
   129   63  188 1    
   130   64   65 am   BACKBONE|DICT|INTERRES
   131   64  189 1    
   132   65   66 2    
   133   67   68 2    
   134   67   69 am   BACKBONE|DICT|INTERRES
   135   69   70 1    
   136   69  190 1    
   137   70   71 1    
   138   70   72 1    
   139   70  191 1    
   140   71  192 1    
   141   71  193 1    
   142   71  194 1    
   143   72   73 2    
   144   72   74 am   BACKBONE|DICT|INTERRES
   145   74   75 1    
   146   74  195 1    
   147   75   76 1    
   148   75   77 1    
   149   75  196 1    
   150   76  197 1    
   151   76  198 1    
   152   76  199 1    
   153   77   78 2    
   154   77   79 am   BACKBONE|DICT|INTERRES
   155   79   80 1    
   156   79  200 1    
   157   80   81 1    
   158   80   82 1    
   159   80  201 1    
   160   81  202 1    
   161   81  203 1    
   162   81  204 1    
   163   82   83 2    
   164   82   84 am   BACKBONE|DICT|INTERRES
   165   84   85 1    
   166   84  205 1    
   167   85   86 1    
   168   85   87 1    
   169   85  206 1    
   170   86  207 1    
   171   86  208 1    
   172   86  209 1    
   173   87   88 2    
   174   87   89 am   BACKBONE|DICT|INTERRES
   175   89   90 1    
   176   89  210 1    
   177   90   91 1    
   178   90   92 1    
   179   90  211 1    
   180   91  212 1    
   181   91  213 1    
   182   91  214 1    
   183   92   93 2    
   184   92   94 am   BACKBONE|DICT|INTERRES
   185   94   95 1    
   186   94  215 1    
   187   95   96 1    
   188   95   97 1    
   189   95  216 1    
   190   96  217 1    
   191   96  218 1    
   192   96  219 1    
   193   97   98 2    
   194   97   99 am   BACKBONE|DICT|INTERRES
   195   99  100 1    
   196   99  220 1    
   197  100  101 1    
   198  100  102 1    
   199  100  221 1    
   200  101  222 1    
   201  101  223 1    
   202  101  224 1    
   203  102  103 2    
   204  102  104 am   BACKBONE|DICT|INTERRES
   205  104  105 1    
   206  104  225 1    
   207  105  106 1    
   208  105  107 1    
   209  105  226 1    
   210  106  227 1    
   211  106  228 1    
   212  106  229 1    
   213  107  108 2    
   214  107  109 am   BACKBONE|DICT|INTERRES
   215  109  110 1    
   216  109  230 1    
   217  110  111 1    
   218  110  112 1    
   219  110  231 1    
   220  111  232 1    
   221  111  233 1    
   222  111  234 1    
   223  112  113 2    
   224  112  114 am   BACKBONE|DICT|INTERRES
   225  114  115 1    
   226  114  235 1    
   227  115  116 1    
   228  115  117 1    
   229  115  236 1    
   230  116  237 1    
   231  116  238 1    
   232  116  239 1    
   233  117  118 2    
   234  117  119 am   BACKBONE|DICT|INTERRES
   235  119  120 1    
   236  119  240 1    
   237  120  121 1    
   238  120  124 1    
   239  120  241 1    
   240  121  122 am   BACKBONE|DICT|INTERRES
   241  121  123 2    
   242  122  242 1    
   243  122  243 1    
   244  124  125 1    
   245  124  244 1    
   246  124  245 1    
   247  125  126 1    
   248  126  246 1    
   249  126  247 1    
@<TRIPOS>SUBSTRUCTURE
     1 UNK         1 GROUP             0       ****    0 ROOT    
