@<TRIPOS>MOLECULE
3R540
247   249    1
SMALL
USER_CHARGES


@<TRIPOS>ATOM
      1 CA         -5.9077  -15.1919  -48.9254 C.3       0 UNK        -0.1800 
      2 C          -4.7290  -14.3002  -49.2802 C.2       0 UNK         0.5000 
      3 O          -4.6245  -13.1876  -48.7649 O.2       0 UNK        -0.5000 
      4 N          -3.8320  -14.7875  -50.1468 N.am      1 UNK        -0.5000 
      5 CA         -2.6642  -14.0578  -50.6635 C.3       1 UNK         0.1400 
      6 C6         -2.0191  -14.8001  -51.8587 C.3       23 UNK        -0.0398 
      7 S7         -1.4053  -16.4634  -51.4196 S.3       23 UNK        -0.2404 
      8 C8          0.3788  -16.2738  -51.7022 C.3       23 UNK        -0.0205 
      9 C9          1.1694  -17.3634  -50.9966 C.ar      23 UNK        -0.0193 
     10 C10         1.2905  -18.6365  -51.5630 C.ar      23 UNK        -0.1150 
     11 C11         2.0334  -19.6320  -50.9190 C.ar      23 UNK        -0.0193 
     12 C12         2.6772  -19.3357  -49.7136 C.ar      23 UNK        -0.1150 
     13 C13         2.5410  -18.0752  -49.1248 C.ar      23 UNK        -0.0193 
     14 C14         1.7854  -17.0940  -49.7715 C.ar      23 UNK        -0.1150 
     15 C15         3.2021  -17.7685  -47.7892 C.3       23 UNK        -0.0205 
     16 S16         2.0976  -18.1398  -46.3888 S.3       23 UNK        -0.2404 
     17 C17         2.2677  -19.9495  -46.2416 C.3       23 UNK        -0.0398 
     18 CA          1.1417  -20.7426  -46.9471 C.3       11 UNK         0.1400 
     19 N           1.5467  -22.1272  -47.1922 N.am      11 UNK        -0.5000 
     20 C           0.9781  -22.9466  -48.0852 C.2       10 UNK         0.5000 
     21 O           0.0719  -22.6066  -48.8415 O.2       10 UNK        -0.5000 
     22 CA          1.4832  -24.4011  -48.1127 C.3       10 UNK         0.1400 
     23 CB          2.6730  -24.5364  -49.0738 C.3       10 UNK        -0.1800 
     24 N           1.8641  -24.8923  -46.7853 N.am      10 UNK        -0.5000 
     25 C           0.9924  -25.1114  -45.7901 C.2       9 UNK         0.5000 
     26 O          -0.2233  -24.9645  -45.9083 O.2       9 UNK        -0.5000 
     27 CA          1.5759  -25.5031  -44.4177 C.3       9 UNK         0.1400 
     28 CB          1.7701  -27.0241  -44.3314 C.3       9 UNK        -0.1800 
     29 N           2.8375  -24.8325  -44.0805 N.am      9 UNK        -0.5000 
     30 C           3.0232  -23.5059  -44.0424 C.2       8 UNK         0.5000 
     31 O           2.1521  -22.6909  -44.3549 O.2       8 UNK        -0.5000 
     32 CA          4.4315  -23.0205  -43.6426 C.3       8 UNK         0.1400 
     33 CB          5.4501  -23.3719  -44.7402 C.3       8 UNK        -0.1800 
     34 N           4.4879  -21.5746  -43.4171 N.am      8 UNK        -0.5000 
     35 C           3.8836  -20.9099  -42.4233 C.2       7 UNK         0.5000 
     36 O           3.2553  -21.4572  -41.5157 O.2       7 UNK        -0.5000 
     37 CA          3.9701  -19.3746  -42.4540 C.3       7 UNK         0.1400 
     38 CB          4.9535  -18.8132  -43.5089 C.3       7 UNK        -0.1800 
     39 N           2.6240  -18.8615  -42.6855 N.am      7 UNK        -0.5000 
     40 C           2.2104  -17.6110  -42.4546 C.2       6 UNK         0.5000 
     41 O           2.9387  -16.7304  -41.9899 O.2       6 UNK        -0.5000 
     42 CA          0.7531  -17.2674  -42.8418 C.3       6 UNK         0.1400 
     43 CB         -0.1776  -18.4933  -42.9727 C.3       6 UNK        -0.1800 
     44 N           0.1647  -16.2581  -41.9583 N.am      6 UNK        -0.5000 
     45 C          -0.0487  -16.3510  -40.6402 C.2       5 UNK         0.5000 
     46 O           0.1599  -17.3713  -39.9820 O.2       5 UNK        -0.5000 
     47 CA         -0.5977  -15.1013  -39.9196 C.3       5 UNK         0.1400 
     48 CB          0.5548  -14.2060  -39.4250 C.3       5 UNK        -0.1800 
     49 N          -1.5981  -14.3141  -40.6601 N.am      5 UNK        -0.5000 
     50 C          -1.4528  -13.5957  -41.7822 C.2       4 UNK         0.5000 
     51 O          -0.4132  -13.5462  -42.4436 O.2       4 UNK        -0.5000 
     52 CA         -2.6783  -12.7816  -42.2208 C.3       4 UNK         0.1400 
     53 CB         -2.8187  -11.5098  -41.3614 C.3       4 UNK        -0.1800 
     54 N          -2.5529  -12.4216  -43.6302 N.am      4 UNK        -0.5000 
     55 C          -3.5487  -12.0098  -44.4210 C.2       3 UNK         0.5000 
     56 O          -4.7162  -11.9065  -44.0420 O.2       3 UNK        -0.5000 
     57 CA         -3.2038  -11.6603  -45.8814 C.3       3 UNK         0.1400 
     58 CB         -2.4967  -10.2952  -45.9862 C.3       3 UNK        -0.1800 
     59 N          -2.4745  -12.7116  -46.5993 N.am      3 UNK        -0.5000 
     60 C          -1.2172  -13.1476  -46.4235 C.2       2 UNK         0.5000 
     61 O          -0.4440  -12.6876  -45.5840 O.2       2 UNK        -0.5000 
     62 CA         -0.7409  -14.3066  -47.3243 C.3       2 UNK         0.1400 
     63 CB         -0.7004  -15.6181  -46.5261 C.3       2 UNK        -0.1800 
     64 N          -1.5852  -14.5085  -48.5013 N.am      2 UNK        -0.5000 
     65 C          -1.6211  -13.7086  -49.5763 C.2       1 UNK         0.5000 
     66 O          -0.8939  -12.7257  -49.7226 O.2       1 UNK        -0.5000 
     67 C          -0.1929  -20.6878  -46.1802 C.2       11 UNK         0.5000 
     68 O          -1.0597  -19.8850  -46.5210 O.2       11 UNK        -0.5000 
     69 N          -0.3582  -21.5763  -45.1897 N.am      12 UNK        -0.5000 
     70 CA         -1.6029  -21.7563  -44.4406 C.3       12 UNK         0.1400 
     71 CB         -1.3633  -22.7225  -43.2719 C.3       12 UNK        -0.1800 
     72 C          -2.7615  -22.2368  -45.3354 C.2       12 UNK         0.5000 
     73 O          -3.8853  -21.7585  -45.1817 O.2       12 UNK        -0.5000 
     74 N          -2.4566  -23.1324  -46.2856 N.am      13 UNK        -0.5000 
     75 CA         -3.3691  -23.5574  -47.3442 C.3       13 UNK         0.1400 
     76 CB         -2.7771  -24.7575  -48.0968 C.3       13 UNK        -0.1800 
     77 C          -3.7076  -22.4071  -48.3078 C.2       13 UNK         0.5000 
     78 O          -4.8860  -22.1667  -48.5605 O.2       13 UNK        -0.5000 
     79 N          -2.6862  -21.6825  -48.7869 N.am      14 UNK        -0.5000 
     80 CA         -2.8201  -20.5293  -49.6825 C.3       14 UNK         0.1400 
     81 CB         -1.4285  -20.0318  -50.0801 C.3       14 UNK        -0.1800 
     82 C          -3.6389  -19.3642  -49.0985 C.2       14 UNK         0.5000 
     83 O          -4.3274  -18.6731  -49.8512 O.2       14 UNK        -0.5000 
     84 N          -3.5731  -19.1830  -47.7737 N.am      15 UNK        -0.5000 
     85 CA         -4.3681  -18.2181  -47.0159 C.3       15 UNK         0.1400 
     86 CB         -3.8161  -18.1247  -45.5849 C.3       15 UNK        -0.1800 
     87 C          -5.8748  -18.5501  -46.9924 C.2       15 UNK         0.5000 
     88 O          -6.6843  -17.6381  -46.8275 O.2       15 UNK        -0.5000 
     89 N          -6.2286  -19.8315  -47.1579 N.am      16 UNK        -0.5000 
     90 CA         -7.6098  -20.3056  -47.2338 C.3       16 UNK         0.1400 
     91 CB         -7.7224  -21.6510  -46.4988 C.3       16 UNK        -0.1800 
     92 C          -8.0731  -20.4434  -48.6942 C.2       16 UNK         0.5000 
     93 O          -9.1891  -20.0392  -49.0213 O.2       16 UNK        -0.5000 
     94 N          -7.2102  -21.0155  -49.5437 N.am      17 UNK        -0.5000 
     95 CA         -7.4809  -21.3221  -50.9488 C.3       17 UNK         0.1400 
     96 CB         -6.4893  -22.4018  -51.4118 C.3       17 UNK        -0.1800 
     97 C          -7.4198  -20.1011  -51.8861 C.2       17 UNK         0.5000 
     98 O          -7.9163  -20.1968  -53.0090 O.2       17 UNK        -0.5000 
     99 N          -6.8157  -18.9973  -51.4194 N.am      18 UNK        -0.5000 
    100 CA        -6.4966  -17.7736  -52.1603 C.3       18 UNK         0.1400 
    101 CB        -7.7653  -17.0695  -52.6857 C.3       18 UNK        -0.1800 
    102 C         -5.4481  -18.0638  -53.2501 C.2       18 UNK         0.5000 
    103 O         -5.7576  -18.0365  -54.4427 O.2       18 UNK        -0.5000 
    104 N         -4.2287  -18.3670  -52.7853 N.am      19 UNK        -0.5000 
    105 CA        -3.0732  -18.8394  -53.5536 C.3       19 UNK         0.1400 
    106 CB        -2.6712  -17.8533  -54.6752 C.3       19 UNK        -0.1800 
    107 C         -3.2702  -20.2964  -54.0131 C.2       19 UNK         0.5000 
    108 O         -3.8335  -21.0911  -53.2587 O.2       19 UNK        -0.5000 
    109 N         -2.7529  -20.6410  -55.2007 N.am      20 UNK        -0.5000 
    110 CA        -2.7962  -21.9411  -55.8885 C.3       20 UNK         0.1400 
    111 CB        -4.2481  -22.3829  -56.1546 C.3       20 UNK        -0.1800 
    112 C         -1.9914  -23.0770  -55.2213 C.2       20 UNK         0.5000 
    113 O         -1.3930  -23.8802  -55.9381 O.2       20 UNK        -0.5000 
    114 N         -1.9599  -23.1181  -53.8828 N.am      21 UNK        -0.5000 
    115 CA        -1.3639  -24.1692  -53.0482 C.3       21 UNK         0.1400 
    116 CB        -1.6726  -23.8640  -51.5754 C.3       21 UNK        -0.1800 
    117 C          0.1492  -24.4096  -53.2442 C.2       21 UNK         0.5000 
    118 O          0.6360  -25.4791  -52.8748 O.2       21 UNK        -0.5000 
    119 N          0.8566  -23.4395  -53.8327 N.am      22 UNK        -0.5000 
    120 CA         2.2554  -23.5533  -54.2736 C.3       22 UNK         0.1400 
    121 C          2.4572  -23.1364  -55.7605 C.2       22 UNK         0.5000 
    122 N          1.4130  -23.0972  -56.5817 N.am      22 UNK        -0.7600 
    123 O          3.5760  -22.8704  -56.1915 O.2       22 UNK        -0.5000 
    124 C124        3.2469  -22.8914  -53.2792 C.3       23 UNK        -0.0398 
    125 S125        3.0384  -21.0885  -53.0581 S.3       23 UNK        -0.2404 
    126 C126        2.1093  -21.0384  -51.4964 C.3       23 UNK        -0.0205 
    127 H127       -6.0765  -15.1775  -47.8489 H         1 UNK         0.0600 
    128 H128       -5.7400  -16.2251  -49.2282 H         1 UNK         0.0600 
    129 H129       -6.8116  -14.8329  -49.4169 H         1 UNK         0.0600 
    130 H130       -3.9434  -15.7254  -50.5047 H         1 UNK         0.3000 
    131 H131       -3.0364  -13.1035  -51.0426 H         1 UNK         0.0600 
    132 H132       -2.7555  -14.9152  -52.6549 H         1 UNK         0.0800 
    133 H133       -1.2159  -14.2019  -52.2923 H         1 UNK         0.0800 
    134 H134        0.5804  -16.3003  -52.7740 H         1 UNK         0.0800 
    135 H135        0.7046  -15.2941  -51.3489 H         1 UNK         0.0800 
    136 H136        0.7965  -18.8568  -52.4988 H         1 UNK         0.1150 
    137 H137        3.2558  -20.0986  -49.2124 H         1 UNK         0.1150 
    138 H138        1.6770  -16.1181  -49.3192 H         1 UNK         0.1150 
    139 H139        4.1402  -18.3160  -47.6884 H         1 UNK         0.0800 
    140 H140        3.4677  -16.7111  -47.7485 H         1 UNK         0.0800 
    141 H141        3.2372  -20.2350  -46.6510 H         1 UNK         0.0800 
    142 H142        2.3167  -20.2047  -45.1837 H         1 UNK         0.0800 
    143 H143        0.9602  -20.2840  -47.9183 H         1 UNK         0.0600 
    144 H144        2.2146  -22.5156  -46.5411 H         1 UNK         0.3000 
    145 H145        0.6712  -25.0274  -48.4881 H         1 UNK         0.0600 
    146 H146        3.0107  -25.5707  -49.1407 H         1 UNK         0.0600 
    147 H147        2.3938  -24.2229  -50.0806 H         1 UNK         0.0600 
    148 H148        3.5197  -23.9246  -48.7599 H         1 UNK         0.0600 
    149 H149        2.8474  -25.0386  -46.6107 H         1 UNK         0.3000 
    150 H150        0.8450  -25.2130  -43.6607 H         1 UNK         0.0600 
    151 H151        2.5256  -27.3745  -45.0357 H         1 UNK         0.0600 
    152 H152        0.8414  -27.5501  -44.5572 H         1 UNK         0.0600 
    153 H153        2.0771  -27.3269  -43.3302 H         1 UNK         0.0600 
    154 H154        3.6058  -25.4364  -43.8261 H         1 UNK         0.3000 
    155 H155        4.7154  -23.5243  -42.7165 H         1 UNK         0.0600 
    156 H156        5.1952  -22.9024  -45.6914 H         1 UNK         0.0600 
    157 H157        5.5008  -24.4482  -44.9086 H         1 UNK         0.0600 
    158 H158        6.4533  -23.0457  -44.4649 H         1 UNK         0.0600 
    159 H159        4.9704  -21.0360  -44.1204 H         1 UNK         0.3000 
    160 H160        4.3028  -19.0570  -41.4638 H         1 UNK         0.0600 
    161 H161        4.6323  -19.0326  -44.5274 H         1 UNK         0.0600 
    162 H162        5.9555  -19.2223  -43.3732 H         1 UNK         0.0600 
    163 H163        5.0452  -17.7305  -43.4248 H         1 UNK         0.0600 
    164 H164        1.9516  -19.5475  -42.9983 H         1 UNK         0.3000 
    165 H165        0.8141  -16.7998  -43.8245 H         1 UNK         0.0600 
    166 H166       -1.1910  -18.1895  -43.2355 H         1 UNK         0.0600 
    167 H167        0.1647  -19.1597  -43.7618 H         1 UNK         0.0600 
    168 H168       -0.2305  -19.0708  -42.0493 H         1 UNK         0.0600 
    169 H169        0.0175  -15.3396  -42.3700 H         1 UNK         0.3000 
    170 H170       -1.1206  -15.4679  -39.0347 H         1 UNK         0.0600 
    171 H171        1.2355  -14.7678  -38.7842 H         1 UNK         0.0600 
    172 H172        1.1440  -13.8069  -40.2511 H         1 UNK         0.0600 
    173 H173        0.1795  -13.3648  -38.8422 H         1 UNK         0.0600 
    174 H174       -2.5108  -14.3034  -40.2260 H         1 UNK         0.3000 
    175 H175       -3.5640  -13.4078  -42.0952 H         1 UNK         0.0600 
    176 H176       -1.9622  -10.8466  -41.4883 H         1 UNK         0.0600 
    177 H177       -3.7165  -10.9485  -41.6201 H         1 UNK         0.0600 
    178 H178       -2.8899  -11.7545  -40.3010 H         1 UNK         0.0600 
    179 H179       -1.6190  -12.5246  -44.0239 H         1 UNK         0.3000 
    180 H180       -4.1547  -11.5659  -46.4086 H         1 UNK         0.0600 
    181 H181       -3.1132   -9.5066  -45.5532 H         1 UNK         0.0600 
    182 H182       -2.3098  -10.0280  -47.0263 H         1 UNK         0.0600 
    183 H183       -1.5421  -10.2841  -45.4598 H         1 UNK         0.0600 
    184 H184       -3.0178  -13.1557  -47.3303 H         1 UNK         0.3000 
    185 H185        0.2719  -14.0754  -47.6607 H         1 UNK         0.0600 
    186 H186       -0.0011  -15.5423  -45.6933 H         1 UNK         0.0600 
    187 H187       -1.6781  -15.8642  -46.1123 H         1 UNK         0.0600 
    188 H188       -0.3771  -16.4539  -47.1475 H         1 UNK         0.0600 
    189 H189       -2.2038  -15.3056  -48.4856 H         1 UNK         0.3000 
    190 H190        0.4244  -22.1742  -44.9384 H         1 UNK         0.3000 
    191 H191       -1.8860  -20.7862  -44.0272 H         1 UNK         0.0600 
    192 H192       -0.5577  -22.3702  -42.6272 H         1 UNK         0.0600 
    193 H193       -2.2583  -22.8160  -42.6557 H         1 UNK         0.0600 
    194 H194       -1.1011  -23.7206  -43.6215 H         1 UNK         0.0600 
    195 H195       -1.5281  -23.5427  -46.2910 H         1 UNK         0.3000 
    196 H196       -4.3007  -23.8813  -46.8755 H         1 UNK         0.0600 
    197 H197       -3.4372  -25.0791  -48.9034 H         1 UNK         0.0600 
    198 H198       -2.6375  -25.6085  -47.4300 H         1 UNK         0.0600 
    199 H199       -1.8098  -24.5201  -48.5374 H         1 UNK         0.0600 
    200 H200       -1.7358  -21.9667  -48.5679 H         1 UNK         0.3000 
    201 H201       -3.3330  -20.8717  -50.5827 H         1 UNK         0.0600 
    202 H202       -0.8590  -19.6864  -49.2184 H         1 UNK         0.0600 
    203 H203       -1.4974  -19.1962  -50.7694 H         1 UNK         0.0600 
    204 H204       -0.8522  -20.8071  -50.5772 H         1 UNK         0.0600 
    205 H205       -2.8944  -19.7265  -47.2487 H         1 UNK         0.3000 
    206 H206       -4.2471  -17.2428  -47.4900 H         1 UNK         0.0600 
    207 H207       -2.7513  -17.8938  -45.5827 H         1 UNK         0.0600 
    208 H208       -4.3222  -17.3401  -45.0214 H         1 UNK         0.0600 
    209 H209       -3.9515  -19.0594  -45.0408 H         1 UNK         0.0600 
    210 H210       -5.5035  -20.5230  -47.3049 H         1 UNK         0.3000 
    211 H211       -8.2775  -19.5997  -46.7353 H         1 UNK         0.0600 
    212 H212       -7.0815  -22.4133  -46.9429 H         1 UNK         0.0600 
    213 H213       -8.7463  -22.0258  -46.5257 H         1 UNK         0.0600 
    214 H214       -7.4398  -21.5496  -45.4508 H         1 UNK         0.0600 
    215 H215       -6.3247  -21.3628  -49.1776 H         1 UNK         0.3000 
    216 H216       -8.4889  -21.7357  -51.0216 H         1 UNK         0.0600 
    217 H217       -6.6583  -22.6740  -52.4544 H         1 UNK         0.0600 
    218 H218       -6.5880  -23.3101  -50.8172 H         1 UNK         0.0600 
    219 H219       -5.4578  -22.0589  -51.3271 H         1 UNK         0.0600 
    220 H220       -6.3891  -19.0609  -50.5036 H         1 UNK         0.3000 
    221 H221       -6.0296  -17.0939  -51.4473 H         1 UNK         0.0600 
    222 H222       -8.2808  -17.6550  -53.4470 H         1 UNK         0.0600 
    223 H223       -8.4702  -16.8760  -51.8772 H         1 UNK         0.0600 
    224 H224       -7.5128  -16.1084  -53.1347 H         1 UNK         0.0600 
    225 H225       -4.1261  -18.4244  -51.7765 H         1 UNK         0.3000 
    226 H226       -2.2414  -18.8734  -52.8536 H         1 UNK         0.0600 
    227 H227       -1.6812  -18.0869  -55.0681 H         1 UNK         0.0600 
    228 H228       -3.3716  -17.8689  -55.5107 H         1 UNK         0.0600 
    229 H229       -2.6275  -16.8312  -54.3006 H         1 UNK         0.0600 
    230 H230       -2.2788  -19.9133  -55.7171 H         1 UNK         0.3000 
    231 H231       -2.3294  -21.7683  -56.8596 H         1 UNK         0.0600 
    232 H232       -4.7844  -22.6043  -55.2314 H         1 UNK         0.0600 
    233 H233       -4.2737  -23.2844  -56.7680 H         1 UNK         0.0600 
    234 H234       -4.8036  -21.6113  -56.6877 H         1 UNK         0.0600 
    235 H235       -2.5273  -22.4259  -53.4011 H         1 UNK         0.3000 
    236 H236       -1.8652  -25.1030  -53.3097 H         1 UNK         0.0600 
    237 H237       -2.7450  -23.7742  -51.4003 H         1 UNK         0.0600 
    238 H238       -1.3008  -24.6567  -50.9254 H         1 UNK         0.0600 
    239 H239       -1.2016  -22.9360  -51.2569 H         1 UNK         0.0600 
    240 H240        0.3813  -22.5921  -54.1054 H         1 UNK         0.3000 
    241 H241        2.5179  -24.6125  -54.2918 H         1 UNK         0.0600 
    242 H242        0.4940  -23.4058  -56.2820 H         1 UNK         0.3800 
    243 H243        1.5582  -22.8372  -57.5445 H         1 UNK         0.3800 
    244 H244        3.1676  -23.3868  -52.3115 H         1 UNK         0.0800 
    245 H245        4.2735  -23.0701  -53.6026 H         1 UNK         0.0800 
    246 H246        2.5736  -21.7126  -50.7756 H         1 UNK         0.0800 
    247 H247        1.1027  -21.4202  -51.6667 H         1 UNK         0.0800 
@<TRIPOS>BOND
     1    1    2 1    
     2    1  127 1    
     3    1  128 1    
     4    1  129 1    
     5    2    3 2    
     6    2    4 am   BACKBONE|DICT|INTERRES
     7    4    5 1    
     8    4  130 1    
     9    5    6 1    
    10    5   65 1    
    11    5  131 1    
    12    6    7 1    
    13    6  132 1    
    14    6  133 1    
    15    7    8 1    
    16    8    9 1    
    17    8  134 1    
    18    8  135 1    
    19    9   10 ar   
    20    9   14 ar   
    21   10   11 ar   
    22   10  136 1    
    23   11   12 ar   
    24   11  126 1    
    25   12   13 ar   
    26   12  137 1    
    27   13   14 ar   
    28   13   15 1    
    29   14  138 1    
    30   15   16 1    
    31   15  139 1    
    32   15  140 1    
    33   16   17 1    
    34   17   18 1    
    35   17  141 1    
    36   17  142 1    
    37   18   19 1    
    38   18   67 1    
    39   18  143 1    
    40   19   20 am   BACKBONE|DICT|INTERRES
    41   19  144 1    
    42   20   21 2    
    43   20   22 1    
    44   22   23 1    
    45   22   24 1    
    46   22  145 1    
    47   23  146 1    
    48   23  147 1    
    49   23  148 1    
    50   24   25 am   BACKBONE|DICT|INTERRES
    51   24  149 1    
    52   25   26 2    
    53   25   27 1    
    54   27   28 1    
    55   27   29 1    
    56   27  150 1    
    57   28  151 1    
    58   28  152 1    
    59   28  153 1    
    60   29   30 am   BACKBONE|DICT|INTERRES
    61   29  154 1    
    62   30   31 2    
    63   30   32 1    
    64   32   33 1    
    65   32   34 1    
    66   32  155 1    
    67   33  156 1    
    68   33  157 1    
    69   33  158 1    
    70   34   35 am   BACKBONE|DICT|INTERRES
    71   34  159 1    
    72   35   36 2    
    73   35   37 1    
    74   37   38 1    
    75   37   39 1    
    76   37  160 1    
    77   38  161 1    
    78   38  162 1    
    79   38  163 1    
    80   39   40 am   BACKBONE|DICT|INTERRES
    81   39  164 1    
    82   40   41 2    
    83   40   42 1    
    84   42   43 1    
    85   42   44 1    
    86   42  165 1    
    87   43  166 1    
    88   43  167 1    
    89   43  168 1    
    90   44   45 am   BACKBONE|DICT|INTERRES
    91   44  169 1    
    92   45   46 2    
    93   45   47 1    
    94   47   48 1    
    95   47   49 1    
    96   47  170 1    
    97   48  171 1    
    98   48  172 1    
    99   48  173 1    
   100   49   50 am   BACKBONE|DICT|INTERRES
   101   49  174 1    
   102   50   51 2    
   103   50   52 1    
   104   52   53 1    
   105   52   54 1    
   106   52  175 1    
   107   53  176 1    
   108   53  177 1    
   109   53  178 1    
   110   54   55 am   BACKBONE|DICT|INTERRES
   111   54  179 1    
   112   55   56 2    
   113   55   57 1    
   114   57   58 1    
   115   57   59 1    
   116   57  180 1    
   117   58  181 1    
   118   58  182 1    
   119   58  183 1    
   120   59   60 am   BACKBONE|DICT|INTERRES
   121   59  184 1    
   122   60   61 2    
   123   60   62 1    
   124   62   63 1    
   125   62   64 1    
   126   62  185 1    
   127   63  186 1    
   128   63  187 1    
   129   63  188 1    
   130   64   65 am   BACKBONE|DICT|INTERRES
   131   64  189 1    
   132   65   66 2    
   133   67   68 2    
   134   67   69 am   BACKBONE|DICT|INTERRES
   135   69   70 1    
   136   69  190 1    
   137   70   71 1    
   138   70   72 1    
   139   70  191 1    
   140   71  192 1    
   141   71  193 1    
   142   71  194 1    
   143   72   73 2    
   144   72   74 am   BACKBONE|DICT|INTERRES
   145   74   75 1    
   146   74  195 1    
   147   75   76 1    
   148   75   77 1    
   149   75  196 1    
   150   76  197 1    
   151   76  198 1    
   152   76  199 1    
   153   77   78 2    
   154   77   79 am   BACKBONE|DICT|INTERRES
   155   79   80 1    
   156   79  200 1    
   157   80   81 1    
   158   80   82 1    
   159   80  201 1    
   160   81  202 1    
   161   81  203 1    
   162   81  204 1    
   163   82   83 2    
   164   82   84 am   BACKBONE|DICT|INTERRES
   165   84   85 1    
   166   84  205 1    
   167   85   86 1    
   168   85   87 1    
   169   85  206 1    
   170   86  207 1    
   171   86  208 1    
   172   86  209 1    
   173   87   88 2    
   174   87   89 am   BACKBONE|DICT|INTERRES
   175   89   90 1    
   176   89  210 1    
   177   90   91 1    
   178   90   92 1    
   179   90  211 1    
   180   91  212 1    
   181   91  213 1    
   182   91  214 1    
   183   92   93 2    
   184   92   94 am   BACKBONE|DICT|INTERRES
   185   94   95 1    
   186   94  215 1    
   187   95   96 1    
   188   95   97 1    
   189   95  216 1    
   190   96  217 1    
   191   96  218 1    
   192   96  219 1    
   193   97   98 2    
   194   97   99 am   BACKBONE|DICT|INTERRES
   195   99  100 1    
   196   99  220 1    
   197  100  101 1    
   198  100  102 1    
   199  100  221 1    
   200  101  222 1    
   201  101  223 1    
   202  101  224 1    
   203  102  103 2    
   204  102  104 am   BACKBONE|DICT|INTERRES
   205  104  105 1    
   206  104  225 1    
   207  105  106 1    
   208  105  107 1    
   209  105  226 1    
   210  106  227 1    
   211  106  228 1    
   212  106  229 1    
   213  107  108 2    
   214  107  109 am   BACKBONE|DICT|INTERRES
   215  109  110 1    
   216  109  230 1    
   217  110  111 1    
   218  110  112 1    
   219  110  231 1    
   220  111  232 1    
   221  111  233 1    
   222  111  234 1    
   223  112  113 2    
   224  112  114 am   BACKBONE|DICT|INTERRES
   225  114  115 1    
   226  114  235 1    
   227  115  116 1    
   228  115  117 1    
   229  115  236 1    
   230  116  237 1    
   231  116  238 1    
   232  116  239 1    
   233  117  118 2    
   234  117  119 am   BACKBONE|DICT|INTERRES
   235  119  120 1    
   236  119  240 1    
   237  120  121 1    
   238  120  124 1    
   239  120  241 1    
   240  121  122 am   BACKBONE|DICT|INTERRES
   241  121  123 2    
   242  122  242 1    
   243  122  243 1    
   244  124  125 1    
   245  124  244 1    
   246  124  245 1    
   247  125  126 1    
   248  126  246 1    
   249  126  247 1    
@<TRIPOS>SUBSTRUCTURE
     1 UNK         1 GROUP             0       ****    0 ROOT    
