@<TRIPOS>MOLECULE
3R540
247   249    1
SMALL
USER_CHARGES


@<TRIPOS>ATOM
      1 CA         -0.7432  -15.6547  -51.7705 C.3       0 UNK        -0.1800 
      2 C           0.1231  -14.6235  -51.0599 C.2       0 UNK         0.5000 
      3 O           1.1168  -14.1690  -51.6263 O.2       0 UNK        -0.5000 
      4 N          -0.2545  -14.2659  -49.8249 N.am      1 UNK        -0.5000 
      5 CA          0.4026  -13.2972  -48.9353 C.3       1 UNK         0.1400 
      6 C6          0.3211  -11.8288  -49.4396 C.3       23 UNK        -0.0398 
      7 S7         -1.3420  -11.1423  -49.7881 S.3       23 UNK        -0.2404 
      8 C8         -2.4463  -11.7924  -48.4835 C.3       23 UNK        -0.0205 
      9 C9         -3.0659  -13.1335  -48.8573 C.ar      23 UNK        -0.0193 
     10 C10        -3.7829  -13.2663  -50.0500 C.ar      23 UNK        -0.1150 
     11 C11        -4.3061  -14.5024  -50.4364 C.ar      23 UNK        -0.0193 
     12 C12        -4.1277  -15.6126  -49.6054 C.ar      23 UNK        -0.1150 
     13 C13        -3.4433  -15.4869  -48.3922 C.ar      23 UNK        -0.0193 
     14 C14        -2.9202  -14.2442  -48.0204 C.ar      23 UNK        -0.1150 
     15 C15        -3.2486  -16.6978  -47.4945 C.3       23 UNK        -0.0205 
     16 S16        -4.7781  -17.1172  -46.5969 S.3       23 UNK        -0.2404 
     17 C17        -4.2598  -18.3713  -45.3642 C.3       23 UNK        -0.0398 
     18 CA         -3.0833  -19.3066  -45.7634 C.3       11 UNK         0.1400 
     19 N          -2.5281  -20.0128  -44.6122 N.am      11 UNK        -0.5000 
     20 C          -3.0773  -21.0140  -43.9129 C.2       10 UNK         0.5000 
     21 O          -4.1524  -21.5458  -44.1940 O.2       10 UNK        -0.5000 
     22 CA         -2.2904  -21.4821  -42.6740 C.3       10 UNK         0.1400 
     23 CB         -1.1784  -22.4631  -43.0715 C.3       10 UNK        -0.1800 
     24 N          -1.6972  -20.3665  -41.9324 N.am      10 UNK        -0.5000 
     25 C          -2.3963  -19.4289  -41.2762 C.2       9 UNK         0.5000 
     26 O          -3.6222  -19.4451  -41.1584 O.2       9 UNK        -0.5000 
     27 CA         -1.5933  -18.2673  -40.6633 C.3       9 UNK         0.1400 
     28 CB         -0.9608  -18.6867  -39.3275 C.3       9 UNK        -0.1800 
     29 N          -0.5552  -17.7640  -41.5641 N.am      9 UNK        -0.5000 
     30 C          -0.7925  -17.1050  -42.7080 C.2       8 UNK         0.5000 
     31 O          -1.9177  -16.7997  -43.1016 O.2       8 UNK        -0.5000 
     32 CA          0.4297  -16.7477  -43.5749 C.3       8 UNK         0.1400 
     33 CB          1.0840  -15.4478  -43.0859 C.3       8 UNK        -0.1800 
     34 N           1.4295  -17.8146  -43.6107 N.am      8 UNK        -0.5000 
     35 C           1.2268  -19.0279  -44.1417 C.2       7 UNK         0.5000 
     36 O           0.1874  -19.3600  -44.7066 O.2       7 UNK        -0.5000 
     37 CA          2.3525  -20.0602  -43.9728 C.3       7 UNK         0.1400 
     38 CB          3.4238  -19.8888  -45.0577 C.3       7 UNK        -0.1800 
     39 N           2.9682  -19.9853  -42.6490 N.am      7 UNK        -0.5000 
     40 C           2.3550  -20.3466  -41.5132 C.2       6 UNK         0.5000 
     41 O           1.2136  -20.8056  -41.4668 O.2       6 UNK        -0.5000 
     42 CA          3.1354  -20.1108  -40.2080 C.3       6 UNK         0.1400 
     43 CB          4.1437  -21.2434  -39.9643 C.3       6 UNK        -0.1800 
     44 N           3.8348  -18.8247  -40.2016 N.am      6 UNK        -0.5000 
     45 C           3.2196  -17.6340  -40.1922 C.2       5 UNK         0.5000 
     46 O           1.9976  -17.4968  -40.1629 O.2       5 UNK        -0.5000 
     47 CA          4.1188  -16.3876  -40.2725 C.3       5 UNK         0.1400 
     48 CB          4.6071  -15.9833  -38.8735 C.3       5 UNK        -0.1800 
     49 N           5.2715  -16.5479  -41.1636 N.am      5 UNK        -0.5000 
     50 C           5.1904  -16.7894  -42.4783 C.2       4 UNK         0.5000 
     51 O           4.1320  -16.9936  -43.0760 O.2       4 UNK        -0.5000 
     52 CA          6.5149  -16.8411  -43.2548 C.3       4 UNK         0.1400 
     53 CB          6.8791  -18.2890  -43.6175 C.3       4 UNK        -0.1800 
     54 N           6.4178  -16.0439  -44.4757 N.am      4 UNK        -0.5000 
     55 C           6.4796  -14.7057  -44.5080 C.2       3 UNK         0.5000 
     56 O           6.6954  -14.0080  -43.5158 O.2       3 UNK        -0.5000 
     57 CA          6.2798  -14.0294  -45.8768 C.3       3 UNK         0.1400 
     58 CB          7.6306  -13.8438  -46.5854 C.3       3 UNK        -0.1800 
     59 N           5.3737  -14.7672  -46.7600 N.am      3 UNK        -0.5000 
     60 C           4.0403  -14.7705  -46.6366 C.2       2 UNK         0.5000 
     61 O           3.4310  -14.1844  -45.7393 O.2       2 UNK        -0.5000 
     62 CA          3.2618  -15.5745  -47.6980 C.3       2 UNK         0.1400 
     63 CB          2.9866  -16.9979  -47.1913 C.3       2 UNK        -0.1800 
     64 N           1.9900  -14.9524  -48.0746 N.am      2 UNK        -0.5000 
     65 C           1.8512  -13.7294  -48.6082 C.2       1 UNK         0.5000 
     66 O           2.7996  -12.9851  -48.8684 O.2       1 UNK        -0.5000 
     67 C          -3.3871  -20.2919  -46.9095 C.2       11 UNK         0.5000 
     68 O          -2.4461  -20.8212  -47.5017 O.2       11 UNK        -0.5000 
     69 N          -4.6721  -20.5607  -47.1785 N.am      12 UNK        -0.5000 
     70 CA         -5.1461  -21.5038  -48.1910 C.3       12 UNK         0.1400 
     71 CB         -6.6804  -21.5099  -48.1979 C.3       12 UNK        -0.1800 
     72 C          -4.5991  -22.9328  -48.0204 C.2       12 UNK         0.5000 
     73 O          -4.3357  -23.5960  -49.0224 O.2       12 UNK        -0.5000 
     74 N          -4.3961  -23.3679  -46.7684 N.am      13 UNK        -0.5000 
     75 CA         -3.8244  -24.6761  -46.4458 C.3       13 UNK         0.1400 
     76 CB         -4.0381  -24.9777  -44.9555 C.3       13 UNK        -0.1800 
     77 C          -2.3372  -24.7996  -46.8322 C.2       13 UNK         0.5000 
     78 O          -1.9009  -25.8949  -47.1871 O.2       13 UNK        -0.5000 
     79 N          -1.5959  -23.6826  -46.7897 N.am      14 UNK        -0.5000 
     80 CA         -0.2195  -23.5996  -47.2802 C.3       14 UNK         0.1400 
     81 CB          0.5304  -22.4701  -46.5570 C.3       14 UNK        -0.1800 
     82 C          -0.1832  -23.3962  -48.8036 C.2       14 UNK         0.5000 
     83 O           0.6363  -24.0163  -49.4826 O.2       14 UNK        -0.5000 
     84 N          -1.0920  -22.5592  -49.3213 N.am      15 UNK        -0.5000 
     85 CA         -1.2497  -22.2188  -50.7357 C.3       15 UNK         0.1400 
     86 CB         -1.9667  -20.8635  -50.8378 C.3       15 UNK        -0.1800 
     87 C          -1.9428  -23.3329  -51.5526 C.2       15 UNK         0.5000 
     88 O          -2.9444  -23.0848  -52.2301 O.2       15 UNK        -0.5000 
     89 N          -1.3610  -24.5382  -51.4910 N.am      16 UNK        -0.5000 
     90 CA         -1.6776  -25.7357  -52.2740 C.3       16 UNK         0.1400 
     91 CB         -1.2909  -25.5131  -53.7514 C.3       16 UNK        -0.1800 
     92 C          -3.1266  -26.2366  -52.1025 C.2       16 UNK         0.5000 
     93 O          -3.7362  -26.6836  -53.0739 O.2       16 UNK        -0.5000 
     94 N          -3.6574  -26.1464  -50.8734 N.am      17 UNK        -0.5000 
     95 CA         -5.0318  -26.5001  -50.4906 C.3       17 UNK         0.1400 
     96 CB         -5.2578  -28.0236  -50.5826 C.3       17 UNK        -0.1800 
     97 C          -6.0696  -25.6775  -51.2837 C.2       17 UNK         0.5000 
     98 O          -6.9653  -26.2321  -51.9222 O.2       17 UNK        -0.5000 
     99 N          -5.8719  -24.3548  -51.2463 N.am      18 UNK        -0.5000 
    100 CA        -6.6106  -23.2807  -51.9126 C.3       18 UNK         0.1400 
    101 CB        -8.1194  -23.3453  -51.5991 C.3       18 UNK        -0.1800 
    102 C         -6.3512  -23.1526  -53.4270 C.2       18 UNK         0.5000 
    103 O         -6.8313  -22.1884  -54.0236 O.2       18 UNK        -0.5000 
    104 N         -5.5938  -24.0763  -54.0363 N.am      19 UNK        -0.5000 
    105 CA        -5.3268  -24.0882  -55.4778 C.3       19 UNK         0.1400 
    106 CB        -4.7584  -25.4528  -55.8919 C.3       19 UNK        -0.1800 
    107 C         -4.4014  -22.9505  -55.9504 C.2       19 UNK         0.5000 
    108 O         -4.4967  -22.5514  -57.1117 O.2       19 UNK        -0.5000 
    109 N         -3.5400  -22.4433  -55.0580 N.am      20 UNK        -0.5000 
    110 CA        -2.6154  -21.3393  -55.3275 C.3       20 UNK         0.1400 
    111 CB        -1.1796  -21.8067  -55.0320 C.3       20 UNK        -0.1800 
    112 C         -2.9730  -20.0769  -54.5198 C.2       20 UNK         0.5000 
    113 O         -2.1958  -19.1206  -54.5228 O.2       20 UNK        -0.5000 
    114 N         -4.1271  -20.0749  -53.8359 N.am      21 UNK        -0.5000 
    115 CA        -4.6029  -18.9836  -52.9828 C.3       21 UNK         0.1400 
    116 CB        -5.5907  -19.5449  -51.9463 C.3       21 UNK        -0.1800 
    117 C         -5.2015  -17.8273  -53.8080 C.2       21 UNK         0.5000 
    118 O         -6.4022  -17.5626  -53.7320 O.2       21 UNK        -0.5000 
    119 N         -4.3386  -17.1639  -54.5847 N.am      22 UNK        -0.5000 
    120 CA        -4.6206  -15.9688  -55.4017 C.3       22 UNK         0.1400 
    121 C         -5.5210  -16.2189  -56.6508 C.2       22 UNK         0.5000 
    122 N         -5.7772  -17.4588  -57.0489 N.am      22 UNK        -0.7600 
    123 O         -5.9698  -15.2741  -57.2949 O.2       22 UNK        -0.5000 
    124 C124       -5.1019  -14.7484  -54.5637 C.3       23 UNK        -0.0398 
    125 S125       -3.9773  -14.3440  -53.1819 S.3       23 UNK        -0.2404 
    126 C126       -5.0642  -14.6297  -51.7488 C.3       23 UNK        -0.0205 
    127 H127       -1.0484  -15.2792  -52.7470 H         1 UNK         0.0600 
    128 H128       -1.6439  -15.8900  -51.2035 H         1 UNK         0.0600 
    129 H129       -0.1838  -16.5780  -51.9198 H         1 UNK         0.0600 
    130 H130       -1.1106  -14.6582  -49.4584 H         1 UNK         0.3000 
    131 H131       -0.1263  -13.3459  -47.9839 H         1 UNK         0.0600 
    132 H132        0.9096  -11.7157  -50.3515 H         1 UNK         0.0800 
    133 H133        0.7846  -11.1652  -48.7075 H         1 UNK         0.0800 
    134 H134       -3.2558  -11.0771  -48.3329 H         1 UNK         0.0800 
    135 H135       -1.9104  -11.8446  -47.5350 H         1 UNK         0.0800 
    136 H136       -3.9101  -12.4091  -50.6965 H         1 UNK         0.1150 
    137 H137       -4.5282  -16.5741  -49.8949 H         1 UNK         0.1150 
    138 H138       -2.3858  -14.1458  -47.0857 H         1 UNK         0.1150 
    139 H139       -2.9297  -17.5444  -48.1042 H         1 UNK         0.0800 
    140 H140       -2.4506  -16.5019  -46.7762 H         1 UNK         0.0800 
    141 H141       -5.1344  -18.9468  -45.0579 H         1 UNK         0.0800 
    142 H142       -3.9721  -17.8127  -44.4729 H         1 UNK         0.0800 
    143 H143       -2.2505  -18.6940  -46.1042 H         1 UNK         0.0600 
    144 H144       -1.5844  -19.7233  -44.3658 H         1 UNK         0.3000 
    145 H145       -2.9881  -22.0020  -42.0144 H         1 UNK         0.0600 
    146 H146       -0.7189  -22.9117  -42.1906 H         1 UNK         0.0600 
    147 H147       -1.5567  -23.2751  -43.6915 H         1 UNK         0.0600 
    148 H148       -0.3927  -21.9584  -43.6317 H         1 UNK         0.0600 
    149 H149       -0.6834  -20.3134  -41.9270 H         1 UNK         0.3000 
    150 H150       -2.2903  -17.4507  -40.4639 H         1 UNK         0.0600 
    151 H151       -1.7169  -19.0631  -38.6375 H         1 UNK         0.0600 
    152 H152       -0.4702  -17.8425  -38.8428 H         1 UNK         0.0600 
    153 H153       -0.2170  -19.4726  -39.4619 H         1 UNK         0.0600 
    154 H154        0.4067  -17.9079  -41.2730 H         1 UNK         0.3000 
    155 H155        0.0788  -16.5874  -44.5966 H         1 UNK         0.0600 
    156 H156        1.4456  -15.5394  -42.0619 H         1 UNK         0.0600 
    157 H157        0.3749  -14.6197  -43.1122 H         1 UNK         0.0600 
    158 H158        1.9308  -15.1727  -43.7144 H         1 UNK         0.0600 
    159 H159        2.3435  -17.5974  -43.2213 H         1 UNK         0.3000 
    160 H160        1.9146  -21.0537  -44.0866 H         1 UNK         0.0600 
    161 H161        4.2018  -20.6470  -44.9692 H         1 UNK         0.0600 
    162 H162        3.8982  -18.9100  -44.9995 H         1 UNK         0.0600 
    163 H163        2.9874  -19.9840  -46.0529 H         1 UNK         0.0600 
    164 H164        3.8824  -19.5624  -42.5945 H         1 UNK         0.3000 
    165 H165        2.4164  -20.1112  -39.3858 H         1 UNK         0.0600 
    166 H166        4.6449  -21.1246  -39.0034 H         1 UNK         0.0600 
    167 H167        3.6445  -22.2133  -39.9513 H         1 UNK         0.0600 
    168 H168        4.9093  -21.2783  -40.7404 H         1 UNK         0.0600 
    169 H169        4.8435  -18.8477  -40.2277 H         1 UNK         0.3000 
    170 H170        3.5105  -15.5713  -40.6671 H         1 UNK         0.0600 
    171 H171        3.7665  -15.8384  -38.1935 H         1 UNK         0.0600 
    172 H172        5.2556  -16.7437  -38.4367 H         1 UNK         0.0600 
    173 H173        5.1622  -15.0455  -38.9051 H         1 UNK         0.0600 
    174 H174        6.1805  -16.3998  -40.7493 H         1 UNK         0.3000 
    175 H175        7.3139  -16.4355  -42.6302 H         1 UNK         0.0600 
    176 H176        6.1404  -18.7412  -44.2786 H         1 UNK         0.0600 
    177 H177        7.8462  -18.3358  -44.1184 H         1 UNK         0.0600 
    178 H178        6.9465  -18.9115  -42.7244 H         1 UNK         0.0600 
    179 H179        6.1920  -16.5377  -45.3254 H         1 UNK         0.3000 
    180 H180        5.8562  -13.0389  -45.6959 H         1 UNK         0.0600 
    181 H181        8.1033  -14.8006  -46.8109 H         1 UNK         0.0600 
    182 H182        8.3227  -13.2746  -45.9633 H         1 UNK         0.0600 
    183 H183        7.5132  -13.2973  -47.5214 H         1 UNK         0.0600 
    184 H184        5.8004  -15.2692  -47.5254 H         1 UNK         0.3000 
    185 H185        3.8707  -15.6398  -48.6021 H         1 UNK         0.0600 
    186 H186        3.9199  -17.5151  -46.9670 H         1 UNK         0.0600 
    187 H187        2.3868  -16.9897  -46.2805 H         1 UNK         0.0600 
    188 H188        2.4592  -17.5927  -47.9373 H         1 UNK         0.0600 
    189 H189        1.1593  -15.4975  -47.9012 H         1 UNK         0.3000 
    190 H190       -5.3849  -20.0988  -46.6333 H         1 UNK         0.3000 
    191 H191       -4.8081  -21.1397  -49.1600 H         1 UNK         0.0600 
    192 H192       -7.0645  -22.2065  -48.9427 H         1 UNK         0.0600 
    193 H193       -7.0780  -20.5244  -48.4413 H         1 UNK         0.0600 
    194 H194       -7.0863  -21.8083  -47.2305 H         1 UNK         0.0600 
    195 H195       -4.5992  -22.7497  -45.9911 H         1 UNK         0.3000 
    196 H196       -4.3694  -25.4300  -47.0180 H         1 UNK         0.0600 
    197 H197       -3.6207  -25.9495  -44.6885 H         1 UNK         0.0600 
    198 H198       -5.0996  -25.0018  -44.7087 H         1 UNK         0.0600 
    199 H199       -3.5666  -24.2311  -44.3186 H         1 UNK         0.0600 
    200 H200       -2.0461  -22.8071  -46.5590 H         1 UNK         0.3000 
    201 H201        0.3004  -24.5345  -47.0597 H         1 UNK         0.0600 
    202 H202        0.0030  -21.5179  -46.6213 H         1 UNK         0.0600 
    203 H203        1.5246  -22.3234  -46.9812 H         1 UNK         0.0600 
    204 H204        0.6671  -22.7115  -45.5046 H         1 UNK         0.0600 
    205 H205       -1.7045  -22.0641  -48.6785 H         1 UNK         0.3000 
    206 H206       -0.2543  -22.0889  -51.1652 H         1 UNK         0.0600 
    207 H207       -1.4602  -20.1002  -50.2467 H         1 UNK         0.0600 
    208 H208       -1.9863  -20.5114  -51.8674 H         1 UNK         0.0600 
    209 H209       -2.9947  -20.9287  -50.4885 H         1 UNK         0.0600 
    210 H210       -0.5560  -24.6159  -50.8753 H         1 UNK         0.3000 
    211 H211       -1.0402  -26.5308  -51.8849 H         1 UNK         0.0600 
    212 H212       -0.2487  -25.2080  -53.8441 H         1 UNK         0.0600 
    213 H213       -1.9052  -24.7428  -54.2169 H         1 UNK         0.0600 
    214 H214       -1.4121  -26.4270  -54.3340 H         1 UNK         0.0600 
    215 H215       -3.1003  -25.7121  -50.1504 H         1 UNK         0.3000 
    216 H216       -5.1466  -26.2164  -49.4436 H         1 UNK         0.0600 
    217 H217       -6.2430  -28.2934  -50.2005 H         1 UNK         0.0600 
    218 H218       -4.5205  -28.5668  -49.9915 H         1 UNK         0.0600 
    219 H219       -5.1969  -28.3855  -51.6093 H         1 UNK         0.0600 
    220 H220       -5.0955  -24.0357  -50.6699 H         1 UNK         0.3000 
    221 H221       -6.2280  -22.3649  -51.4647 H         1 UNK         0.0600 
    222 H222       -8.6073  -24.1686  -52.1214 H         1 UNK         0.0600 
    223 H223       -8.3030  -23.4711  -50.5326 H         1 UNK         0.0600 
    224 H224       -8.6189  -22.4266  -51.9087 H         1 UNK         0.0600 
    225 H225       -5.2083  -24.8360  -53.4905 H         1 UNK         0.3000 
    226 H226       -6.2830  -23.9614  -55.9901 H         1 UNK         0.0600 
    227 H227       -4.6815  -25.5278  -56.9772 H         1 UNK         0.0600 
    228 H228       -3.7607  -25.6142  -55.4857 H         1 UNK         0.0600 
    229 H229       -5.3965  -26.2692  -55.5531 H         1 UNK         0.0600 
    230 H230       -3.5201  -22.8182  -54.1126 H         1 UNK         0.3000 
    231 H231       -2.6573  -21.0505  -56.3792 H         1 UNK         0.0600 
    232 H232       -0.9333  -22.7051  -55.5981 H         1 UNK         0.0600 
    233 H233       -1.0333  -22.0257  -53.9755 H         1 UNK         0.0600 
    234 H234       -0.4533  -21.0419  -55.3095 H         1 UNK         0.0600 
    235 H235       -4.7409  -20.8717  -53.9320 H         1 UNK         0.3000 
    236 H236       -3.7534  -18.5767  -52.4294 H         1 UNK         0.0600 
    237 H237       -5.1234  -20.3236  -51.3474 H         1 UNK         0.0600 
    238 H238       -5.9229  -18.7648  -51.2602 H         1 UNK         0.0600 
    239 H239       -6.4780  -19.9670  -52.4190 H         1 UNK         0.0600 
    240 H240       -3.3835  -17.5063  -54.6149 H         1 UNK         0.3000 
    241 H241       -3.6545  -15.6933  -55.8255 H         1 UNK         0.0600 
    242 H242       -5.4205  -18.2452  -56.5312 H         1 UNK         0.3800 
    243 H243       -6.3507  -17.6105  -57.8639 H         1 UNK         0.3800 
    244 H244       -5.1655  -13.8598  -55.1937 H         1 UNK         0.0800 
    245 H245       -6.1114  -14.9172  -54.1864 H         1 UNK         0.0800 
    246 H246       -5.5225  -15.6159  -51.8293 H         1 UNK         0.0800 
    247 H247       -5.8803  -13.9060  -51.7646 H         1 UNK         0.0800 
@<TRIPOS>BOND
     1    1    2 1    
     2    1  127 1    
     3    1  128 1    
     4    1  129 1    
     5    2    3 2    
     6    2    4 am   BACKBONE|DICT|INTERRES
     7    4    5 1    
     8    4  130 1    
     9    5    6 1    
    10    5   65 1    
    11    5  131 1    
    12    6    7 1    
    13    6  132 1    
    14    6  133 1    
    15    7    8 1    
    16    8    9 1    
    17    8  134 1    
    18    8  135 1    
    19    9   10 ar   
    20    9   14 ar   
    21   10   11 ar   
    22   10  136 1    
    23   11   12 ar   
    24   11  126 1    
    25   12   13 ar   
    26   12  137 1    
    27   13   14 ar   
    28   13   15 1    
    29   14  138 1    
    30   15   16 1    
    31   15  139 1    
    32   15  140 1    
    33   16   17 1    
    34   17   18 1    
    35   17  141 1    
    36   17  142 1    
    37   18   19 1    
    38   18   67 1    
    39   18  143 1    
    40   19   20 am   BACKBONE|DICT|INTERRES
    41   19  144 1    
    42   20   21 2    
    43   20   22 1    
    44   22   23 1    
    45   22   24 1    
    46   22  145 1    
    47   23  146 1    
    48   23  147 1    
    49   23  148 1    
    50   24   25 am   BACKBONE|DICT|INTERRES
    51   24  149 1    
    52   25   26 2    
    53   25   27 1    
    54   27   28 1    
    55   27   29 1    
    56   27  150 1    
    57   28  151 1    
    58   28  152 1    
    59   28  153 1    
    60   29   30 am   BACKBONE|DICT|INTERRES
    61   29  154 1    
    62   30   31 2    
    63   30   32 1    
    64   32   33 1    
    65   32   34 1    
    66   32  155 1    
    67   33  156 1    
    68   33  157 1    
    69   33  158 1    
    70   34   35 am   BACKBONE|DICT|INTERRES
    71   34  159 1    
    72   35   36 2    
    73   35   37 1    
    74   37   38 1    
    75   37   39 1    
    76   37  160 1    
    77   38  161 1    
    78   38  162 1    
    79   38  163 1    
    80   39   40 am   BACKBONE|DICT|INTERRES
    81   39  164 1    
    82   40   41 2    
    83   40   42 1    
    84   42   43 1    
    85   42   44 1    
    86   42  165 1    
    87   43  166 1    
    88   43  167 1    
    89   43  168 1    
    90   44   45 am   BACKBONE|DICT|INTERRES
    91   44  169 1    
    92   45   46 2    
    93   45   47 1    
    94   47   48 1    
    95   47   49 1    
    96   47  170 1    
    97   48  171 1    
    98   48  172 1    
    99   48  173 1    
   100   49   50 am   BACKBONE|DICT|INTERRES
   101   49  174 1    
   102   50   51 2    
   103   50   52 1    
   104   52   53 1    
   105   52   54 1    
   106   52  175 1    
   107   53  176 1    
   108   53  177 1    
   109   53  178 1    
   110   54   55 am   BACKBONE|DICT|INTERRES
   111   54  179 1    
   112   55   56 2    
   113   55   57 1    
   114   57   58 1    
   115   57   59 1    
   116   57  180 1    
   117   58  181 1    
   118   58  182 1    
   119   58  183 1    
   120   59   60 am   BACKBONE|DICT|INTERRES
   121   59  184 1    
   122   60   61 2    
   123   60   62 1    
   124   62   63 1    
   125   62   64 1    
   126   62  185 1    
   127   63  186 1    
   128   63  187 1    
   129   63  188 1    
   130   64   65 am   BACKBONE|DICT|INTERRES
   131   64  189 1    
   132   65   66 2    
   133   67   68 2    
   134   67   69 am   BACKBONE|DICT|INTERRES
   135   69   70 1    
   136   69  190 1    
   137   70   71 1    
   138   70   72 1    
   139   70  191 1    
   140   71  192 1    
   141   71  193 1    
   142   71  194 1    
   143   72   73 2    
   144   72   74 am   BACKBONE|DICT|INTERRES
   145   74   75 1    
   146   74  195 1    
   147   75   76 1    
   148   75   77 1    
   149   75  196 1    
   150   76  197 1    
   151   76  198 1    
   152   76  199 1    
   153   77   78 2    
   154   77   79 am   BACKBONE|DICT|INTERRES
   155   79   80 1    
   156   79  200 1    
   157   80   81 1    
   158   80   82 1    
   159   80  201 1    
   160   81  202 1    
   161   81  203 1    
   162   81  204 1    
   163   82   83 2    
   164   82   84 am   BACKBONE|DICT|INTERRES
   165   84   85 1    
   166   84  205 1    
   167   85   86 1    
   168   85   87 1    
   169   85  206 1    
   170   86  207 1    
   171   86  208 1    
   172   86  209 1    
   173   87   88 2    
   174   87   89 am   BACKBONE|DICT|INTERRES
   175   89   90 1    
   176   89  210 1    
   177   90   91 1    
   178   90   92 1    
   179   90  211 1    
   180   91  212 1    
   181   91  213 1    
   182   91  214 1    
   183   92   93 2    
   184   92   94 am   BACKBONE|DICT|INTERRES
   185   94   95 1    
   186   94  215 1    
   187   95   96 1    
   188   95   97 1    
   189   95  216 1    
   190   96  217 1    
   191   96  218 1    
   192   96  219 1    
   193   97   98 2    
   194   97   99 am   BACKBONE|DICT|INTERRES
   195   99  100 1    
   196   99  220 1    
   197  100  101 1    
   198  100  102 1    
   199  100  221 1    
   200  101  222 1    
   201  101  223 1    
   202  101  224 1    
   203  102  103 2    
   204  102  104 am   BACKBONE|DICT|INTERRES
   205  104  105 1    
   206  104  225 1    
   207  105  106 1    
   208  105  107 1    
   209  105  226 1    
   210  106  227 1    
   211  106  228 1    
   212  106  229 1    
   213  107  108 2    
   214  107  109 am   BACKBONE|DICT|INTERRES
   215  109  110 1    
   216  109  230 1    
   217  110  111 1    
   218  110  112 1    
   219  110  231 1    
   220  111  232 1    
   221  111  233 1    
   222  111  234 1    
   223  112  113 2    
   224  112  114 am   BACKBONE|DICT|INTERRES
   225  114  115 1    
   226  114  235 1    
   227  115  116 1    
   228  115  117 1    
   229  115  236 1    
   230  116  237 1    
   231  116  238 1    
   232  116  239 1    
   233  117  118 2    
   234  117  119 am   BACKBONE|DICT|INTERRES
   235  119  120 1    
   236  119  240 1    
   237  120  121 1    
   238  120  124 1    
   239  120  241 1    
   240  121  122 am   BACKBONE|DICT|INTERRES
   241  121  123 2    
   242  122  242 1    
   243  122  243 1    
   244  124  125 1    
   245  124  244 1    
   246  124  245 1    
   247  125  126 1    
   248  126  246 1    
   249  126  247 1    
@<TRIPOS>SUBSTRUCTURE
     1 UNK         1 GROUP             0       ****    0 ROOT    
