@<TRIPOS>MOLECULE
3R540
247   249    1
SMALL
USER_CHARGES


@<TRIPOS>ATOM
      1 CA          5.3784   -8.7787  -47.9202 C.3       0 UNK        -0.1800 
      2 C           5.1363  -10.2466  -47.5974 C.2       0 UNK         0.5000 
      3 O           4.4685  -10.5426  -46.6077 O.2       0 UNK        -0.5000 
      4 N           5.6847  -11.1450  -48.4310 N.am      1 UNK        -0.5000 
      5 CA          5.6072  -12.6145  -48.3705 C.3       1 UNK         0.1400 
      6 C6          4.3907  -13.2357  -49.1203 C.3       23 UNK        -0.0398 
      7 S7          2.7334  -12.5968  -48.6927 S.3       23 UNK        -0.2404 
      8 C8          1.9636  -14.0234  -47.8689 C.3       23 UNK        -0.0205 
      9 C9          1.5193  -15.1084  -48.8392 C.ar      23 UNK        -0.0193 
     10 C10         0.2947  -14.9908  -49.5029 C.ar      23 UNK        -0.1150 
     11 C11        -0.1585  -16.0080  -50.3478 C.ar      23 UNK        -0.0193 
     12 C12         0.6371  -17.1378  -50.5500 C.ar      23 UNK        -0.1150 
     13 C13         1.8615  -17.2715  -49.8885 C.ar      23 UNK        -0.0193 
     14 C14         2.2968  -16.2548  -49.0323 C.ar      23 UNK        -0.1150 
     15 C15         2.7075  -18.5195  -50.0955 C.3       23 UNK        -0.0205 
     16 S16         2.4399  -19.7574  -48.7866 S.3       23 UNK        -0.2404 
     17 C17         0.6757  -20.1572  -49.0225 C.3       23 UNK        -0.0398 
     18 CA          0.2408  -21.4202  -48.2434 C.3       11 UNK         0.1400 
     19 N           0.2718  -21.2327  -46.7901 N.am      11 UNK        -0.5000 
     20 C           0.0695  -22.1983  -45.8829 C.2       10 UNK         0.5000 
     21 O          -0.1320  -23.3778  -46.1723 O.2       10 UNK        -0.5000 
     22 CA          0.0396  -21.7700  -44.4042 C.3       10 UNK         0.1400 
     23 CB          1.4592  -21.5563  -43.8577 C.3       10 UNK        -0.1800 
     24 N          -0.7653  -20.5677  -44.1839 N.am      10 UNK        -0.5000 
     25 C          -2.0914  -20.5043  -44.3724 C.2       9 UNK         0.5000 
     26 O          -2.7791  -21.4640  -44.7206 O.2       9 UNK        -0.5000 
     27 CA         -2.7593  -19.1303  -44.1790 C.3       9 UNK         0.1400 
     28 CB         -2.9762  -18.8324  -42.6881 C.3       9 UNK        -0.1800 
     29 N          -2.0028  -18.0390  -44.7912 N.am      9 UNK        -0.5000 
     30 C          -1.7316  -17.9429  -46.1013 C.2       8 UNK         0.5000 
     31 O          -2.1245  -18.7458  -46.9455 O.2       8 UNK        -0.5000 
     32 CA         -0.8120  -16.7892  -46.5293 C.3       8 UNK         0.1400 
     33 CB         -1.5937  -15.4665  -46.5611 C.3       8 UNK        -0.1800 
     34 N           0.3596  -16.6553  -45.6619 N.am      8 UNK        -0.5000 
     35 C           1.2605  -17.6201  -45.4284 C.2       7 UNK         0.5000 
     36 O           1.2140  -18.7360  -45.9371 O.2       7 UNK        -0.5000 
     37 CA          2.3563  -17.3209  -44.3944 C.3       7 UNK         0.1400 
     38 CB          3.5031  -16.5043  -45.0069 C.3       7 UNK        -0.1800 
     39 N           1.8123  -16.6385  -43.2217 N.am      7 UNK        -0.5000 
     40 C           1.0311  -17.2318  -42.3080 C.2       6 UNK         0.5000 
     41 O           0.7518  -18.4313  -42.3228 O.2       6 UNK        -0.5000 
     42 CA          0.4286  -16.3252  -41.2192 C.3       6 UNK         0.1400 
     43 CB          1.3948  -16.1696  -40.0371 C.3       6 UNK        -0.1800 
     44 N           0.0679  -15.0023  -41.7312 N.am      6 UNK        -0.5000 
     45 C          -0.9684  -14.7803  -42.5520 C.2       5 UNK         0.5000 
     46 O          -1.7362  -15.6646  -42.9329 O.2       5 UNK        -0.5000 
     47 CA         -1.1559  -13.3393  -43.0685 C.3       5 UNK         0.1400 
     48 CB         -2.0098  -12.5234  -42.0869 C.3       5 UNK        -0.1800 
     49 N           0.0979  -12.6239  -43.3273 N.am      5 UNK        -0.5000 
     50 C           1.0607  -13.0379  -44.1623 C.2       4 UNK         0.5000 
     51 O           1.0050  -14.1007  -44.7762 O.2       4 UNK        -0.5000 
     52 CA          2.3082  -12.1532  -44.3361 C.3       4 UNK         0.1400 
     53 CB          2.1686  -10.7356  -43.7384 C.3       4 UNK        -0.1800 
     54 N           3.5094  -12.8146  -43.8215 N.am      4 UNK        -0.5000 
     55 C           3.7344  -13.2294  -42.5653 C.2       3 UNK         0.5000 
     56 O           2.8901  -13.1721  -41.6693 O.2       3 UNK        -0.5000 
     57 CA          5.1280  -13.8103  -42.2393 C.3       3 UNK         0.1400 
     58 CB          5.0223  -15.1796  -41.5474 C.3       3 UNK        -0.1800 
     59 N           6.0096  -13.9341  -43.4025 N.am      3 UNK        -0.5000 
     60 C           6.7206  -12.9374  -43.9460 C.2       2 UNK         0.5000 
     61 O           6.6913  -11.7758  -43.5380 O.2       2 UNK        -0.5000 
     62 CA          7.6239  -13.2907  -45.1448 C.3       2 UNK         0.1400 
     63 CB          8.0039  -14.7877  -45.2221 C.3       2 UNK        -0.1800 
     64 N           7.0591  -12.8360  -46.4183 N.am      2 UNK        -0.5000 
     65 C           5.8916  -13.2037  -46.9689 C.2       1 UNK         0.5000 
     66 O           5.0872  -13.9610  -46.4262 O.2       1 UNK        -0.5000 
     67 C          -1.1414  -21.8994  -48.7244 C.2       11 UNK         0.5000 
     68 O          -1.2038  -22.8494  -49.5022 O.2       11 UNK        -0.5000 
     69 N          -2.2182  -21.2722  -48.2292 N.am      12 UNK        -0.5000 
     70 CA         -3.6014  -21.6577  -48.5055 C.3       12 UNK         0.1400 
     71 CB         -4.5620  -20.6393  -47.8749 C.3       12 UNK        -0.1800 
     72 C          -3.9271  -23.0802  -48.0213 C.2       12 UNK         0.5000 
     73 O          -4.5215  -23.8495  -48.7753 O.2       12 UNK        -0.5000 
     74 N          -3.5100  -23.4183  -46.7926 N.am      13 UNK        -0.5000 
     75 CA         -3.6657  -24.7504  -46.2065 C.3       13 UNK         0.1400 
     76 CB         -3.2169  -24.7311  -44.7378 C.3       13 UNK        -0.1800 
     77 C          -2.9167  -25.8376  -46.9974 C.2       13 UNK         0.5000 
     78 O          -3.4957  -26.8902  -47.2706 O.2       13 UNK        -0.5000 
     79 N          -1.6659  -25.5452  -47.3848 N.am      14 UNK        -0.5000 
     80 CA         -0.8316  -26.4016  -48.2296 C.3       14 UNK         0.1400 
     81 CB          0.5884  -25.8218  -48.3116 C.3       14 UNK        -0.1800 
     82 C          -1.4231  -26.6038  -49.6366 C.2       14 UNK         0.5000 
     83 O          -1.4235  -27.7273  -50.1411 O.2       14 UNK        -0.5000 
     84 N          -1.9731  -25.5320  -50.2211 N.am      15 UNK        -0.5000 
     85 CA         -2.6828  -25.5179  -51.5006 C.3       15 UNK         0.1400 
     86 CB         -2.6365  -24.0950  -52.0820 C.3       15 UNK        -0.1800 
     87 C          -4.1273  -26.0530  -51.3923 C.2       15 UNK         0.5000 
     88 O          -5.0508  -25.4282  -51.9143 O.2       15 UNK        -0.5000 
     89 N          -4.2944  -27.2025  -50.7225 N.am      16 UNK        -0.5000 
     90 CA         -5.5232  -27.9915  -50.5812 C.3       16 UNK         0.1400 
     91 CB         -5.8097  -28.7424  -51.8976 C.3       16 UNK        -0.1800 
     92 C          -6.7394  -27.1880  -50.0690 C.2       16 UNK         0.5000 
     93 O          -7.8489  -27.3599  -50.5772 O.2       16 UNK        -0.5000 
     94 N          -6.4958  -26.3261  -49.0707 N.am      17 UNK        -0.5000 
     95 CA         -7.4476  -25.3941  -48.4576 C.3       17 UNK         0.1400 
     96 CB         -8.5779  -26.1479  -47.7250 C.3       17 UNK        -0.1800 
     97 C          -7.9590  -24.3437  -49.4664 C.2       17 UNK         0.5000 
     98 O          -9.1629  -24.2399  -49.7097 O.2       17 UNK        -0.5000 
     99 N          -7.0067  -23.5796  -50.0167 N.am      18 UNK        -0.5000 
    100 CA        -7.1707  -22.4593  -50.9456 C.3       18 UNK         0.1400 
    101 CB        -7.9334  -21.2986  -50.2715 C.3       18 UNK        -0.1800 
    102 C         -7.7891  -22.8746  -52.2947 C.2       18 UNK         0.5000 
    103 O         -8.7236  -22.2275  -52.7752 O.2       18 UNK        -0.5000 
    104 N         -7.2494  -23.9389  -52.9034 N.am      19 UNK        -0.5000 
    105 CA        -7.5927  -24.3938  -54.2509 C.3       19 UNK         0.1400 
    106 CB        -7.1386  -25.8523  -54.4280 C.3       19 UNK        -0.1800 
    107 C         -6.9813  -23.4498  -55.3058 C.2       19 UNK         0.5000 
    108 O         -5.9406  -23.7559  -55.8917 O.2       19 UNK        -0.5000 
    109 N         -7.6235  -22.2867  -55.4756 N.am      20 UNK        -0.5000 
    110 CA        -7.2638  -21.1342  -56.3087 C.3       20 UNK         0.1400 
    111 CB        -7.1241  -21.5117  -57.7963 C.3       20 UNK        -0.1800 
    112 C         -6.0302  -20.3719  -55.7916 C.2       20 UNK         0.5000 
    113 O         -6.1276  -19.1693  -55.5395 O.2       20 UNK        -0.5000 
    114 N         -4.9056  -21.0773  -55.6174 N.am      21 UNK        -0.5000 
    115 CA        -3.6465  -20.5591  -55.0841 C.3       21 UNK         0.1400 
    116 CB        -2.5593  -21.6363  -55.2124 C.3       21 UNK        -0.1800 
    117 C         -3.8125  -20.0790  -53.6300 C.2       21 UNK         0.5000 
    118 O         -3.9944  -20.8978  -52.7273 O.2       21 UNK        -0.5000 
    119 N         -3.7985  -18.7521  -53.4551 N.am      22 UNK        -0.5000 
    120 CA        -4.1240  -18.0441  -52.2073 C.3       22 UNK         0.1400 
    121 C         -5.6040  -18.2241  -51.7378 C.2       22 UNK         0.5000 
    122 N         -6.5395  -18.5150  -52.6360 N.am      22 UNK        -0.7600 
    123 O         -5.9224  -18.0769  -50.5618 O.2       22 UNK        -0.5000 
    124 C124       -3.0580  -18.2686  -51.0940 C.3       23 UNK        -0.0398 
    125 S125       -2.8046  -16.7680  -50.0829 S.3       23 UNK        -0.2404 
    126 C126       -1.5142  -15.8906  -51.0249 C.3       23 UNK        -0.0205 
    127 H127        5.8899   -8.2919  -47.0897 H         1 UNK         0.0600 
    128 H128        4.4280   -8.2698  -48.0819 H         1 UNK         0.0600 
    129 H129        5.9877   -8.6533  -48.8156 H         1 UNK         0.0600 
    130 H130        6.2215  -10.7912  -49.2105 H         1 UNK         0.3000 
    131 H131        6.4738  -12.9383  -48.9496 H         1 UNK         0.0600 
    132 H132        4.5167  -13.0524  -50.1878 H         1 UNK         0.0800 
    133 H133        4.4047  -14.3213  -49.0235 H         1 UNK         0.0800 
    134 H134        2.6398  -14.4306  -47.1194 H         1 UNK         0.0800 
    135 H135        1.0945  -13.6588  -47.3237 H         1 UNK         0.0800 
    136 H136       -0.3180  -14.1154  -49.3400 H         1 UNK         0.1150 
    137 H137        0.2918  -17.9241  -51.2058 H         1 UNK         0.1150 
    138 H138        3.2337  -16.3652  -48.5048 H         1 UNK         0.1150 
    139 H139        2.4971  -18.9675  -51.0679 H         1 UNK         0.0800 
    140 H140        3.7635  -18.2459  -50.1102 H         1 UNK         0.0800 
    141 H141        0.5077  -20.2914  -50.0929 H         1 UNK         0.0800 
    142 H142        0.0750  -19.2983  -48.7175 H         1 UNK         0.0800 
    143 H143        0.9487  -22.2182  -48.4774 H         1 UNK         0.0600 
    144 H144        0.4859  -20.2906  -46.4645 H         1 UNK         0.3000 
    145 H145       -0.4179  -22.5823  -43.8355 H         1 UNK         0.0600 
    146 H146        1.4394  -21.3084  -42.7963 H         1 UNK         0.0600 
    147 H147        2.0592  -22.4599  -43.9708 H         1 UNK         0.0600 
    148 H148        1.9786  -20.7518  -44.3780 H         1 UNK         0.0600 
    149 H149       -0.2695  -19.7327  -43.8972 H         1 UNK         0.3000 
    150 H150       -3.7368  -19.1667  -44.6641 H         1 UNK         0.0600 
    151 H151       -3.5488  -19.6278  -42.2096 H         1 UNK         0.0600 
    152 H152       -3.5299  -17.9037  -42.5490 H         1 UNK         0.0600 
    153 H153       -2.0303  -18.7396  -42.1535 H         1 UNK         0.0600 
    154 H154       -1.6698  -17.3098  -44.1691 H         1 UNK         0.3000 
    155 H155       -0.4518  -17.0064  -47.5361 H         1 UNK         0.0600 
    156 H156       -2.0209  -15.2260  -45.5886 H         1 UNK         0.0600 
    157 H157       -0.9610  -14.6331  -46.8601 H         1 UNK         0.0600 
    158 H158       -2.4169  -15.5210  -47.2739 H         1 UNK         0.0600 
    159 H159        0.5068  -15.7440  -45.2316 H         1 UNK         0.3000 
    160 H160        2.7703  -18.2796  -44.0745 H         1 UNK         0.0600 
    161 H161        3.2235  -15.4633  -45.1550 H         1 UNK         0.0600 
    162 H162        3.8011  -16.9057  -45.9765 H         1 UNK         0.0600 
    163 H163        4.3857  -16.5237  -44.3700 H         1 UNK         0.0600 
    164 H164        1.9156  -15.6344  -43.1908 H         1 UNK         0.3000 
    165 H165       -0.4778  -16.8111  -40.8509 H         1 UNK         0.0600 
    166 H166        0.9308  -15.6168  -39.2202 H         1 UNK         0.0600 
    167 H167        1.6940  -17.1421  -39.6440 H         1 UNK         0.0600 
    168 H168        2.2998  -15.6380  -40.3276 H         1 UNK         0.0600 
    169 H169        0.6788  -14.2314  -41.4935 H         1 UNK         0.3000 
    170 H170       -1.6950  -13.4004  -44.0155 H         1 UNK         0.0600 
    171 H171       -2.9610  -13.0200  -41.8905 H         1 UNK         0.0600 
    172 H172       -1.5050  -12.3897  -41.1293 H         1 UNK         0.0600 
    173 H173       -2.2377  -11.5357  -42.4881 H         1 UNK         0.0600 
    174 H174        0.2338  -11.7544  -42.8330 H         1 UNK         0.3000 
    175 H175        2.4553  -12.0455  -45.4117 H         1 UNK         0.0600 
    176 H176        3.0497  -10.1353  -43.9667 H         1 UNK         0.0600 
    177 H177        2.0529  -10.7491  -42.6542 H         1 UNK         0.0600 
    178 H178        1.3098  -10.2133  -44.1616 H         1 UNK         0.0600 
    179 H179        4.2378  -12.9726  -44.5072 H         1 UNK         0.3000 
    180 H180        5.5950  -13.1221  -41.5317 H         1 UNK         0.0600 
    181 H181        4.5459  -15.0825  -40.5719 H         1 UNK         0.0600 
    182 H182        6.0069  -15.6153  -41.3763 H         1 UNK         0.0600 
    183 H183        4.4365  -15.8894  -42.1301 H         1 UNK         0.0600 
    184 H184        6.0622  -14.8448  -43.8349 H         1 UNK         0.3000 
    185 H185        8.5489  -12.7303  -45.0008 H         1 UNK         0.0600 
    186 H186        8.4499  -15.1278  -44.2865 H         1 UNK         0.0600 
    187 H187        7.1467  -15.4278  -45.4332 H         1 UNK         0.0600 
    188 H188        8.7401  -14.9593  -46.0073 H         1 UNK         0.0600 
    189 H189        7.6202  -12.1625  -46.9207 H         1 UNK         0.3000 
    190 H190       -2.0892  -20.4648  -47.6222 H         1 UNK         0.3000 
    191 H191       -3.7449  -21.6352  -49.5881 H         1 UNK         0.0600 
    192 H192       -4.4392  -19.6513  -48.3189 H         1 UNK         0.0600 
    193 H193       -5.5997  -20.9356  -48.0221 H         1 UNK         0.0600 
    194 H194       -4.4003  -20.5445  -46.8011 H         1 UNK         0.0600 
    195 H195       -3.0613  -22.7158  -46.2115 H         1 UNK         0.3000 
    196 H196       -4.7286  -24.9989  -46.2296 H         1 UNK         0.0600 
    197 H197       -3.3292  -25.7152  -44.2812 H         1 UNK         0.0600 
    198 H198       -3.8148  -24.0316  -44.1534 H         1 UNK         0.0600 
    199 H199       -2.1711  -24.4394  -44.6387 H         1 UNK         0.0600 
    200 H200       -1.2527  -24.6667  -47.0827 H         1 UNK         0.3000 
    201 H201       -0.7710  -27.3814  -47.7515 H         1 UNK         0.0600 
    202 H202        1.0423  -25.7512  -47.3229 H         1 UNK         0.0600 
    203 H203        0.5917  -24.8242  -48.7516 H         1 UNK         0.0600 
    204 H204        1.2344  -26.4534  -48.9224 H         1 UNK         0.0600 
    205 H205       -1.9025  -24.6345  -49.7493 H         1 UNK         0.3000 
    206 H206       -2.1559  -26.1736  -52.1964 H         1 UNK         0.0600 
    207 H207       -1.6110  -23.7486  -52.2093 H         1 UNK         0.0600 
    208 H208       -3.1161  -24.0623  -53.0596 H         1 UNK         0.0600 
    209 H209       -3.1553  -23.3821  -51.4397 H         1 UNK         0.0600 
    210 H210       -3.4599  -27.6160  -50.3210 H         1 UNK         0.3000 
    211 H211       -5.3172  -28.7400  -49.8149 H         1 UNK         0.0600 
    212 H212       -6.0218  -28.0535  -52.7147 H         1 UNK         0.0600 
    213 H213       -6.6676  -29.4079  -51.7953 H         1 UNK         0.0600 
    214 H214       -4.9592  -29.3569  -52.1925 H         1 UNK         0.0600 
    215 H215       -5.5353  -26.2281  -48.7671 H         1 UNK         0.3000 
    216 H216       -6.8891  -24.8438  -47.6991 H         1 UNK         0.0600 
    217 H217       -9.2148  -25.4520  -47.1778 H         1 UNK         0.0600 
    218 H218       -8.1742  -26.8559  -47.0014 H         1 UNK         0.0600 
    219 H219       -9.2184  -26.6998  -48.4132 H         1 UNK         0.0600 
    220 H220       -6.0451  -23.7780  -49.7438 H         1 UNK         0.3000 
    221 H221       -6.1639  -22.1026  -51.1699 H         1 UNK         0.0600 
    222 H222       -8.9728  -21.5579  -50.0688 H         1 UNK         0.0600 
    223 H223       -7.4724  -21.0110  -49.3286 H         1 UNK         0.0600 
    224 H224       -7.9378  -20.4147  -50.9089 H         1 UNK         0.0600 
    225 H225       -6.4718  -24.4237  -52.4558 H         1 UNK         0.3000 
    226 H226       -8.6786  -24.3730  -54.3650 H         1 UNK         0.0600 
    227 H227       -7.6092  -26.4996  -53.6877 H         1 UNK         0.0600 
    228 H228       -7.4143  -26.2288  -55.4136 H         1 UNK         0.0600 
    229 H229       -6.0580  -25.9575  -54.3278 H         1 UNK         0.0600 
    230 H230       -8.3994  -22.1197  -54.8430 H         1 UNK         0.3000 
    231 H231       -8.1083  -20.4474  -56.2312 H         1 UNK         0.0600 
    232 H232       -6.2801  -22.1775  -57.9772 H         1 UNK         0.0600 
    233 H233       -6.9691  -20.6216  -58.4071 H         1 UNK         0.0600 
    234 H234       -8.0243  -22.0046  -58.1633 H         1 UNK         0.0600 
    235 H235       -4.9548  -22.0767  -55.7920 H         1 UNK         0.3000 
    236 H236       -3.3447  -19.7105  -55.7016 H         1 UNK         0.0600 
    237 H237       -2.3531  -21.8626  -56.2586 H         1 UNK         0.0600 
    238 H238       -1.6236  -21.3075  -54.7585 H         1 UNK         0.0600 
    239 H239       -2.8557  -22.5638  -54.7256 H         1 UNK         0.0600 
    240 H240       -3.6859  -18.1632  -54.2681 H         1 UNK         0.3000 
    241 H241       -4.0722  -16.9940  -52.4966 H         1 UNK         0.0600 
    242 H242       -6.3054  -18.6335  -53.6159 H         1 UNK         0.3800 
    243 H243       -7.4962  -18.6074  -52.3367 H         1 UNK         0.3800 
    244 H244       -3.3371  -19.0999  -50.4453 H         1 UNK         0.0800 
    245 H245       -2.0982  -18.5505  -51.5278 H         1 UNK         0.0800 
    246 H246       -1.4590  -16.2663  -52.0476 H         1 UNK         0.0800 
    247 H247       -1.7989  -14.8406  -51.1070 H         1 UNK         0.0800 
@<TRIPOS>BOND
     1    1    2 1    
     2    1  127 1    
     3    1  128 1    
     4    1  129 1    
     5    2    3 2    
     6    2    4 am   BACKBONE|DICT|INTERRES
     7    4    5 1    
     8    4  130 1    
     9    5    6 1    
    10    5   65 1    
    11    5  131 1    
    12    6    7 1    
    13    6  132 1    
    14    6  133 1    
    15    7    8 1    
    16    8    9 1    
    17    8  134 1    
    18    8  135 1    
    19    9   10 ar   
    20    9   14 ar   
    21   10   11 ar   
    22   10  136 1    
    23   11   12 ar   
    24   11  126 1    
    25   12   13 ar   
    26   12  137 1    
    27   13   14 ar   
    28   13   15 1    
    29   14  138 1    
    30   15   16 1    
    31   15  139 1    
    32   15  140 1    
    33   16   17 1    
    34   17   18 1    
    35   17  141 1    
    36   17  142 1    
    37   18   19 1    
    38   18   67 1    
    39   18  143 1    
    40   19   20 am   BACKBONE|DICT|INTERRES
    41   19  144 1    
    42   20   21 2    
    43   20   22 1    
    44   22   23 1    
    45   22   24 1    
    46   22  145 1    
    47   23  146 1    
    48   23  147 1    
    49   23  148 1    
    50   24   25 am   BACKBONE|DICT|INTERRES
    51   24  149 1    
    52   25   26 2    
    53   25   27 1    
    54   27   28 1    
    55   27   29 1    
    56   27  150 1    
    57   28  151 1    
    58   28  152 1    
    59   28  153 1    
    60   29   30 am   BACKBONE|DICT|INTERRES
    61   29  154 1    
    62   30   31 2    
    63   30   32 1    
    64   32   33 1    
    65   32   34 1    
    66   32  155 1    
    67   33  156 1    
    68   33  157 1    
    69   33  158 1    
    70   34   35 am   BACKBONE|DICT|INTERRES
    71   34  159 1    
    72   35   36 2    
    73   35   37 1    
    74   37   38 1    
    75   37   39 1    
    76   37  160 1    
    77   38  161 1    
    78   38  162 1    
    79   38  163 1    
    80   39   40 am   BACKBONE|DICT|INTERRES
    81   39  164 1    
    82   40   41 2    
    83   40   42 1    
    84   42   43 1    
    85   42   44 1    
    86   42  165 1    
    87   43  166 1    
    88   43  167 1    
    89   43  168 1    
    90   44   45 am   BACKBONE|DICT|INTERRES
    91   44  169 1    
    92   45   46 2    
    93   45   47 1    
    94   47   48 1    
    95   47   49 1    
    96   47  170 1    
    97   48  171 1    
    98   48  172 1    
    99   48  173 1    
   100   49   50 am   BACKBONE|DICT|INTERRES
   101   49  174 1    
   102   50   51 2    
   103   50   52 1    
   104   52   53 1    
   105   52   54 1    
   106   52  175 1    
   107   53  176 1    
   108   53  177 1    
   109   53  178 1    
   110   54   55 am   BACKBONE|DICT|INTERRES
   111   54  179 1    
   112   55   56 2    
   113   55   57 1    
   114   57   58 1    
   115   57   59 1    
   116   57  180 1    
   117   58  181 1    
   118   58  182 1    
   119   58  183 1    
   120   59   60 am   BACKBONE|DICT|INTERRES
   121   59  184 1    
   122   60   61 2    
   123   60   62 1    
   124   62   63 1    
   125   62   64 1    
   126   62  185 1    
   127   63  186 1    
   128   63  187 1    
   129   63  188 1    
   130   64   65 am   BACKBONE|DICT|INTERRES
   131   64  189 1    
   132   65   66 2    
   133   67   68 2    
   134   67   69 am   BACKBONE|DICT|INTERRES
   135   69   70 1    
   136   69  190 1    
   137   70   71 1    
   138   70   72 1    
   139   70  191 1    
   140   71  192 1    
   141   71  193 1    
   142   71  194 1    
   143   72   73 2    
   144   72   74 am   BACKBONE|DICT|INTERRES
   145   74   75 1    
   146   74  195 1    
   147   75   76 1    
   148   75   77 1    
   149   75  196 1    
   150   76  197 1    
   151   76  198 1    
   152   76  199 1    
   153   77   78 2    
   154   77   79 am   BACKBONE|DICT|INTERRES
   155   79   80 1    
   156   79  200 1    
   157   80   81 1    
   158   80   82 1    
   159   80  201 1    
   160   81  202 1    
   161   81  203 1    
   162   81  204 1    
   163   82   83 2    
   164   82   84 am   BACKBONE|DICT|INTERRES
   165   84   85 1    
   166   84  205 1    
   167   85   86 1    
   168   85   87 1    
   169   85  206 1    
   170   86  207 1    
   171   86  208 1    
   172   86  209 1    
   173   87   88 2    
   174   87   89 am   BACKBONE|DICT|INTERRES
   175   89   90 1    
   176   89  210 1    
   177   90   91 1    
   178   90   92 1    
   179   90  211 1    
   180   91  212 1    
   181   91  213 1    
   182   91  214 1    
   183   92   93 2    
   184   92   94 am   BACKBONE|DICT|INTERRES
   185   94   95 1    
   186   94  215 1    
   187   95   96 1    
   188   95   97 1    
   189   95  216 1    
   190   96  217 1    
   191   96  218 1    
   192   96  219 1    
   193   97   98 2    
   194   97   99 am   BACKBONE|DICT|INTERRES
   195   99  100 1    
   196   99  220 1    
   197  100  101 1    
   198  100  102 1    
   199  100  221 1    
   200  101  222 1    
   201  101  223 1    
   202  101  224 1    
   203  102  103 2    
   204  102  104 am   BACKBONE|DICT|INTERRES
   205  104  105 1    
   206  104  225 1    
   207  105  106 1    
   208  105  107 1    
   209  105  226 1    
   210  106  227 1    
   211  106  228 1    
   212  106  229 1    
   213  107  108 2    
   214  107  109 am   BACKBONE|DICT|INTERRES
   215  109  110 1    
   216  109  230 1    
   217  110  111 1    
   218  110  112 1    
   219  110  231 1    
   220  111  232 1    
   221  111  233 1    
   222  111  234 1    
   223  112  113 2    
   224  112  114 am   BACKBONE|DICT|INTERRES
   225  114  115 1    
   226  114  235 1    
   227  115  116 1    
   228  115  117 1    
   229  115  236 1    
   230  116  237 1    
   231  116  238 1    
   232  116  239 1    
   233  117  118 2    
   234  117  119 am   BACKBONE|DICT|INTERRES
   235  119  120 1    
   236  119  240 1    
   237  120  121 1    
   238  120  124 1    
   239  120  241 1    
   240  121  122 am   BACKBONE|DICT|INTERRES
   241  121  123 2    
   242  122  242 1    
   243  122  243 1    
   244  124  125 1    
   245  124  244 1    
   246  124  245 1    
   247  125  126 1    
   248  126  246 1    
   249  126  247 1    
@<TRIPOS>SUBSTRUCTURE
     1 UNK         1 GROUP             0       ****    0 ROOT    
