@<TRIPOS>MOLECULE
3R540
247   249    1
SMALL
USER_CHARGES


@<TRIPOS>ATOM
      1 CA         -6.6356  -11.7139  -48.0639 C.3       0 UNK        -0.1800 
      2 C          -6.0717  -12.8585  -47.2345 C.2       0 UNK         0.5000 
      3 O          -6.4868  -13.0470  -46.0919 O.2       0 UNK        -0.5000 
      4 N          -5.1098  -13.6027  -47.7959 N.am      1 UNK        -0.5000 
      5 CA         -4.4428  -14.7996  -47.2511 C.3       1 UNK         0.1400 
      6 C6         -5.4120  -15.9686  -46.9227 C.3       23 UNK        -0.0398 
      7 S7         -6.2984  -16.5694  -48.4028 S.3       23 UNK        -0.2404 
      8 C8         -5.3184  -18.0366  -48.8584 C.3       23 UNK        -0.0205 
      9 C9         -3.8863  -17.6737  -49.2202 C.ar      23 UNK        -0.0193 
     10 C10        -3.5886  -17.1416  -50.4774 C.ar      23 UNK        -0.1150 
     11 C11        -2.2889  -16.7239  -50.7812 C.ar      23 UNK        -0.0193 
     12 C12        -1.2861  -16.8402  -49.8147 C.ar      23 UNK        -0.1150 
     13 C13        -1.5652  -17.4007  -48.5650 C.ar      23 UNK        -0.0193 
     14 C14        -2.8644  -17.8266  -48.2793 C.ar      23 UNK        -0.1150 
     15 C15        -0.4857  -17.5025  -47.4975 C.3       23 UNK        -0.0205 
     16 S16         1.0287  -18.3443  -48.0627 S.3       23 UNK        -0.2404 
     17 C17         0.4204  -20.0092  -48.5227 C.3       23 UNK        -0.0398 
     18 CA          0.4347  -21.0577  -47.3762 C.3       11 UNK         0.1400 
     19 N           1.6912  -21.0828  -46.6341 N.am      11 UNK        -0.5000 
     20 C           2.8030  -21.7051  -47.0412 C.2       10 UNK         0.5000 
     21 O           2.8695  -22.3600  -48.0821 O.2       10 UNK        -0.5000 
     22 CA          4.0522  -21.5913  -46.1513 C.3       10 UNK         0.1400 
     23 CB          4.9927  -20.5044  -46.6942 C.3       10 UNK        -0.1800 
     24 N           3.7121  -21.2648  -44.7667 N.am      10 UNK        -0.5000 
     25 C           3.8809  -22.0821  -43.7201 C.2       9 UNK         0.5000 
     26 O           4.3278  -23.2266  -43.8040 O.2       9 UNK        -0.5000 
     27 CA          3.4698  -21.5325  -42.3476 C.3       9 UNK         0.1400 
     28 CB          4.4340  -20.4286  -41.8873 C.3       9 UNK        -0.1800 
     29 N           2.1071  -21.0051  -42.3955 N.am      9 UNK        -0.5000 
     30 C           1.1055  -21.3943  -41.5954 C.2       8 UNK         0.5000 
     31 O           1.2376  -22.2278  -40.6973 O.2       8 UNK        -0.5000 
     32 CA         -0.2865  -20.7791  -41.8555 C.3       8 UNK         0.1400 
     33 CB         -1.1105  -20.5812  -40.5658 C.3       8 UNK        -0.1800 
     34 N          -0.2522  -19.5570  -42.6642 N.am      8 UNK        -0.5000 
     35 C           0.2377  -18.3580  -42.3256 C.2       7 UNK         0.5000 
     36 O           0.7153  -18.0830  -41.2233 O.2       7 UNK        -0.5000 
     37 CA          0.2078  -17.2903  -43.4332 C.3       7 UNK         0.1400 
     38 CB         -0.6256  -16.0716  -43.0132 C.3       7 UNK        -0.1800 
     39 N           1.5516  -16.8481  -43.7926 N.am      7 UNK        -0.5000 
     40 C           2.5032  -17.6249  -44.3273 C.2       6 UNK         0.5000 
     41 O           2.3579  -18.8268  -44.5665 O.2       6 UNK        -0.5000 
     42 CA          3.8502  -16.9495  -44.6432 C.3       6 UNK         0.1400 
     43 CB          3.8863  -16.4912  -46.1086 C.3       6 UNK        -0.1800 
     44 N           4.1372  -15.8088  -43.7676 N.am      6 UNK        -0.5000 
     45 C           4.5229  -15.9320  -42.4879 C.2       5 UNK         0.5000 
     46 O           4.6904  -17.0187  -41.9356 O.2       5 UNK        -0.5000 
     47 CA          4.7885  -14.6472  -41.6776 C.3       5 UNK         0.1400 
     48 CB          6.2996  -14.4262  -41.5047 C.3       5 UNK        -0.1800 
     49 N           4.2027  -13.4343  -42.2477 N.am      5 UNK        -0.5000 
     50 C           2.8947  -13.1541  -42.2946 C.2       4 UNK         0.5000 
     51 O           2.0193  -13.9215  -41.8916 O.2       4 UNK        -0.5000 
     52 CA          2.4849  -11.7959  -42.9057 C.3       4 UNK         0.1400 
     53 CB          3.6729  -10.9064  -43.3380 C.3       4 UNK        -0.1800 
     54 N           1.5511  -11.9600  -44.0211 N.am      4 UNK        -0.5000 
     55 C           1.7201  -12.7068  -45.1198 C.2       3 UNK         0.5000 
     56 O           2.7305  -13.3796  -45.3353 O.2       3 UNK        -0.5000 
     57 CA          0.5536  -12.7028  -46.1324 C.3       3 UNK         0.1400 
     58 CB          0.8217  -13.6180  -47.3402 C.3       3 UNK        -0.1800 
     59 N          -0.7220  -13.0902  -45.5237 N.am      3 UNK        -0.5000 
     60 C          -1.4947  -12.3274  -44.7401 C.2       2 UNK         0.5000 
     61 O          -1.1962  -11.1747  -44.4205 O.2       2 UNK        -0.5000 
     62 CA         -2.8155  -12.9576  -44.2449 C.3       2 UNK         0.1400 
     63 CB         -3.6413  -11.9957  -43.3723 C.3       2 UNK        -0.1800 
     64 N          -3.6552  -13.4162  -45.3518 N.am      2 UNK        -0.5000 
     65 C          -3.4783  -14.5286  -46.0736 C.2       1 UNK         0.5000 
     66 O          -2.5574  -15.3186  -45.8608 O.2       1 UNK        -0.5000 
     67 C          -0.7370  -20.8760  -46.4018 C.2       11 UNK         0.5000 
     68 O          -0.5604  -20.3117  -45.3198 O.2       11 UNK        -0.5000 
     69 N          -1.9178  -21.3454  -46.8116 N.am      12 UNK        -0.5000 
     70 CA         -3.1795  -21.2482  -46.0910 C.3       12 UNK         0.1400 
     71 CB         -3.1943  -22.2199  -44.8957 C.3       12 UNK        -0.1800 
     72 C          -4.3030  -21.5964  -47.0733 C.2       12 UNK         0.5000 
     73 O          -4.0603  -22.3115  -48.0496 O.2       12 UNK        -0.5000 
     74 N          -5.5236  -21.1341  -46.7781 N.am      13 UNK        -0.5000 
     75 CA         -6.7252  -21.4540  -47.5560 C.3       13 UNK         0.1400 
     76 CB         -7.8798  -20.5449  -47.1088 C.3       13 UNK        -0.1800 
     77 C          -7.1220  -22.9386  -47.4398 C.2       13 UNK         0.5000 
     78 O          -7.6206  -23.5145  -48.4061 O.2       13 UNK        -0.5000 
     79 N          -6.8469  -23.5372  -46.2716 N.am      14 UNK        -0.5000 
     80 CA         -7.0656  -24.9539  -45.9750 C.3       14 UNK         0.1400 
     81 CB         -6.9328  -25.1696  -44.4597 C.3       14 UNK        -0.1800 
     82 C          -6.1110  -25.8947  -46.7367 C.2       14 UNK         0.5000 
     83 O          -6.4655  -27.0514  -46.9668 O.2       14 UNK        -0.5000 
     84 N          -4.9279  -25.3904  -47.1207 N.am      15 UNK        -0.5000 
     85 CA         -3.9509  -26.1165  -47.9360 C.3       15 UNK         0.1400 
     86 CB         -2.5733  -25.4494  -47.7996 C.3       15 UNK        -0.1800 
     87 C          -4.3712  -26.1982  -49.4159 C.2       15 UNK         0.5000 
     88 O          -3.9811  -27.1443  -50.1010 O.2       15 UNK        -0.5000 
     89 N          -5.1617  -25.2119  -49.8678 N.am      16 UNK        -0.5000 
     90 CA         -5.7801  -25.0408  -51.1869 C.3       16 UNK         0.1400 
     91 CB         -6.7599  -26.1868  -51.5018 C.3       16 UNK        -0.1800 
     92 C          -4.7747  -24.8242  -52.3313 C.2       16 UNK         0.5000 
     93 O          -4.8115  -23.7787  -52.9789 O.2       16 UNK        -0.5000 
     94 N          -3.8749  -25.7902  -52.5473 N.am      17 UNK        -0.5000 
     95 CA         -2.8424  -25.7668  -53.5846 C.3       17 UNK         0.1400 
     96 CB         -2.1237  -27.1233  -53.6177 C.3       17 UNK        -0.1800 
     97 C          -1.8339  -24.6210  -53.3942 C.2       17 UNK         0.5000 
     98 O          -1.4336  -23.9918  -54.3723 O.2       17 UNK        -0.5000 
     99 N          -1.4818  -24.3387  -52.1326 N.am      18 UNK        -0.5000 
    100 CA        -0.5850  -23.2467  -51.7527 C.3       18 UNK         0.1400 
    101 CB        -0.1417  -23.4459  -50.2976 C.3       18 UNK        -0.1800 
    102 C         -1.2143  -21.8529  -51.9451 C.2       18 UNK         0.5000 
    103 O         -0.4826  -20.8925  -52.1774 O.2       18 UNK        -0.5000 
    104 N         -2.5495  -21.7707  -51.8608 N.am      19 UNK        -0.5000 
    105 CA        -3.3192  -20.5633  -52.1560 C.3       19 UNK         0.1400 
    106 CB        -4.6683  -20.6250  -51.4249 C.3       19 UNK        -0.1800 
    107 C         -3.5189  -20.3820  -53.6713 C.2       19 UNK         0.5000 
    108 O         -3.4208  -19.2614  -54.1684 O.2       19 UNK        -0.5000 
    109 N         -3.7643  -21.4875  -54.3907 N.am      20 UNK        -0.5000 
    110 CA        -3.8861  -21.5230  -55.8512 C.3       20 UNK         0.1400 
    111 CB        -4.3601  -22.9156  -56.2916 C.3       20 UNK        -0.1800 
    112 C         -2.5786  -21.1387  -56.5708 C.2       20 UNK         0.5000 
    113 O         -2.6256  -20.4839  -57.6139 O.2       20 UNK        -0.5000 
    114 N         -1.4356  -21.5023  -55.9704 N.am      21 UNK        -0.5000 
    115 CA        -0.0807  -21.1664  -56.4176 C.3       21 UNK         0.1400 
    116 CB         0.9374  -21.8739  -55.5099 C.3       21 UNK        -0.1800 
    117 C          0.2202  -19.6538  -56.4892 C.2       21 UNK         0.5000 
    118 O          1.1716  -19.2682  -57.1704 O.2       21 UNK        -0.5000 
    119 N         -0.5920  -18.8237  -55.8201 N.am      22 UNK        -0.5000 
    120 CA        -0.5657  -17.3570  -55.9360 C.3       22 UNK         0.1400 
    121 C         -1.0390  -16.8199  -57.3212 C.2       22 UNK         0.5000 
    122 N         -1.7147  -17.6072  -58.1523 N.am      22 UNK        -0.7600 
    123 O         -0.7845  -15.6640  -57.6487 O.2       22 UNK        -0.5000 
    124 C124       -1.3675  -16.6640  -54.8051 C.3       23 UNK        -0.0398 
    125 S125       -0.8933  -17.1968  -53.1267 S.3       23 UNK        -0.2404 
    126 C126       -1.9765  -16.1177  -52.1399 C.3       23 UNK        -0.0205 
    127 H127       -7.7081  -11.8475  -48.2054 H         1 UNK         0.0600 
    128 H128       -6.1680  -11.6559  -49.0471 H         1 UNK         0.0600 
    129 H129       -6.4734  -10.7646  -47.5533 H         1 UNK         0.0600 
    130 H130       -4.8101  -13.3573  -48.7292 H         1 UNK         0.3000 
    131 H131       -3.7916  -15.1316  -48.0598 H         1 UNK         0.0600 
    132 H132       -4.8785  -16.8061  -46.4712 H         1 UNK         0.0800 
    133 H133       -6.1500  -15.6622  -46.1807 H         1 UNK         0.0800 
    134 H134       -5.8029  -18.5304  -49.7001 H         1 UNK         0.0800 
    135 H135       -5.3347  -18.7474  -48.0343 H         1 UNK         0.0800 
    136 H136       -4.3769  -17.0293  -51.2086 H         1 UNK         0.1150 
    137 H137       -0.2846  -16.5009  -50.0393 H         1 UNK         0.1150 
    138 H138       -3.0892  -18.2349  -47.3048 H         1 UNK         0.1150 
    139 H139       -0.2292  -16.4961  -47.1732 H         1 UNK         0.0800 
    140 H140       -0.8672  -18.0053  -46.6104 H         1 UNK         0.0800 
    141 H141       -0.5669  -19.9344  -48.9813 H         1 UNK         0.0800 
    142 H142        1.0715  -20.3624  -49.3232 H         1 UNK         0.0800 
    143 H143        0.2960  -22.0468  -47.8146 H         1 UNK         0.0600 
    144 H144        1.6891  -20.5348  -45.7823 H         1 UNK         0.3000 
    145 H145        4.5754  -22.5482  -46.2045 H         1 UNK         0.0600 
    146 H146        4.5157  -19.5250  -46.6889 H         1 UNK         0.0600 
    147 H147        5.9034  -20.4376  -46.0989 H         1 UNK         0.0600 
    148 H148        5.2895  -20.7202  -47.7213 H         1 UNK         0.0600 
    149 H149        3.3182  -20.3391  -44.6164 H         1 UNK         0.3000 
    150 H150        3.5396  -22.3573  -41.6355 H         1 UNK         0.0600 
    151 H151        5.4558  -20.8038  -41.8212 H         1 UNK         0.0600 
    152 H152        4.1596  -20.0510  -40.9022 H         1 UNK         0.0600 
    153 H153        4.4383  -19.5846  -42.5767 H         1 UNK         0.0600 
    154 H154        1.9122  -20.3105  -43.1065 H         1 UNK         0.3000 
    155 H155       -0.8148  -21.5136  -42.4635 H         1 UNK         0.0600 
    156 H156       -2.0858  -20.1460  -40.7836 H         1 UNK         0.0600 
    157 H157       -0.6024  -19.9307  -39.8537 H         1 UNK         0.0600 
    158 H158       -1.2872  -21.5337  -40.0651 H         1 UNK         0.0600 
    159 H159       -0.5274  -19.6980  -43.6365 H         1 UNK         0.3000 
    160 H160       -0.2493  -17.7160  -44.3280 H         1 UNK         0.0600 
    161 H161       -0.2275  -15.5986  -42.1146 H         1 UNK         0.0600 
    162 H162       -1.6584  -16.3561  -42.8094 H         1 UNK         0.0600 
    163 H163       -0.6424  -15.3239  -43.8040 H         1 UNK         0.0600 
    164 H164        1.7881  -15.8933  -43.5621 H         1 UNK         0.3000 
    165 H165        4.6340  -17.6977  -44.5069 H         1 UNK         0.0600 
    166 H166        3.1016  -15.7670  -46.3244 H         1 UNK         0.0600 
    167 H167        4.8442  -16.0356  -46.3589 H         1 UNK         0.0600 
    168 H168        3.7378  -17.3314  -46.7866 H         1 UNK         0.0600 
    169 H169        3.9914  -14.8848  -44.1565 H         1 UNK         0.3000 
    170 H170        4.3521  -14.7970  -40.6878 H         1 UNK         0.0600 
    171 H171        6.7730  -15.2951  -41.0454 H         1 UNK         0.0600 
    172 H172        6.7923  -14.2522  -42.4621 H         1 UNK         0.0600 
    173 H173        6.5031  -13.5705  -40.8605 H         1 UNK         0.0600 
    174 H174        4.8500  -12.7589  -42.6274 H         1 UNK         0.3000 
    175 H175        1.9412  -11.2645  -42.1234 H         1 UNK         0.0600 
    176 H176        4.2673  -11.3676  -44.1277 H         1 UNK         0.0600 
    177 H177        3.3197   -9.9462  -43.7142 H         1 UNK         0.0600 
    178 H178        4.3350  -10.6922  -42.4981 H         1 UNK         0.0600 
    179 H179        0.6601  -11.4806  -43.9300 H         1 UNK         0.3000 
    180 H180        0.4580  -11.6818  -46.5076 H         1 UNK         0.0600 
    181 H181        1.0162  -14.6429  -47.0276 H         1 UNK         0.0600 
    182 H182        1.6948  -13.2788  -47.8988 H         1 UNK         0.0600 
    183 H183       -0.0222  -13.6287  -48.0304 H         1 UNK         0.0600 
    184 H184       -1.0580  -14.0255  -45.7300 H         1 UNK         0.3000 
    185 H185       -2.5528  -13.8175  -43.6264 H         1 UNK         0.0600 
    186 H186       -3.0692  -11.6628  -42.5053 H         1 UNK         0.0600 
    187 H187       -3.9456  -11.1081  -43.9283 H         1 UNK         0.0600 
    188 H188       -4.5429  -12.4804  -42.9970 H         1 UNK         0.0600 
    189 H189       -4.4610  -12.8456  -45.5752 H         1 UNK         0.3000 
    190 H190       -2.0163  -21.7842  -47.7190 H         1 UNK         0.3000 
    191 H191       -3.3165  -20.2228  -45.7418 H         1 UNK         0.0600 
    192 H192       -4.1476  -22.1827  -44.3675 H         1 UNK         0.0600 
    193 H193       -2.4200  -21.9720  -44.1714 H         1 UNK         0.0600 
    194 H194       -3.0335  -23.2508  -45.2141 H         1 UNK         0.0600 
    195 H195       -5.6559  -20.5642  -45.9547 H         1 UNK         0.3000 
    196 H196       -6.5171  -21.2482  -48.6085 H         1 UNK         0.0600 
    197 H197       -8.7821  -20.7486  -47.6868 H         1 UNK         0.0600 
    198 H198       -7.6352  -19.4925  -47.2534 H         1 UNK         0.0600 
    199 H199       -8.1245  -20.6912  -46.0560 H         1 UNK         0.0600 
    200 H200       -6.4469  -22.9793  -45.5322 H         1 UNK         0.3000 
    201 H201       -8.0853  -25.2100  -46.2704 H         1 UNK         0.0600 
    202 H202       -7.6547  -24.5653  -43.9100 H         1 UNK         0.0600 
    203 H203       -5.9352  -24.9113  -44.1018 H         1 UNK         0.0600 
    204 H204       -7.1164  -26.2120  -44.1957 H         1 UNK         0.0600 
    205 H205       -4.7187  -24.4252  -46.9128 H         1 UNK         0.3000 
    206 H206       -3.8706  -27.1377  -47.5571 H         1 UNK         0.0600 
    207 H207       -2.2529  -25.4128  -46.7583 H         1 UNK         0.0600 
    208 H208       -1.8150  -26.0048  -48.3531 H         1 UNK         0.0600 
    209 H209       -2.5768  -24.4311  -48.1851 H         1 UNK         0.0600 
    210 H210       -5.3935  -24.4842  -49.2055 H         1 UNK         0.3000 
    211 H211       -6.3697  -24.1252  -51.1148 H         1 UNK         0.0600 
    212 H212       -6.2570  -27.1511  -51.5779 H         1 UNK         0.0600 
    213 H213       -7.2721  -26.0110  -52.4486 H         1 UNK         0.0600 
    214 H214       -7.5246  -26.2694  -50.7293 H         1 UNK         0.0600 
    215 H215       -3.8760  -26.5791  -51.9061 H         1 UNK         0.3000 
    216 H216       -3.3374  -25.6185  -54.5461 H         1 UNK         0.0600 
    217 H217       -1.6394  -27.3463  -52.6661 H         1 UNK         0.0600 
    218 H218       -1.3547  -27.1395  -54.3912 H         1 UNK         0.0600 
    219 H219       -2.8208  -27.9324  -53.8362 H         1 UNK         0.0600 
    220 H220       -1.8594  -24.9065  -51.3888 H         1 UNK         0.3000 
    221 H221        0.3015  -23.3011  -52.3885 H         1 UNK         0.0600 
    222 H222       -0.9701  -23.3130  -49.6017 H         1 UNK         0.0600 
    223 H223        0.2763  -24.4404  -50.1405 H         1 UNK         0.0600 
    224 H224        0.6357  -22.7280  -50.0364 H         1 UNK         0.0600 
    225 H225       -3.0782  -22.6140  -51.6943 H         1 UNK         0.3000 
    226 H226       -2.7737  -19.6930  -51.7839 H         1 UNK         0.0600 
    227 H227       -4.5262  -20.6651  -50.3449 H         1 UNK         0.0600 
    228 H228       -5.2667  -19.7413  -51.6473 H         1 UNK         0.0600 
    229 H229       -5.2547  -21.4956  -51.7175 H         1 UNK         0.0600 
    230 H230       -3.9127  -22.3654  -53.9017 H         1 UNK         0.3000 
    231 H231       -4.6486  -20.7964  -56.1391 H         1 UNK         0.0600 
    232 H232       -4.5153  -22.9512  -57.3705 H         1 UNK         0.0600 
    233 H233       -5.3054  -23.1799  -55.8172 H         1 UNK         0.0600 
    234 H234       -3.6317  -23.6863  -56.0399 H         1 UNK         0.0600 
    235 H235       -1.4993  -22.1056  -55.1574 H         1 UNK         0.3000 
    236 H236        0.0336  -21.5616  -57.4287 H         1 UNK         0.0600 
    237 H237        0.8447  -21.5476  -54.4740 H         1 UNK         0.0600 
    238 H238        0.8065  -22.9556  -55.5358 H         1 UNK         0.0600 
    239 H239        1.9595  -21.6658  -55.8289 H         1 UNK         0.0600 
    240 H240       -1.3471  -19.2092  -55.2682 H         1 UNK         0.3000 
    241 H241        0.4758  -17.0477  -55.8304 H         1 UNK         0.0600 
    242 H242       -1.9445  -18.5625  -57.9006 H         1 UNK         0.3800 
    243 H243       -2.0102  -17.2449  -59.0450 H         1 UNK         0.3800 
    244 H244       -1.2400  -15.5814  -54.8621 H         1 UNK         0.0800 
    245 H245       -2.4347  -16.8544  -54.9325 H         1 UNK         0.0800 
    246 H246       -1.4955  -15.1476  -52.0074 H         1 UNK         0.0800 
    247 H247       -2.9026  -15.9312  -52.6861 H         1 UNK         0.0800 
@<TRIPOS>BOND
     1    1    2 1    
     2    1  127 1    
     3    1  128 1    
     4    1  129 1    
     5    2    3 2    
     6    2    4 am   BACKBONE|DICT|INTERRES
     7    4    5 1    
     8    4  130 1    
     9    5    6 1    
    10    5   65 1    
    11    5  131 1    
    12    6    7 1    
    13    6  132 1    
    14    6  133 1    
    15    7    8 1    
    16    8    9 1    
    17    8  134 1    
    18    8  135 1    
    19    9   10 ar   
    20    9   14 ar   
    21   10   11 ar   
    22   10  136 1    
    23   11   12 ar   
    24   11  126 1    
    25   12   13 ar   
    26   12  137 1    
    27   13   14 ar   
    28   13   15 1    
    29   14  138 1    
    30   15   16 1    
    31   15  139 1    
    32   15  140 1    
    33   16   17 1    
    34   17   18 1    
    35   17  141 1    
    36   17  142 1    
    37   18   19 1    
    38   18   67 1    
    39   18  143 1    
    40   19   20 am   BACKBONE|DICT|INTERRES
    41   19  144 1    
    42   20   21 2    
    43   20   22 1    
    44   22   23 1    
    45   22   24 1    
    46   22  145 1    
    47   23  146 1    
    48   23  147 1    
    49   23  148 1    
    50   24   25 am   BACKBONE|DICT|INTERRES
    51   24  149 1    
    52   25   26 2    
    53   25   27 1    
    54   27   28 1    
    55   27   29 1    
    56   27  150 1    
    57   28  151 1    
    58   28  152 1    
    59   28  153 1    
    60   29   30 am   BACKBONE|DICT|INTERRES
    61   29  154 1    
    62   30   31 2    
    63   30   32 1    
    64   32   33 1    
    65   32   34 1    
    66   32  155 1    
    67   33  156 1    
    68   33  157 1    
    69   33  158 1    
    70   34   35 am   BACKBONE|DICT|INTERRES
    71   34  159 1    
    72   35   36 2    
    73   35   37 1    
    74   37   38 1    
    75   37   39 1    
    76   37  160 1    
    77   38  161 1    
    78   38  162 1    
    79   38  163 1    
    80   39   40 am   BACKBONE|DICT|INTERRES
    81   39  164 1    
    82   40   41 2    
    83   40   42 1    
    84   42   43 1    
    85   42   44 1    
    86   42  165 1    
    87   43  166 1    
    88   43  167 1    
    89   43  168 1    
    90   44   45 am   BACKBONE|DICT|INTERRES
    91   44  169 1    
    92   45   46 2    
    93   45   47 1    
    94   47   48 1    
    95   47   49 1    
    96   47  170 1    
    97   48  171 1    
    98   48  172 1    
    99   48  173 1    
   100   49   50 am   BACKBONE|DICT|INTERRES
   101   49  174 1    
   102   50   51 2    
   103   50   52 1    
   104   52   53 1    
   105   52   54 1    
   106   52  175 1    
   107   53  176 1    
   108   53  177 1    
   109   53  178 1    
   110   54   55 am   BACKBONE|DICT|INTERRES
   111   54  179 1    
   112   55   56 2    
   113   55   57 1    
   114   57   58 1    
   115   57   59 1    
   116   57  180 1    
   117   58  181 1    
   118   58  182 1    
   119   58  183 1    
   120   59   60 am   BACKBONE|DICT|INTERRES
   121   59  184 1    
   122   60   61 2    
   123   60   62 1    
   124   62   63 1    
   125   62   64 1    
   126   62  185 1    
   127   63  186 1    
   128   63  187 1    
   129   63  188 1    
   130   64   65 am   BACKBONE|DICT|INTERRES
   131   64  189 1    
   132   65   66 2    
   133   67   68 2    
   134   67   69 am   BACKBONE|DICT|INTERRES
   135   69   70 1    
   136   69  190 1    
   137   70   71 1    
   138   70   72 1    
   139   70  191 1    
   140   71  192 1    
   141   71  193 1    
   142   71  194 1    
   143   72   73 2    
   144   72   74 am   BACKBONE|DICT|INTERRES
   145   74   75 1    
   146   74  195 1    
   147   75   76 1    
   148   75   77 1    
   149   75  196 1    
   150   76  197 1    
   151   76  198 1    
   152   76  199 1    
   153   77   78 2    
   154   77   79 am   BACKBONE|DICT|INTERRES
   155   79   80 1    
   156   79  200 1    
   157   80   81 1    
   158   80   82 1    
   159   80  201 1    
   160   81  202 1    
   161   81  203 1    
   162   81  204 1    
   163   82   83 2    
   164   82   84 am   BACKBONE|DICT|INTERRES
   165   84   85 1    
   166   84  205 1    
   167   85   86 1    
   168   85   87 1    
   169   85  206 1    
   170   86  207 1    
   171   86  208 1    
   172   86  209 1    
   173   87   88 2    
   174   87   89 am   BACKBONE|DICT|INTERRES
   175   89   90 1    
   176   89  210 1    
   177   90   91 1    
   178   90   92 1    
   179   90  211 1    
   180   91  212 1    
   181   91  213 1    
   182   91  214 1    
   183   92   93 2    
   184   92   94 am   BACKBONE|DICT|INTERRES
   185   94   95 1    
   186   94  215 1    
   187   95   96 1    
   188   95   97 1    
   189   95  216 1    
   190   96  217 1    
   191   96  218 1    
   192   96  219 1    
   193   97   98 2    
   194   97   99 am   BACKBONE|DICT|INTERRES
   195   99  100 1    
   196   99  220 1    
   197  100  101 1    
   198  100  102 1    
   199  100  221 1    
   200  101  222 1    
   201  101  223 1    
   202  101  224 1    
   203  102  103 2    
   204  102  104 am   BACKBONE|DICT|INTERRES
   205  104  105 1    
   206  104  225 1    
   207  105  106 1    
   208  105  107 1    
   209  105  226 1    
   210  106  227 1    
   211  106  228 1    
   212  106  229 1    
   213  107  108 2    
   214  107  109 am   BACKBONE|DICT|INTERRES
   215  109  110 1    
   216  109  230 1    
   217  110  111 1    
   218  110  112 1    
   219  110  231 1    
   220  111  232 1    
   221  111  233 1    
   222  111  234 1    
   223  112  113 2    
   224  112  114 am   BACKBONE|DICT|INTERRES
   225  114  115 1    
   226  114  235 1    
   227  115  116 1    
   228  115  117 1    
   229  115  236 1    
   230  116  237 1    
   231  116  238 1    
   232  116  239 1    
   233  117  118 2    
   234  117  119 am   BACKBONE|DICT|INTERRES
   235  119  120 1    
   236  119  240 1    
   237  120  121 1    
   238  120  124 1    
   239  120  241 1    
   240  121  122 am   BACKBONE|DICT|INTERRES
   241  121  123 2    
   242  122  242 1    
   243  122  243 1    
   244  124  125 1    
   245  124  244 1    
   246  124  245 1    
   247  125  126 1    
   248  126  246 1    
   249  126  247 1    
@<TRIPOS>SUBSTRUCTURE
     1 UNK         1 GROUP             0       ****    0 ROOT    
