@<TRIPOS>MOLECULE
3R540
247   249    1
SMALL
USER_CHARGES


@<TRIPOS>ATOM
      1 CA         -0.8769   -9.4690  -49.9817 C.3       0 UNK        -0.1800 
      2 C          -0.3432  -10.3219  -48.8395 C.2       0 UNK         0.5000 
      3 O           0.0330   -9.7838  -47.7983 O.2       0 UNK        -0.5000 
      4 N          -0.3049  -11.6461  -49.0349 N.am      1 UNK        -0.5000 
      5 CA          0.1222  -12.6414  -48.0440 C.3       1 UNK         0.1400 
      6 C6          0.3491  -14.0339  -48.6897 C.3       23 UNK        -0.0398 
      7 S7         -1.0981  -14.6603  -49.6201 S.3       23 UNK        -0.2404 
      8 C8         -0.8655  -16.4582  -49.5021 C.3       23 UNK        -0.0205 
      9 C9          0.2443  -16.9432  -50.4204 C.ar      23 UNK        -0.0193 
     10 C10         0.0654  -16.9230  -51.8070 C.ar      23 UNK        -0.1150 
     11 C11         1.0835  -17.3542  -52.6619 C.ar      23 UNK        -0.0193 
     12 C12         2.2796  -17.8292  -52.1170 C.ar      23 UNK        -0.1150 
     13 C13         2.4686  -17.8603  -50.7320 C.ar      23 UNK        -0.0193 
     14 C14         1.4493  -17.4084  -49.8879 C.ar      23 UNK        -0.1150 
     15 C15         3.7872  -18.3577  -50.1604 C.3       23 UNK        -0.0205 
     16 S16         3.7566  -20.1499  -49.8450 S.3       23 UNK        -0.2404 
     17 C17         3.0569  -20.1991  -48.1621 C.3       23 UNK        -0.0398 
     18 CA          2.1799  -21.4411  -47.8810 C.3       11 UNK         0.1400 
     19 N           2.0139  -21.6450  -46.4403 N.am      11 UNK        -0.5000 
     20 C           1.5288  -22.7539  -45.8659 C.2       10 UNK         0.5000 
     21 O           1.2105  -23.7677  -46.4870 O.2       10 UNK        -0.5000 
     22 CA          1.3393  -22.7103  -44.3385 C.3       10 UNK         0.1400 
     23 CB          2.6548  -23.0437  -43.6190 C.3       10 UNK        -0.1800 
     24 N           0.8334  -21.4185  -43.8682 N.am      10 UNK        -0.5000 
     25 C          -0.3772  -20.9263  -44.1681 C.2       9 UNK         0.5000 
     26 O          -1.2101  -21.5358  -44.8371 O.2       9 UNK        -0.5000 
     27 CA         -0.6957  -19.4996  -43.6843 C.3       9 UNK         0.1400 
     28 CB         -1.0868  -19.4963  -42.1993 C.3       9 UNK        -0.1800 
     29 N           0.4155  -18.5737  -43.8975 N.am      9 UNK        -0.5000 
     30 C           0.9062  -18.2278  -45.0954 C.2       8 UNK         0.5000 
     31 O           0.4433  -18.6150  -46.1668 O.2       8 UNK        -0.5000 
     32 CA          2.1557  -17.3327  -45.0933 C.3       8 UNK         0.1400 
     33 CB          1.7722  -15.8552  -44.9102 C.3       8 UNK        -0.1800 
     34 N           3.1157  -17.7340  -44.0633 N.am      8 UNK        -0.5000 
     35 C           3.7959  -18.8900  -44.0747 C.2       7 UNK         0.5000 
     36 O           3.7013  -19.7282  -44.9701 O.2       7 UNK        -0.5000 
     37 CA          4.6961  -19.1777  -42.8600 C.3       7 UNK         0.1400 
     38 CB          6.0228  -18.4118  -42.9717 C.3       7 UNK        -0.1800 
     39 N           4.0457  -18.8447  -41.5927 N.am      7 UNK        -0.5000 
     40 C           2.9667  -19.4745  -41.1063 C.2       6 UNK         0.5000 
     41 O           2.4305  -20.4360  -41.6547 O.2       6 UNK        -0.5000 
     42 CA          2.3489  -18.8951  -39.8197 C.3       6 UNK         0.1400 
     43 CB          3.0300  -19.4897  -38.5782 C.3       6 UNK        -0.1800 
     44 N           2.4055  -17.4312  -39.7536 N.am      6 UNK        -0.5000 
     45 C           1.8470  -16.6080  -40.6498 C.2       5 UNK         0.5000 
     46 O           1.2396  -16.9957  -41.6525 O.2       5 UNK        -0.5000 
     47 CA          2.0409  -15.1058  -40.4149 C.3       5 UNK         0.1400 
     48 CB          3.4555  -14.6644  -40.8264 C.3       5 UNK        -0.1800 
     49 N           1.0643  -14.3946  -41.2270 N.am      5 UNK        -0.5000 
     50 C           0.3779  -13.3086  -40.8665 C.2       4 UNK         0.5000 
     51 O           0.5528  -12.7121  -39.8028 O.2       4 UNK        -0.5000 
     52 CA         -0.6824  -12.7925  -41.8593 C.3       4 UNK         0.1400 
     53 CB         -0.2032  -11.4925  -42.5241 C.3       4 UNK        -0.1800 
     54 N          -1.0509  -13.7451  -42.9123 N.am      4 UNK        -0.5000 
     55 C          -1.7797  -14.8594  -42.7343 C.2       3 UNK         0.5000 
     56 O          -2.1289  -15.2730  -41.6280 O.2       3 UNK        -0.5000 
     57 CA         -2.2095  -15.6066  -44.0207 C.3       3 UNK         0.1400 
     58 CB         -3.3697  -16.5980  -43.7970 C.3       3 UNK        -0.1800 
     59 N          -2.5136  -14.6826  -45.1214 N.am      3 UNK        -0.5000 
     60 C          -3.4031  -13.6767  -45.1083 C.2       2 UNK         0.5000 
     61 O          -4.2557  -13.5358  -44.2303 O.2       2 UNK        -0.5000 
     62 CA         -3.3139  -12.6249  -46.2395 C.3       2 UNK         0.1400 
     63 CB         -3.3962  -11.1914  -45.6771 C.3       2 UNK        -0.1800 
     64 N          -2.1530  -12.7239  -47.1373 N.am      2 UNK        -0.5000 
     65 C          -0.8428  -12.7069  -46.8391 C.2       1 UNK         0.5000 
     66 O          -0.3916  -12.7375  -45.6927 O.2       1 UNK        -0.5000 
     67 C           0.8220  -21.3864  -48.6175 C.2       11 UNK         0.5000 
     68 O           0.7031  -21.9527  -49.7038 O.2       11 UNK        -0.5000 
     69 N          -0.1830  -20.7433  -48.0036 N.am      12 UNK        -0.5000 
     70 CA         -1.5562  -20.6865  -48.5068 C.3       12 UNK         0.1400 
     71 CB         -2.3312  -19.5867  -47.7653 C.3       12 UNK        -0.1800 
     72 C          -2.3078  -22.0231  -48.3854 C.2       12 UNK         0.5000 
     73 O          -3.1305  -22.3306  -49.2507 O.2       12 UNK        -0.5000 
     74 N          -2.0000  -22.7767  -47.3218 N.am      13 UNK        -0.5000 
     75 CA         -2.6012  -24.0386  -46.8878 C.3       13 UNK         0.1400 
     76 CB         -2.5197  -25.1123  -47.9931 C.3       13 UNK        -0.1800 
     77 C          -4.0365  -23.8668  -46.3510 C.2       13 UNK         0.5000 
     78 O          -4.6200  -22.7806  -46.4221 O.2       13 UNK        -0.5000 
     79 N          -4.5795  -24.9594  -45.7962 N.am      14 UNK        -0.5000 
     80 CA         -5.9372  -25.0445  -45.2562 C.3       14 UNK         0.1400 
     81 CB         -6.1649  -26.4487  -44.6766 C.3       14 UNK        -0.1800 
     82 C          -6.9930  -24.7202  -46.3272 C.2       14 UNK         0.5000 
     83 O          -6.9139  -25.2515  -47.4363 O.2       14 UNK        -0.5000 
     84 N          -7.9251  -23.8197  -45.9867 N.am      15 UNK        -0.5000 
     85 CA         -8.9834  -23.2802  -46.8520 C.3       15 UNK         0.1400 
     86 CB        -10.0145  -24.3777  -47.1906 C.3       15 UNK        -0.1800 
     87 C          -8.4573  -22.5539  -48.1134 C.2       15 UNK         0.5000 
     88 O          -9.1899  -22.4433  -49.0978 O.2       15 UNK        -0.5000 
     89 N          -7.2011  -22.0780  -48.0626 N.am      16 UNK        -0.5000 
     90 CA         -6.4517  -21.4290  -49.1445 C.3       16 UNK         0.1400 
     91 CB         -7.1010  -20.0813  -49.5289 C.3       16 UNK        -0.1800 
     92 C          -6.2133  -22.3537  -50.3604 C.2       16 UNK         0.5000 
     93 O          -6.1221  -21.8699  -51.4896 O.2       16 UNK        -0.5000 
     94 N          -6.1210  -23.6703  -50.1154 N.am      17 UNK        -0.5000 
     95 CA         -6.0210  -24.7101  -51.1418 C.3       17 UNK         0.1400 
     96 CB         -6.0977  -26.0915  -50.4753 C.3       17 UNK        -0.1800 
     97 C          -4.7740  -24.6196  -52.0410 C.2       17 UNK         0.5000 
     98 O          -4.8650  -24.9670  -53.2189 O.2       17 UNK        -0.5000 
     99 N          -3.6437  -24.1570  -51.4903 N.am      18 UNK        -0.5000 
    100 CA        -2.4077  -23.9465  -52.2436 C.3       18 UNK         0.1400 
    101 CB        -1.1905  -24.2554  -51.3628 C.3       18 UNK        -0.1800 
    102 C         -2.3445  -22.5242  -52.8209 C.2       18 UNK         0.5000 
    103 O         -1.8749  -22.3624  -53.9456 O.2       18 UNK        -0.5000 
    104 N         -2.8766  -21.5321  -52.0886 N.am      19 UNK        -0.5000 
    105 CA        -3.0139  -20.1339  -52.5243 C.3       19 UNK         0.1400 
    106 CB        -3.5121  -19.2646  -51.3577 C.3       19 UNK        -0.1800 
    107 C         -3.9071  -19.9415  -53.7678 C.2       19 UNK         0.5000 
    108 O         -3.7760  -18.9331  -54.4610 O.2       19 UNK        -0.5000 
    109 N         -4.7772  -20.9198  -54.0483 N.am      20 UNK        -0.5000 
    110 CA        -5.5626  -21.0274  -55.2773 C.3       20 UNK         0.1400 
    111 CB        -6.5891  -22.1573  -55.1033 C.3       20 UNK        -0.1800 
    112 C         -4.7079  -21.2630  -56.5438 C.2       20 UNK         0.5000 
    113 O         -5.1981  -21.0147  -57.6465 O.2       20 UNK        -0.5000 
    114 N         -3.4649  -21.7339  -56.3734 N.am      21 UNK        -0.5000 
    115 CA        -2.4844  -21.9506  -57.4302 C.3       21 UNK         0.1400 
    116 CB        -2.1277  -23.4494  -57.4841 C.3       21 UNK        -0.1800 
    117 C         -1.2725  -21.0411  -57.1640 C.2       21 UNK         0.5000 
    118 O         -1.2439  -19.9225  -57.6763 O.2       21 UNK        -0.5000 
    119 N         -0.3119  -21.5459  -56.3764 N.am      22 UNK        -0.5000 
    120 CA         0.9194  -20.9040  -55.8717 C.3       22 UNK         0.1400 
    121 C          1.8769  -20.2409  -56.9116 C.2       22 UNK         0.5000 
    122 N          1.7536  -20.5239  -58.2019 N.am      22 UNK        -0.7600 
    123 O          2.7836  -19.4987  -56.5431 O.2       22 UNK        -0.5000 
    124 C124        0.6904  -20.0639  -54.5820 C.3       23 UNK        -0.0398 
    125 S125       -0.2592  -18.5195  -54.8003 S.3       23 UNK        -0.2404 
    126 C126        0.9041  -17.2709  -54.1719 C.3       23 UNK        -0.0205 
    127 H127       -0.1168   -8.7585  -50.3067 H         1 UNK         0.0600 
    128 H128       -1.7518   -8.9079  -49.6532 H         1 UNK         0.0600 
    129 H129       -1.1649  -10.0755  -50.8408 H         1 UNK         0.0600 
    130 H130       -0.6245  -12.0262  -49.9150 H         1 UNK         0.3000 
    131 H131        1.0855  -12.3091  -47.6507 H         1 UNK         0.0600 
    132 H132        0.6444  -14.7611  -47.9323 H         1 UNK         0.0800 
    133 H133        1.1888  -13.9796  -49.3840 H         1 UNK         0.0800 
    134 H134       -0.6651  -16.7322  -48.4654 H         1 UNK         0.0800 
    135 H135       -1.7986  -16.9498  -49.7780 H         1 UNK         0.0800 
    136 H136       -0.8627  -16.5556  -52.2225 H         1 UNK         0.1150 
    137 H137        3.0714  -18.1654  -52.7718 H         1 UNK         0.1150 
    138 H138        1.5910  -17.4139  -48.8169 H         1 UNK         0.1150 
    139 H139        4.5941  -18.1433  -50.8628 H         1 UNK         0.0800 
    140 H140        4.0372  -17.8182  -49.2454 H         1 UNK         0.0800 
    141 H141        2.5062  -19.2855  -47.9422 H         1 UNK         0.0800 
    142 H142        3.9144  -20.1973  -47.4890 H         1 UNK         0.0800 
    143 H143        2.7138  -22.3163  -48.2581 H         1 UNK         0.0600 
    144 H144        2.3130  -20.8821  -45.8414 H         1 UNK         0.3000 
    145 H145        0.6052  -23.4742  -44.0739 H         1 UNK         0.0600 
    146 H146        2.5079  -23.1075  -42.5408 H         1 UNK         0.0600 
    147 H147        3.0500  -24.0046  -43.9506 H         1 UNK         0.0600 
    148 H148        3.4196  -22.2897  -43.8079 H         1 UNK         0.0600 
    149 H149        1.4471  -20.8858  -43.2581 H         1 UNK         0.3000 
    150 H150       -1.5468  -19.1338  -44.2623 H         1 UNK         0.0600 
    151 H151       -1.9726  -20.1091  -42.0290 H         1 UNK         0.0600 
    152 H152       -1.3133  -18.4885  -41.8504 H         1 UNK         0.0600 
    153 H153       -0.2885  -19.8919  -41.5717 H         1 UNK         0.0600 
    154 H154        0.8379  -18.1696  -43.0653 H         1 UNK         0.3000 
    155 H155        2.6399  -17.4378  -46.0666 H         1 UNK         0.0600 
    156 H156        1.3074  -15.6712  -43.9429 H         1 UNK         0.0600 
    157 H157        1.0634  -15.5379  -45.6752 H         1 UNK         0.0600 
    158 H158        2.6460  -15.2083  -44.9894 H         1 UNK         0.0600 
    159 H159        3.2040  -17.1281  -43.2619 H         1 UNK         0.3000 
    160 H160        4.9185  -20.2470  -42.8564 H         1 UNK         0.0600 
    161 H161        5.8708  -17.3320  -42.9486 H         1 UNK         0.0600 
    162 H162        6.5339  -18.6519  -43.9050 H         1 UNK         0.0600 
    163 H163        6.6979  -18.6732  -42.1566 H         1 UNK         0.0600 
    164 H164        4.4205  -18.0635  -41.0755 H         1 UNK         0.3000 
    165 H165        1.2966  -19.1852  -39.8019 H         1 UNK         0.0600 
    166 H166        2.5396  -19.1587  -37.6625 H         1 UNK         0.0600 
    167 H167        2.9853  -20.5796  -38.5930 H         1 UNK         0.0600 
    168 H168        4.0811  -19.2048  -38.5190 H         1 UNK         0.0600 
    169 H169        2.8956  -17.0364  -38.9637 H         1 UNK         0.3000 
    170 H170        1.8787  -14.8992  -39.3550 H         1 UNK         0.0600 
    171 H171        4.2169  -15.1744  -40.2352 H         1 UNK         0.0600 
    172 H172        3.6545  -14.8779  -41.8775 H         1 UNK         0.0600 
    173 H173        3.5914  -13.5937  -40.6732 H         1 UNK         0.0600 
    174 H174        0.7925  -14.8769  -42.0724 H         1 UNK         0.3000 
    175 H175       -1.5809  -12.5673  -41.2812 H         1 UNK         0.0600 
    176 H176        0.6788  -11.6612  -43.1434 H         1 UNK         0.0600 
    177 H177       -0.9793  -11.0643  -43.1579 H         1 UNK         0.0600 
    178 H178        0.0565  -10.7401  -41.7783 H         1 UNK         0.0600 
    179 H179       -0.8161  -13.4655  -43.8605 H         1 UNK         0.3000 
    180 H180       -1.3413  -16.1859  -44.3359 H         1 UNK         0.0600 
    181 H181       -3.6161  -17.1280  -44.7171 H         1 UNK         0.0600 
    182 H182       -4.2715  -16.0962  -43.4461 H         1 UNK         0.0600 
    183 H183       -3.1068  -17.3490  -43.0523 H         1 UNK         0.0600 
    184 H184       -1.8609  -14.6919  -45.8912 H         1 UNK         0.3000 
    185 H185       -4.1930  -12.7871  -46.8646 H         1 UNK         0.0600 
    186 H186       -4.3135  -11.0384  -45.1074 H         1 UNK         0.0600 
    187 H187       -2.5582  -10.9717  -45.0155 H         1 UNK         0.0600 
    188 H188       -3.3895  -10.4531  -46.4790 H         1 UNK         0.0600 
    189 H189       -2.3853  -12.7454  -48.1208 H         1 UNK         0.3000 
    190 H190        0.0089  -20.2318  -47.1474 H         1 UNK         0.3000 
    191 H191       -1.5020  -20.4342  -49.5652 H         1 UNK         0.0600 
    192 H192       -3.3402  -19.4805  -48.1655 H         1 UNK         0.0600 
    193 H193       -1.8389  -18.6215  -47.8584 H         1 UNK         0.0600 
    194 H194       -2.4229  -19.8084  -46.7014 H         1 UNK         0.0600 
    195 H195       -1.3886  -22.3538  -46.6310 H         1 UNK         0.3000 
    196 H196       -1.9893  -24.3733  -46.0489 H         1 UNK         0.0600 
    197 H197       -3.2229  -24.9186  -48.8019 H         1 UNK         0.0600 
    198 H198       -1.5177  -25.1631  -48.4189 H         1 UNK         0.0600 
    199 H199       -2.7500  -26.1024  -47.5993 H         1 UNK         0.0600 
    200 H200       -4.0478  -25.8170  -45.7911 H         1 UNK         0.3000 
    201 H201       -6.0165  -24.3187  -44.4443 H         1 UNK         0.0600 
    202 H202       -6.0669  -27.2202  -45.4416 H         1 UNK         0.0600 
    203 H203       -7.1644  -26.5365  -44.2487 H         1 UNK         0.0600 
    204 H204       -5.4516  -26.6696  -43.8823 H         1 UNK         0.0600 
    205 H205       -7.8893  -23.4245  -45.0570 H         1 UNK         0.3000 
    206 H206       -9.4967  -22.5186  -46.2634 H         1 UNK         0.0600 
    207 H207      -10.3750  -24.8724  -46.2888 H         1 UNK         0.0600 
    208 H208      -10.8844  -23.9571  -47.6964 H         1 UNK         0.0600 
    209 H209       -9.5934  -25.1404  -47.8464 H         1 UNK         0.0600 
    210 H210       -6.6616  -22.2527  -47.2228 H         1 UNK         0.3000 
    211 H211       -5.4662  -21.2079  -48.7345 H         1 UNK         0.0600 
    212 H212       -6.4825  -19.5271  -50.2339 H         1 UNK         0.0600 
    213 H213       -7.2377  -19.4467  -48.6534 H         1 UNK         0.0600 
    214 H214       -8.0746  -20.2186  -49.9994 H         1 UNK         0.0600 
    215 H215       -6.2285  -23.9928  -49.1613 H         1 UNK         0.3000 
    216 H216       -6.8911  -24.6031  -51.7928 H         1 UNK         0.0600 
    217 H217       -5.3049  -26.2271  -49.7386 H         1 UNK         0.0600 
    218 H218       -6.0041  -26.8907  -51.2119 H         1 UNK         0.0600 
    219 H219       -7.0533  -26.2307  -49.9698 H         1 UNK         0.0600 
    220 H220       -3.6576  -23.8166  -50.5345 H         1 UNK         0.3000 
    221 H221       -2.3702  -24.6387  -53.0876 H         1 UNK         0.0600 
    222 H222       -0.2607  -24.0858  -51.9071 H         1 UNK         0.0600 
    223 H223       -1.1944  -25.2962  -51.0394 H         1 UNK         0.0600 
    224 H224       -1.1638  -23.6313  -50.4729 H         1 UNK         0.0600 
    225 H225       -3.2326  -21.7613  -51.1671 H         1 UNK         0.3000 
    226 H226       -2.0203  -19.7789  -52.8006 H         1 UNK         0.0600 
    227 H227       -2.6922  -18.9900  -50.6992 H         1 UNK         0.0600 
    228 H228       -3.9478  -18.3275  -51.7074 H         1 UNK         0.0600 
    229 H229       -4.2667  -19.7780  -50.7647 H         1 UNK         0.0600 
    230 H230       -4.8944  -21.6589  -53.3665 H         1 UNK         0.3000 
    231 H231       -6.1031  -20.0889  -55.4148 H         1 UNK         0.0600 
    232 H232       -6.1016  -23.1220  -54.9573 H         1 UNK         0.0600 
    233 H233       -7.2311  -22.2425  -55.9808 H         1 UNK         0.0600 
    234 H234       -7.2350  -21.9754  -54.2439 H         1 UNK         0.0600 
    235 H235       -3.1179  -21.8697  -55.4287 H         1 UNK         0.3000 
    236 H236       -2.8889  -21.6672  -58.4041 H         1 UNK         0.0600 
    237 H237       -2.9866  -24.0378  -57.8074 H         1 UNK         0.0600 
    238 H238       -1.3223  -23.6371  -58.1953 H         1 UNK         0.0600 
    239 H239       -1.8158  -23.8362  -56.5131 H         1 UNK         0.0600 
    240 H240       -0.4837  -22.4649  -55.9939 H         1 UNK         0.3000 
    241 H241        1.5096  -21.7586  -55.5393 H         1 UNK         0.0600 
    242 H242        2.3862  -20.1045  -58.8651 H         1 UNK         0.3800 
    243 H243        1.0066  -21.1171  -58.5253 H         1 UNK         0.3800 
    244 H244        1.6519  -19.8369  -54.1208 H         1 UNK         0.0800 
    245 H245        0.1648  -20.6684  -53.8431 H         1 UNK         0.0800 
    246 H246        1.8604  -17.3756  -54.6871 H         1 UNK         0.0800 
    247 H247        0.5269  -16.2806  -54.4304 H         1 UNK         0.0800 
@<TRIPOS>BOND
     1    1    2 1    
     2    1  127 1    
     3    1  128 1    
     4    1  129 1    
     5    2    3 2    
     6    2    4 am   BACKBONE|DICT|INTERRES
     7    4    5 1    
     8    4  130 1    
     9    5    6 1    
    10    5   65 1    
    11    5  131 1    
    12    6    7 1    
    13    6  132 1    
    14    6  133 1    
    15    7    8 1    
    16    8    9 1    
    17    8  134 1    
    18    8  135 1    
    19    9   10 ar   
    20    9   14 ar   
    21   10   11 ar   
    22   10  136 1    
    23   11   12 ar   
    24   11  126 1    
    25   12   13 ar   
    26   12  137 1    
    27   13   14 ar   
    28   13   15 1    
    29   14  138 1    
    30   15   16 1    
    31   15  139 1    
    32   15  140 1    
    33   16   17 1    
    34   17   18 1    
    35   17  141 1    
    36   17  142 1    
    37   18   19 1    
    38   18   67 1    
    39   18  143 1    
    40   19   20 am   BACKBONE|DICT|INTERRES
    41   19  144 1    
    42   20   21 2    
    43   20   22 1    
    44   22   23 1    
    45   22   24 1    
    46   22  145 1    
    47   23  146 1    
    48   23  147 1    
    49   23  148 1    
    50   24   25 am   BACKBONE|DICT|INTERRES
    51   24  149 1    
    52   25   26 2    
    53   25   27 1    
    54   27   28 1    
    55   27   29 1    
    56   27  150 1    
    57   28  151 1    
    58   28  152 1    
    59   28  153 1    
    60   29   30 am   BACKBONE|DICT|INTERRES
    61   29  154 1    
    62   30   31 2    
    63   30   32 1    
    64   32   33 1    
    65   32   34 1    
    66   32  155 1    
    67   33  156 1    
    68   33  157 1    
    69   33  158 1    
    70   34   35 am   BACKBONE|DICT|INTERRES
    71   34  159 1    
    72   35   36 2    
    73   35   37 1    
    74   37   38 1    
    75   37   39 1    
    76   37  160 1    
    77   38  161 1    
    78   38  162 1    
    79   38  163 1    
    80   39   40 am   BACKBONE|DICT|INTERRES
    81   39  164 1    
    82   40   41 2    
    83   40   42 1    
    84   42   43 1    
    85   42   44 1    
    86   42  165 1    
    87   43  166 1    
    88   43  167 1    
    89   43  168 1    
    90   44   45 am   BACKBONE|DICT|INTERRES
    91   44  169 1    
    92   45   46 2    
    93   45   47 1    
    94   47   48 1    
    95   47   49 1    
    96   47  170 1    
    97   48  171 1    
    98   48  172 1    
    99   48  173 1    
   100   49   50 am   BACKBONE|DICT|INTERRES
   101   49  174 1    
   102   50   51 2    
   103   50   52 1    
   104   52   53 1    
   105   52   54 1    
   106   52  175 1    
   107   53  176 1    
   108   53  177 1    
   109   53  178 1    
   110   54   55 am   BACKBONE|DICT|INTERRES
   111   54  179 1    
   112   55   56 2    
   113   55   57 1    
   114   57   58 1    
   115   57   59 1    
   116   57  180 1    
   117   58  181 1    
   118   58  182 1    
   119   58  183 1    
   120   59   60 am   BACKBONE|DICT|INTERRES
   121   59  184 1    
   122   60   61 2    
   123   60   62 1    
   124   62   63 1    
   125   62   64 1    
   126   62  185 1    
   127   63  186 1    
   128   63  187 1    
   129   63  188 1    
   130   64   65 am   BACKBONE|DICT|INTERRES
   131   64  189 1    
   132   65   66 2    
   133   67   68 2    
   134   67   69 am   BACKBONE|DICT|INTERRES
   135   69   70 1    
   136   69  190 1    
   137   70   71 1    
   138   70   72 1    
   139   70  191 1    
   140   71  192 1    
   141   71  193 1    
   142   71  194 1    
   143   72   73 2    
   144   72   74 am   BACKBONE|DICT|INTERRES
   145   74   75 1    
   146   74  195 1    
   147   75   76 1    
   148   75   77 1    
   149   75  196 1    
   150   76  197 1    
   151   76  198 1    
   152   76  199 1    
   153   77   78 2    
   154   77   79 am   BACKBONE|DICT|INTERRES
   155   79   80 1    
   156   79  200 1    
   157   80   81 1    
   158   80   82 1    
   159   80  201 1    
   160   81  202 1    
   161   81  203 1    
   162   81  204 1    
   163   82   83 2    
   164   82   84 am   BACKBONE|DICT|INTERRES
   165   84   85 1    
   166   84  205 1    
   167   85   86 1    
   168   85   87 1    
   169   85  206 1    
   170   86  207 1    
   171   86  208 1    
   172   86  209 1    
   173   87   88 2    
   174   87   89 am   BACKBONE|DICT|INTERRES
   175   89   90 1    
   176   89  210 1    
   177   90   91 1    
   178   90   92 1    
   179   90  211 1    
   180   91  212 1    
   181   91  213 1    
   182   91  214 1    
   183   92   93 2    
   184   92   94 am   BACKBONE|DICT|INTERRES
   185   94   95 1    
   186   94  215 1    
   187   95   96 1    
   188   95   97 1    
   189   95  216 1    
   190   96  217 1    
   191   96  218 1    
   192   96  219 1    
   193   97   98 2    
   194   97   99 am   BACKBONE|DICT|INTERRES
   195   99  100 1    
   196   99  220 1    
   197  100  101 1    
   198  100  102 1    
   199  100  221 1    
   200  101  222 1    
   201  101  223 1    
   202  101  224 1    
   203  102  103 2    
   204  102  104 am   BACKBONE|DICT|INTERRES
   205  104  105 1    
   206  104  225 1    
   207  105  106 1    
   208  105  107 1    
   209  105  226 1    
   210  106  227 1    
   211  106  228 1    
   212  106  229 1    
   213  107  108 2    
   214  107  109 am   BACKBONE|DICT|INTERRES
   215  109  110 1    
   216  109  230 1    
   217  110  111 1    
   218  110  112 1    
   219  110  231 1    
   220  111  232 1    
   221  111  233 1    
   222  111  234 1    
   223  112  113 2    
   224  112  114 am   BACKBONE|DICT|INTERRES
   225  114  115 1    
   226  114  235 1    
   227  115  116 1    
   228  115  117 1    
   229  115  236 1    
   230  116  237 1    
   231  116  238 1    
   232  116  239 1    
   233  117  118 2    
   234  117  119 am   BACKBONE|DICT|INTERRES
   235  119  120 1    
   236  119  240 1    
   237  120  121 1    
   238  120  124 1    
   239  120  241 1    
   240  121  122 am   BACKBONE|DICT|INTERRES
   241  121  123 2    
   242  122  242 1    
   243  122  243 1    
   244  124  125 1    
   245  124  244 1    
   246  124  245 1    
   247  125  126 1    
   248  126  246 1    
   249  126  247 1    
@<TRIPOS>SUBSTRUCTURE
     1 UNK         1 GROUP             0       ****    0 ROOT    
