@<TRIPOS>MOLECULE
3R540
247   249    1
SMALL
USER_CHARGES


@<TRIPOS>ATOM
      1 CA          1.8969   -9.6487  -48.9649 C.3       0 UNK        -0.1800 
      2 C           1.2177  -10.0231  -50.2807 C.2       0 UNK         0.5000 
      3 O           0.7233   -9.1391  -50.9767 O.2       0 UNK        -0.5000 
      4 N           1.1704  -11.3041  -50.6703 N.am      1 UNK        -0.5000 
      5 CA          1.6715  -12.4743  -49.9376 C.3       1 UNK         0.1400 
      6 C6          2.0886  -13.6170  -50.8948 C.3       23 UNK        -0.0398 
      7 S7          0.7936  -14.1191  -52.0866 S.3       23 UNK        -0.2404 
      8 C8          0.1751  -15.6624  -51.3441 C.3       23 UNK        -0.0205 
      9 C9          1.2354  -16.7534  -51.2916 C.ar      23 UNK        -0.0193 
     10 C10         1.8083  -17.2357  -52.4720 C.ar      23 UNK        -0.1150 
     11 C11         2.7955  -18.2230  -52.4312 C.ar      23 UNK        -0.0193 
     12 C12         3.2143  -18.7226  -51.1947 C.ar      23 UNK        -0.1150 
     13 C13         2.6321  -18.2685  -50.0077 C.ar      23 UNK        -0.0193 
     14 C14         1.6432  -17.2817  -50.0627 C.ar      23 UNK        -0.1150 
     15 C15         3.0846  -18.8318  -48.6668 C.3       23 UNK        -0.0205 
     16 S16         2.8047  -20.6277  -48.5337 S.3       23 UNK        -0.2404 
     17 C17         0.9914  -20.7175  -48.6860 C.3       23 UNK        -0.0398 
     18 CA          0.4087  -21.9827  -48.0207 C.3       11 UNK         0.1400 
     19 N           0.4953  -21.9392  -46.5585 N.am      11 UNK        -0.5000 
     20 C           0.2429  -22.9797  -45.7525 C.2       10 UNK         0.5000 
     21 O          -0.0427  -24.1064  -46.1584 O.2       10 UNK        -0.5000 
     22 CA          0.2565  -22.7040  -44.2383 C.3       10 UNK         0.1400 
     23 CB          1.6932  -22.6457  -43.6986 C.3       10 UNK        -0.1800 
     24 N          -0.4605  -21.4754  -43.8926 N.am      10 UNK        -0.5000 
     25 C          -1.7769  -21.2975  -44.0762 C.2       9 UNK         0.5000 
     26 O          -2.5291  -22.1777  -44.4936 O.2       9 UNK        -0.5000 
     27 CA         -2.3452  -19.8958  -43.7869 C.3       9 UNK         0.1400 
     28 CB         -2.6205  -19.7159  -42.2871 C.3       9 UNK        -0.1800 
     29 N          -1.4702  -18.8227  -44.2576 N.am      9 UNK        -0.5000 
     30 C          -1.1608  -18.5913  -45.5408 C.2       8 UNK         0.5000 
     31 O          -1.6294  -19.2255  -46.4831 O.2       8 UNK        -0.5000 
     32 CA         -0.1051  -17.5065  -45.8144 C.3       8 UNK         0.1400 
     33 CB         -0.7389  -16.1083  -45.8308 C.3       8 UNK        -0.1800 
     34 N           0.9923  -17.5523  -44.8465 N.am      8 UNK        -0.5000 
     35 C           1.8568  -18.5724  -44.7448 C.2       7 UNK         0.5000 
     36 O           1.8393  -19.5536  -45.4853 O.2       7 UNK        -0.5000 
     37 CA          2.8703  -18.5167  -43.5895 C.3       7 UNK         0.1400 
     38 CB          4.0925  -17.6703  -43.9662 C.3       7 UNK        -0.1800 
     39 N           2.2687  -18.0016  -42.3598 N.am      7 UNK        -0.5000 
     40 C           1.3918  -18.6969  -41.6211 C.2       6 UNK         0.5000 
     41 O           1.0413  -19.8468  -41.8849 O.2       6 UNK        -0.5000 
     42 CA          0.7647  -17.9763  -40.4132 C.3       6 UNK         0.1400 
     43 CB          1.6460  -18.1450  -39.1669 C.3       6 UNK        -0.1800 
     44 N           0.5210  -16.5511  -40.6436 N.am      6 UNK        -0.5000 
     45 C          -0.2687  -16.0507  -41.6033 C.2       5 UNK         0.5000 
     46 O          -0.8791  -16.7489  -42.4114 O.2       5 UNK        -0.5000 
     47 CA         -0.3918  -14.5195  -41.7010 C.3       5 UNK         0.1400 
     48 CB          0.0251  -13.7757  -40.4126 C.3       5 UNK        -0.1800 
     49 N           0.3267  -13.9731  -42.8556 N.am      5 UNK        -0.5000 
     50 C           1.6370  -14.0702  -43.1305 C.2       4 UNK         0.5000 
     51 O           2.4105  -14.7983  -42.5058 O.2       4 UNK        -0.5000 
     52 CA          2.1905  -13.2053  -44.2880 C.3       4 UNK         0.1400 
     53 CB          2.9297  -14.0620  -45.3275 C.3       4 UNK        -0.1800 
     54 N           1.1831  -12.3858  -44.9719 N.am      4 UNK        -0.5000 
     55 C           0.6125  -11.2793  -44.4675 C.2       3 UNK         0.5000 
     56 O           0.8919  -10.8278  -43.3567 O.2       3 UNK        -0.5000 
     57 CA         -0.4513  -10.5525  -45.3206 C.3       3 UNK         0.1400 
     58 CB          0.0045   -9.1232  -45.6571 C.3       3 UNK        -0.1800 
     59 N          -0.7953  -11.2451  -46.5646 N.am      3 UNK        -0.5000 
     60 C          -1.5249  -12.3656  -46.6550 C.2       2 UNK         0.5000 
     61 O          -2.0284  -12.9285  -45.6833 O.2       2 UNK        -0.5000 
     62 CA         -1.6800  -12.9807  -48.0615 C.3       2 UNK         0.1400 
     63 CB         -3.0343  -12.6007  -48.6765 C.3       2 UNK        -0.1800 
     64 N          -0.6082  -12.6067  -48.9918 N.am      2 UNK        -0.5000 
     65 C           0.6773  -12.9698  -48.8647 C.2       1 UNK         0.5000 
     66 O           1.0937  -13.6434  -47.9241 O.2       1 UNK        -0.5000 
     67 C          -1.0281  -22.2664  -48.5093 C.2       11 UNK         0.5000 
     68 O          -1.1964  -23.0845  -49.4130 O.2       11 UNK        -0.5000 
     69 N          -2.0371  -21.6491  -47.8739 N.am      12 UNK        -0.5000 
     70 CA         -3.4571  -21.9081  -48.1204 C.3       12 UNK         0.1400 
     71 CB         -4.3326  -20.9738  -47.2703 C.3       12 UNK        -0.1800 
     72 C          -3.8380  -23.3697  -47.8434 C.2       12 UNK         0.5000 
     73 O          -4.4850  -23.9916  -48.6842 O.2       12 UNK        -0.5000 
     74 N          -3.4090  -23.8965  -46.6875 N.am      13 UNK        -0.5000 
     75 CA         -3.6229  -25.2819  -46.2696 C.3       13 UNK         0.1400 
     76 CB         -3.1407  -25.4682  -44.8234 C.3       13 UNK        -0.1800 
     77 C          -2.9521  -26.2976  -47.2106 C.2       13 UNK         0.5000 
     78 O          -3.5959  -27.2711  -47.6035 O.2       13 UNK        -0.5000 
     79 N          -1.6981  -26.0267  -47.6020 N.am      14 UNK        -0.5000 
     80 CA         -0.9352  -26.8187  -48.5725 C.3       14 UNK         0.1400 
     81 CB          0.5010  -26.2798  -48.6540 C.3       14 UNK        -0.1800 
     82 C          -1.5820  -26.8488  -49.9716 C.2       14 UNK         0.5000 
     83 O          -1.5231  -27.8740  -50.6508 O.2       14 UNK        -0.5000 
     84 N          -2.2232  -25.7379  -50.3520 N.am      15 UNK        -0.5000 
     85 CA         -2.9846  -25.5680  -51.5879 C.3       15 UNK         0.1400 
     86 CB         -2.9145  -24.0882  -51.9867 C.3       15 UNK        -0.1800 
     87 C          -4.4461  -26.0626  -51.4900 C.2       15 UNK         0.5000 
     88 O          -5.2114  -25.8420  -52.4291 O.2       15 UNK        -0.5000 
     89 N          -4.8090  -26.7260  -50.3809 N.am      16 UNK        -0.5000 
     90 CA         -6.1167  -27.3186  -50.0807 C.3       16 UNK         0.1400 
     91 CB         -6.4734  -28.4313  -51.0898 C.3       16 UNK        -0.1800 
     92 C          -7.2299  -26.2651  -49.9055 C.2       16 UNK         0.5000 
     93 O          -8.2993  -26.3787  -50.5074 O.2       16 UNK        -0.5000 
     94 N          -6.9471  -25.2701  -49.0544 N.am      17 UNK        -0.5000 
     95 CA         -7.8060  -24.1534  -48.6473 C.3       17 UNK         0.1400 
     96 CB         -9.1052  -24.6488  -47.9767 C.3       17 UNK        -0.1800 
     97 C          -8.0420  -23.1381  -49.7820 C.2       17 UNK         0.5000 
     98 O          -9.1542  -22.6313  -49.9446 O.2       17 UNK        -0.5000 
     99 N          -6.9777  -22.8490  -50.5404 N.am      18 UNK        -0.5000 
    100 CA        -6.9524  -21.8065  -51.5665 C.3       18 UNK         0.1400 
    101 CB        -5.8277  -22.1215  -52.5601 C.3       18 UNK        -0.1800 
    102 C         -6.7489  -20.4090  -50.9484 C.2       18 UNK         0.5000 
    103 O         -6.4261  -20.2886  -49.7635 O.2       18 UNK        -0.5000 
    104 N         -6.9149  -19.3684  -51.7739 N.am      19 UNK        -0.5000 
    105 CA        -6.7423  -17.9586  -51.4163 C.3       19 UNK         0.1400 
    106 CB        -7.4627  -17.0946  -52.4671 C.3       19 UNK        -0.1800 
    107 C         -5.2549  -17.5741  -51.2554 C.2       19 UNK         0.5000 
    108 O         -4.7064  -16.8516  -52.0899 O.2       19 UNK        -0.5000 
    109 N         -4.6286  -18.0925  -50.1910 N.am      20 UNK        -0.5000 
    110 CA        -3.2388  -17.9187  -49.7476 C.3       20 UNK         0.1400 
    111 CB        -2.9102  -16.4423  -49.4571 C.3       20 UNK        -0.1800 
    112 C         -2.1885  -18.5613  -50.6712 C.2       20 UNK         0.5000 
    113 O         -1.3152  -19.2697  -50.1793 O.2       20 UNK        -0.5000 
    114 N         -2.2789  -18.3151  -51.9813 N.am      21 UNK        -0.5000 
    115 CA        -1.4057  -18.8992  -52.9948 C.3       21 UNK         0.1400 
    116 CB        -1.5548  -18.0959  -54.2967 C.3       21 UNK        -0.1800 
    117 C         -1.7560  -20.3847  -53.2204 C.2       21 UNK         0.5000 
    118 O         -2.9312  -20.6778  -53.4358 O.2       21 UNK        -0.5000 
    119 N         -0.8048  -21.3254  -53.2120 N.am      22 UNK        -0.5000 
    120 CA         0.6331  -21.2185  -52.9370 C.3       22 UNK         0.1400 
    121 C          1.1360  -22.6139  -52.4724 C.2       22 UNK         0.5000 
    122 N          2.0264  -22.6770  -51.4915 N.am      22 UNK        -0.7600 
    123 O          0.7418  -23.6434  -53.0167 O.2       22 UNK        -0.5000 
    124 C124        1.4050  -20.6848  -54.1771 C.3       23 UNK        -0.0398 
    125 S125        3.2116  -20.5246  -53.9472 S.3       23 UNK        -0.2404 
    126 C126        3.4261  -18.7299  -53.7203 C.3       23 UNK        -0.0205 
    127 H127        1.6029   -8.6447  -48.6580 H         1 UNK         0.0600 
    128 H128        2.9801   -9.6585  -49.0858 H         1 UNK         0.0600 
    129 H129        1.6328  -10.3300  -48.1583 H         1 UNK         0.0600 
    130 H130        0.7383  -11.5221  -51.5578 H         1 UNK         0.3000 
    131 H131        2.5765  -12.1831  -49.4012 H         1 UNK         0.0600 
    132 H132        2.4456  -14.4801  -50.3310 H         1 UNK         0.0800 
    133 H133        2.9484  -13.2887  -51.4803 H         1 UNK         0.0800 
    134 H134       -0.6723  -16.0148  -51.9313 H         1 UNK         0.0800 
    135 H135       -0.2088  -15.4453  -50.3476 H         1 UNK         0.0800 
    136 H136        1.4877  -16.8312  -53.4219 H         1 UNK         0.1150 
    137 H137        3.9869  -19.4778  -51.1567 H         1 UNK         0.1150 
    138 H138        1.1962  -16.9181  -49.1481 H         1 UNK         0.1150 
    139 H139        4.1490  -18.6314  -48.5399 H         1 UNK         0.0800 
    140 H140        2.5785  -18.3294  -47.8417 H         1 UNK         0.0800 
    141 H141        0.7638  -20.7036  -49.7513 H         1 UNK         0.0800 
    142 H142        0.5387  -19.8200  -48.2616 H         1 UNK         0.0800 
    143 H143        1.0119  -22.8321  -48.3487 H         1 UNK         0.0600 
    144 H144        0.7825  -21.0548  -46.1484 H         1 UNK         0.3000 
    145 H145       -0.2528  -23.5353  -43.7464 H         1 UNK         0.0600 
    146 H146        1.7022  -22.5171  -42.6162 H         1 UNK         0.0600 
    147 H147        2.2300  -23.5685  -43.9214 H         1 UNK         0.0600 
    148 H148        2.2589  -21.8241  -44.1373 H         1 UNK         0.0600 
    149 H149        0.0874  -20.7240  -43.4882 H         1 UNK         0.3000 
    150 H150       -3.2946  -19.8046  -44.3179 H         1 UNK         0.0600 
    151 H151       -3.3114  -20.4775  -41.9237 H         1 UNK         0.0600 
    152 H152       -3.0691  -18.7436  -42.0822 H         1 UNK         0.0600 
    153 H153       -1.7072  -19.7934  -41.6975 H         1 UNK         0.0600 
    154 H154       -1.0904  -18.1989  -43.5494 H         1 UNK         0.3000 
    155 H155        0.3111  -17.6964  -46.8059 H         1 UNK         0.0600 
    156 H156       -1.1363  -15.8255  -44.8566 H         1 UNK         0.0600 
    157 H157       -1.5659  -16.0665  -46.5398 H         1 UNK         0.0600 
    158 H158       -0.0170  -15.3498  -46.1296 H         1 UNK         0.0600 
    159 H159        1.0228  -16.8201  -44.1530 H         1 UNK         0.3000 
    160 H160        3.2162  -19.5360  -43.4042 H         1 UNK         0.0600 
    161 H161        3.8239  -16.6262  -44.1117 H         1 UNK         0.0600 
    162 H162        4.5470  -18.0275  -44.8913 H         1 UNK         0.0600 
    163 H163        4.8557  -17.7136  -43.1891 H         1 UNK         0.0600 
    164 H164        2.4755  -17.0423  -42.1078 H         1 UNK         0.3000 
    165 H165       -0.1999  -18.4473  -40.2144 H         1 UNK         0.0600 
    166 H166        1.1684  -17.7181  -38.2848 H         1 UNK         0.0600 
    167 H167        1.8283  -19.2001  -38.9577 H         1 UNK         0.0600 
    168 H168        2.6162  -17.6623  -39.2914 H         1 UNK         0.0600 
    169 H169        1.0111  -15.9046  -40.0428 H         1 UNK         0.3000 
    170 H170       -1.4495  -14.3125  -41.8703 H         1 UNK         0.0600 
    171 H171       -0.5261  -14.1465  -39.5473 H         1 UNK         0.0600 
    172 H172        1.0898  -13.8768  -40.1995 H         1 UNK         0.0600 
    173 H173       -0.1903  -12.7103  -40.4958 H         1 UNK         0.0600 
    174 H174       -0.2276  -13.3968  -43.4728 H         1 UNK         0.3000 
    175 H175        2.9218  -12.5259  -43.8454 H         1 UNK         0.0600 
    176 H176        2.3043  -14.8677  -45.7124 H         1 UNK         0.0600 
    177 H177        3.2606  -13.4603  -46.1742 H         1 UNK         0.0600 
    178 H178        3.8229  -14.5097  -44.8936 H         1 UNK         0.0600 
    179 H179        0.9099  -12.6994  -45.8950 H         1 UNK         0.3000 
    180 H180       -1.3557  -10.4827  -44.7127 H         1 UNK         0.0600 
    181 H181        0.9508   -9.1167  -46.1972 H         1 UNK         0.0600 
    182 H182        0.1471   -8.5366  -44.7486 H         1 UNK         0.0600 
    183 H183       -0.7360   -8.6014  -46.2636 H         1 UNK         0.0600 
    184 H184       -0.4319  -10.8485  -47.4173 H         1 UNK         0.3000 
    185 H185       -1.6543  -14.0651  -47.9440 H         1 UNK         0.0600 
    186 H186       -3.8565  -12.8932  -48.0219 H         1 UNK         0.0600 
    187 H187       -3.1132  -11.5259  -48.8440 H         1 UNK         0.0600 
    188 H188       -3.1881  -13.1032  -49.6317 H         1 UNK         0.0600 
    189 H189       -0.8720  -12.0471  -49.7902 H         1 UNK         0.3000 
    190 H190       -1.8198  -20.9262  -47.1921 H         1 UNK         0.3000 
    191 H191       -3.6553  -21.6999  -49.1740 H         1 UNK         0.0600 
    192 H192       -4.1657  -21.1161  -46.2043 H         1 UNK         0.0600 
    193 H193       -5.3911  -21.1592  -47.4556 H         1 UNK         0.0600 
    194 H194       -4.1457  -19.9270  -47.4949 H         1 UNK         0.0600 
    195 H195       -2.9141  -23.2973  -46.0322 H         1 UNK         0.3000 
    196 H196       -4.6982  -25.4702  -46.2932 H         1 UNK         0.0600 
    197 H197       -3.3058  -26.4917  -44.4846 H         1 UNK         0.0600 
    198 H198       -3.6785  -24.8088  -44.1420 H         1 UNK         0.0600 
    199 H199       -2.0763  -25.2552  -44.7216 H         1 UNK         0.0600 
    200 H200       -1.2246  -25.2202  -47.2025 H         1 UNK         0.3000 
    201 H201       -0.8951  -27.8457  -48.2042 H         1 UNK         0.0600 
    202 H202        0.9928  -26.3181  -47.6818 H         1 UNK         0.0600 
    203 H203        0.5226  -25.2458  -48.9993 H         1 UNK         0.0600 
    204 H204        1.1018  -26.8702  -49.3468 H         1 UNK         0.0600 
    205 H205       -2.1721  -24.9231  -49.7495 H         1 UNK         0.3000 
    206 H206       -2.5069  -26.1485  -52.3795 H         1 UNK         0.0600 
    207 H207       -1.8805  -23.7707  -52.1122 H         1 UNK         0.0600 
    208 H208       -3.4278  -23.9005  -52.9302 H         1 UNK         0.0600 
    209 H209       -3.3616  -23.4530  -51.2226 H         1 UNK         0.0600 
    210 H210       -4.1174  -26.8267  -49.6475 H         1 UNK         0.3000 
    211 H211       -6.0066  -27.7979  -49.1068 H         1 UNK         0.0600 
    212 H212       -6.6578  -28.0354  -52.0886 H         1 UNK         0.0600 
    213 H213       -7.3747  -28.9613  -50.7799 H         1 UNK         0.0600 
    214 H214       -5.6735  -29.1681  -51.1627 H         1 UNK         0.0600 
    215 H215       -5.9890  -25.1974  -48.7244 H         1 UNK         0.3000 
    216 H216       -7.2424  -23.6128  -47.8854 H         1 UNK         0.0600 
    217 H217       -9.6559  -23.8171  -47.5358 H         1 UNK         0.0600 
    218 H218       -8.8908  -25.3556  -47.1752 H         1 UNK         0.0600 
    219 H219       -9.7716  -25.1375  -48.6876 H         1 UNK         0.0600 
    220 H220       -6.0953  -23.2845  -50.3082 H         1 UNK         0.3000 
    221 H221       -7.9029  -21.8136  -52.1040 H         1 UNK         0.0600 
    222 H222       -4.8504  -21.9866  -52.0995 H         1 UNK         0.0600 
    223 H223       -5.8946  -23.1449  -52.9296 H         1 UNK         0.0600 
    224 H224       -5.8681  -21.4615  -53.4271 H         1 UNK         0.0600 
    225 H225       -7.1433  -19.5507  -52.7404 H         1 UNK         0.3000 
    226 H226       -7.2300  -17.7813  -50.4553 H         1 UNK         0.0600 
    227 H227       -8.5272  -17.3267  -52.5056 H         1 UNK         0.0600 
    228 H228       -7.3718  -16.0339  -52.2296 H         1 UNK         0.0600 
    229 H229       -7.0504  -17.2445  -53.4657 H         1 UNK         0.0600 
    230 H230       -5.1694  -18.7608  -49.6494 H         1 UNK         0.3000 
    231 H231       -3.1633  -18.4436  -48.7967 H         1 UNK         0.0600 
    232 H232       -1.9230  -16.3551  -49.0035 H         1 UNK         0.0600 
    233 H233       -3.6258  -16.0083  -48.7589 H         1 UNK         0.0600 
    234 H234       -2.9114  -15.8338  -50.3617 H         1 UNK         0.0600 
    235 H235       -3.0635  -17.7554  -52.3031 H         1 UNK         0.3000 
    236 H236       -0.3814  -18.7932  -52.6496 H         1 UNK         0.0600 
    237 H237       -0.9349  -18.5107  -55.0917 H         1 UNK         0.0600 
    238 H238       -2.5859  -18.0978  -54.6528 H         1 UNK         0.0600 
    239 H239       -1.2520  -17.0581  -54.1568 H         1 UNK         0.0600 
    240 H240       -1.0898  -22.2843  -53.3574 H         1 UNK         0.3000 
    241 H241        0.7809  -20.5337  -52.1018 H         1 UNK         0.0600 
    242 H242        2.3636  -23.5820  -51.2055 H         1 UNK         0.3800 
    243 H243        2.4093  -21.8481  -51.0656 H         1 UNK         0.3800 
    244 H244        1.2387  -21.3473  -55.0283 H         1 UNK         0.0800 
    245 H245        1.0118  -19.7157  -54.4801 H         1 UNK         0.0800 
    246 H246        3.0220  -18.2075  -54.5889 H         1 UNK         0.0800 
    247 H247        4.4932  -18.5051  -53.6981 H         1 UNK         0.0800 
@<TRIPOS>BOND
     1    1    2 1    
     2    1  127 1    
     3    1  128 1    
     4    1  129 1    
     5    2    3 2    
     6    2    4 am   BACKBONE|DICT|INTERRES
     7    4    5 1    
     8    4  130 1    
     9    5    6 1    
    10    5   65 1    
    11    5  131 1    
    12    6    7 1    
    13    6  132 1    
    14    6  133 1    
    15    7    8 1    
    16    8    9 1    
    17    8  134 1    
    18    8  135 1    
    19    9   10 ar   
    20    9   14 ar   
    21   10   11 ar   
    22   10  136 1    
    23   11   12 ar   
    24   11  126 1    
    25   12   13 ar   
    26   12  137 1    
    27   13   14 ar   
    28   13   15 1    
    29   14  138 1    
    30   15   16 1    
    31   15  139 1    
    32   15  140 1    
    33   16   17 1    
    34   17   18 1    
    35   17  141 1    
    36   17  142 1    
    37   18   19 1    
    38   18   67 1    
    39   18  143 1    
    40   19   20 am   BACKBONE|DICT|INTERRES
    41   19  144 1    
    42   20   21 2    
    43   20   22 1    
    44   22   23 1    
    45   22   24 1    
    46   22  145 1    
    47   23  146 1    
    48   23  147 1    
    49   23  148 1    
    50   24   25 am   BACKBONE|DICT|INTERRES
    51   24  149 1    
    52   25   26 2    
    53   25   27 1    
    54   27   28 1    
    55   27   29 1    
    56   27  150 1    
    57   28  151 1    
    58   28  152 1    
    59   28  153 1    
    60   29   30 am   BACKBONE|DICT|INTERRES
    61   29  154 1    
    62   30   31 2    
    63   30   32 1    
    64   32   33 1    
    65   32   34 1    
    66   32  155 1    
    67   33  156 1    
    68   33  157 1    
    69   33  158 1    
    70   34   35 am   BACKBONE|DICT|INTERRES
    71   34  159 1    
    72   35   36 2    
    73   35   37 1    
    74   37   38 1    
    75   37   39 1    
    76   37  160 1    
    77   38  161 1    
    78   38  162 1    
    79   38  163 1    
    80   39   40 am   BACKBONE|DICT|INTERRES
    81   39  164 1    
    82   40   41 2    
    83   40   42 1    
    84   42   43 1    
    85   42   44 1    
    86   42  165 1    
    87   43  166 1    
    88   43  167 1    
    89   43  168 1    
    90   44   45 am   BACKBONE|DICT|INTERRES
    91   44  169 1    
    92   45   46 2    
    93   45   47 1    
    94   47   48 1    
    95   47   49 1    
    96   47  170 1    
    97   48  171 1    
    98   48  172 1    
    99   48  173 1    
   100   49   50 am   BACKBONE|DICT|INTERRES
   101   49  174 1    
   102   50   51 2    
   103   50   52 1    
   104   52   53 1    
   105   52   54 1    
   106   52  175 1    
   107   53  176 1    
   108   53  177 1    
   109   53  178 1    
   110   54   55 am   BACKBONE|DICT|INTERRES
   111   54  179 1    
   112   55   56 2    
   113   55   57 1    
   114   57   58 1    
   115   57   59 1    
   116   57  180 1    
   117   58  181 1    
   118   58  182 1    
   119   58  183 1    
   120   59   60 am   BACKBONE|DICT|INTERRES
   121   59  184 1    
   122   60   61 2    
   123   60   62 1    
   124   62   63 1    
   125   62   64 1    
   126   62  185 1    
   127   63  186 1    
   128   63  187 1    
   129   63  188 1    
   130   64   65 am   BACKBONE|DICT|INTERRES
   131   64  189 1    
   132   65   66 2    
   133   67   68 2    
   134   67   69 am   BACKBONE|DICT|INTERRES
   135   69   70 1    
   136   69  190 1    
   137   70   71 1    
   138   70   72 1    
   139   70  191 1    
   140   71  192 1    
   141   71  193 1    
   142   71  194 1    
   143   72   73 2    
   144   72   74 am   BACKBONE|DICT|INTERRES
   145   74   75 1    
   146   74  195 1    
   147   75   76 1    
   148   75   77 1    
   149   75  196 1    
   150   76  197 1    
   151   76  198 1    
   152   76  199 1    
   153   77   78 2    
   154   77   79 am   BACKBONE|DICT|INTERRES
   155   79   80 1    
   156   79  200 1    
   157   80   81 1    
   158   80   82 1    
   159   80  201 1    
   160   81  202 1    
   161   81  203 1    
   162   81  204 1    
   163   82   83 2    
   164   82   84 am   BACKBONE|DICT|INTERRES
   165   84   85 1    
   166   84  205 1    
   167   85   86 1    
   168   85   87 1    
   169   85  206 1    
   170   86  207 1    
   171   86  208 1    
   172   86  209 1    
   173   87   88 2    
   174   87   89 am   BACKBONE|DICT|INTERRES
   175   89   90 1    
   176   89  210 1    
   177   90   91 1    
   178   90   92 1    
   179   90  211 1    
   180   91  212 1    
   181   91  213 1    
   182   91  214 1    
   183   92   93 2    
   184   92   94 am   BACKBONE|DICT|INTERRES
   185   94   95 1    
   186   94  215 1    
   187   95   96 1    
   188   95   97 1    
   189   95  216 1    
   190   96  217 1    
   191   96  218 1    
   192   96  219 1    
   193   97   98 2    
   194   97   99 am   BACKBONE|DICT|INTERRES
   195   99  100 1    
   196   99  220 1    
   197  100  101 1    
   198  100  102 1    
   199  100  221 1    
   200  101  222 1    
   201  101  223 1    
   202  101  224 1    
   203  102  103 2    
   204  102  104 am   BACKBONE|DICT|INTERRES
   205  104  105 1    
   206  104  225 1    
   207  105  106 1    
   208  105  107 1    
   209  105  226 1    
   210  106  227 1    
   211  106  228 1    
   212  106  229 1    
   213  107  108 2    
   214  107  109 am   BACKBONE|DICT|INTERRES
   215  109  110 1    
   216  109  230 1    
   217  110  111 1    
   218  110  112 1    
   219  110  231 1    
   220  111  232 1    
   221  111  233 1    
   222  111  234 1    
   223  112  113 2    
   224  112  114 am   BACKBONE|DICT|INTERRES
   225  114  115 1    
   226  114  235 1    
   227  115  116 1    
   228  115  117 1    
   229  115  236 1    
   230  116  237 1    
   231  116  238 1    
   232  116  239 1    
   233  117  118 2    
   234  117  119 am   BACKBONE|DICT|INTERRES
   235  119  120 1    
   236  119  240 1    
   237  120  121 1    
   238  120  124 1    
   239  120  241 1    
   240  121  122 am   BACKBONE|DICT|INTERRES
   241  121  123 2    
   242  122  242 1    
   243  122  243 1    
   244  124  125 1    
   245  124  244 1    
   246  124  245 1    
   247  125  126 1    
   248  126  246 1    
   249  126  247 1    
@<TRIPOS>SUBSTRUCTURE
     1 UNK         1 GROUP             0       ****    0 ROOT    
