@<TRIPOS>MOLECULE
3R540
247   249    1
SMALL
USER_CHARGES


@<TRIPOS>ATOM
      1 CA         -1.7178  -11.6756  -52.1059 C.3       0 UNK        -0.1800 
      2 C          -0.6806  -11.5153  -51.0032 C.2       0 UNK         0.5000 
      3 O           0.0126  -10.4982  -50.9600 O.2       0 UNK        -0.5000 
      4 N          -0.5671  -12.5147  -50.1188 N.am      1 UNK        -0.5000 
      5 CA          0.3195  -12.5111  -48.9519 C.3       1 UNK         0.1400 
      6 C6          0.6030  -13.9614  -48.4541 C.3       23 UNK        -0.0398 
      7 S7         -0.3533  -14.6214  -47.0363 S.3       23 UNK        -0.2404 
      8 C8         -2.0158  -14.8841  -47.7355 C.3       23 UNK        -0.0205 
      9 C9         -2.0283  -15.8180  -48.9390 C.ar      23 UNK        -0.0193 
     10 C10        -2.4151  -15.3356  -50.1938 C.ar      23 UNK        -0.1150 
     11 C11        -2.4386  -16.1806  -51.3065 C.ar      23 UNK        -0.0193 
     12 C12        -2.0994  -17.5246  -51.1496 C.ar      23 UNK        -0.1150 
     13 C13        -1.7371  -18.0289  -49.8993 C.ar      23 UNK        -0.0193 
     14 C14        -1.6900  -17.1685  -48.7978 C.ar      23 UNK        -0.1150 
     15 C15        -1.4150  -19.5067  -49.7549 C.3       23 UNK        -0.0205 
     16 S16        -2.8808  -20.4470  -49.2224 S.3       23 UNK        -0.2404 
     17 C17        -2.5520  -20.6464  -47.4434 C.3       23 UNK        -0.0398 
     18 CA         -1.9421  -22.0426  -47.1322 C.3       11 UNK         0.1400 
     19 N          -0.5979  -21.9654  -46.5515 N.am      11 UNK        -0.5000 
     20 C           0.2053  -23.0192  -46.3399 C.2       10 UNK         0.5000 
     21 O          -0.0794  -24.1692  -46.6686 O.2       10 UNK        -0.5000 
     22 CA          1.5182  -22.7605  -45.5779 C.3       10 UNK         0.1400 
     23 CB          2.6100  -22.2346  -46.5205 C.3       10 UNK        -0.1800 
     24 N           1.3350  -21.8370  -44.4579 N.am      10 UNK        -0.5000 
     25 C           0.5563  -22.0843  -43.3944 C.2       9 UNK         0.5000 
     26 O          -0.0197  -23.1554  -43.2043 O.2       9 UNK        -0.5000 
     27 CA          0.3294  -20.9192  -42.4152 C.3       9 UNK         0.1400 
     28 CB          1.4678  -20.8253  -41.3883 C.3       9 UNK        -0.1800 
     29 N           0.1796  -19.6410  -43.1123 N.am      9 UNK        -0.5000 
     30 C          -0.8599  -19.3266  -43.8989 C.2       8 UNK         0.5000 
     31 O          -1.8301  -20.0633  -44.0788 O.2       8 UNK        -0.5000 
     32 CA         -0.7705  -17.9900  -44.6551 C.3       8 UNK         0.1400 
     33 CB         -1.2201  -16.8271  -43.7643 C.3       8 UNK        -0.1800 
     34 N           0.5790  -17.7323  -45.1608 N.am      8 UNK        -0.5000 
     35 C           1.1414  -18.4274  -46.1611 C.2       7 UNK         0.5000 
     36 O           0.5615  -19.3273  -46.7641 O.2       7 UNK        -0.5000 
     37 CA          2.6060  -18.1134  -46.5223 C.3       7 UNK         0.1400 
     38 CB          2.6715  -17.0070  -47.5834 C.3       7 UNK        -0.1800 
     39 N           3.4161  -17.7204  -45.3712 N.am      7 UNK        -0.5000 
     40 C           3.6187  -18.4640  -44.2748 C.2       6 UNK         0.5000 
     41 O           3.2276  -19.6253  -44.1608 O.2       6 UNK        -0.5000 
     42 CA          4.3249  -17.7790  -43.0866 C.3       6 UNK         0.1400 
     43 CB          5.7933  -18.2218  -43.0088 C.3       6 UNK        -0.1800 
     44 N           4.2662  -16.3115  -43.1195 N.am      6 UNK        -0.5000 
     45 C           3.1435  -15.5796  -43.0854 C.2       5 UNK         0.5000 
     46 O           2.0109  -16.0655  -43.0393 O.2       5 UNK        -0.5000 
     47 CA          3.3255  -14.0581  -43.2259 C.3       5 UNK         0.1400 
     48 CB          3.3985  -13.6776  -44.7146 C.3       5 UNK        -0.1800 
     49 N           2.2347  -13.3069  -42.6101 N.am      5 UNK        -0.5000 
     50 C           1.9858  -13.2194  -41.2958 C.2       4 UNK         0.5000 
     51 O           2.7005  -13.7268  -40.4302 O.2       4 UNK        -0.5000 
     52 CA          0.7416  -12.4079  -40.8749 C.3       4 UNK         0.1400 
     53 CB          1.1585  -11.0519  -40.2844 C.3       4 UNK        -0.1800 
     54 N          -0.1699  -12.1673  -41.9950 N.am      4 UNK        -0.5000 
     55 C          -1.0507  -13.0500  -42.4784 C.2       3 UNK         0.5000 
     56 O          -1.3070  -14.1196  -41.9276 O.2       3 UNK        -0.5000 
     57 CA         -1.7246  -12.7109  -43.8240 C.3       3 UNK         0.1400 
     58 CB         -3.0749  -12.0004  -43.6139 C.3       3 UNK        -0.1800 
     59 N          -0.8638  -11.9817  -44.7712 N.am      3 UNK        -0.5000 
     60 C          -0.4220  -10.7158  -44.7129 C.2       2 UNK         0.5000 
     61 O          -0.6642   -9.9594  -43.7722 O.2       2 UNK        -0.5000 
     62 CA          0.4896  -10.2126  -45.8541 C.3       2 UNK         0.1400 
     63 CB          1.8518   -9.7668  -45.2959 C.3       2 UNK        -0.1800 
     64 N           0.7246  -11.1792  -46.9325 N.am      2 UNK        -0.5000 
     65 C          -0.1743  -11.5289  -47.8619 C.2       1 UNK         0.5000 
     66 O          -1.3405  -11.1258  -47.8628 O.2       1 UNK        -0.5000 
     67 C          -2.8947  -22.8916  -46.2697 C.2       11 UNK         0.5000 
     68 O          -3.6040  -23.7380  -46.8123 O.2       11 UNK        -0.5000 
     69 N          -2.8692  -22.6800  -44.9462 N.am      12 UNK        -0.5000 
     70 CA         -3.6396  -23.4545  -43.9724 C.3       12 UNK         0.1400 
     71 CB         -3.5040  -22.8226  -42.5791 C.3       12 UNK        -0.1800 
     72 C          -3.2411  -24.9422  -43.9529 C.2       12 UNK         0.5000 
     73 O          -4.1213  -25.8029  -43.9721 O.2       12 UNK        -0.5000 
     74 N          -1.9292  -25.2196  -43.9775 N.am      13 UNK        -0.5000 
     75 CA         -1.3614  -26.5682  -44.0704 C.3       13 UNK         0.1400 
     76 CB          0.1611  -26.4961  -43.8806 C.3       13 UNK        -0.1800 
     77 C          -1.7150  -27.2852  -45.3892 C.2       13 UNK         0.5000 
     78 O          -1.9604  -28.4916  -45.3798 O.2       13 UNK        -0.5000 
     79 N          -1.7771  -26.5227  -46.4887 N.am      14 UNK        -0.5000 
     80 CA         -2.2074  -26.9717  -47.8141 C.3       14 UNK         0.1400 
     81 CB         -1.6390  -26.0082  -48.8714 C.3       14 UNK        -0.1800 
     82 C          -3.7392  -27.0896  -47.9638 C.2       14 UNK         0.5000 
     83 O          -4.2005  -27.4454  -49.0480 O.2       14 UNK        -0.5000 
     84 N          -4.5067  -26.7571  -46.9136 N.am      15 UNK        -0.5000 
     85 CA         -5.9740  -26.7290  -46.8648 C.3       15 UNK         0.1400 
     86 CB         -6.5495  -28.1582  -46.9453 C.3       15 UNK        -0.1800 
     87 C          -6.5864  -25.7680  -47.9078 C.2       15 UNK         0.5000 
     88 O          -7.6119  -26.0773  -48.5163 O.2       15 UNK        -0.5000 
     89 N          -5.9144  -24.6246  -48.1024 N.am      16 UNK        -0.5000 
     90 CA         -6.2067  -23.5413  -49.0431 C.3       16 UNK         0.1400 
     91 CB         -7.5880  -22.9128  -48.7686 C.3       16 UNK        -0.1800 
     92 C          -6.0085  -23.9061  -50.5289 C.2       16 UNK         0.5000 
     93 O          -6.3714  -23.1044  -51.3886 O.2       16 UNK        -0.5000 
     94 N          -5.3930  -25.0595  -50.8365 N.am      17 UNK        -0.5000 
     95 CA         -5.0780  -25.4708  -52.2116 C.3       17 UNK         0.1400 
     96 CB         -4.5953  -26.9279  -52.2188 C.3       17 UNK        -0.1800 
     97 C          -4.0370  -24.5564  -52.8885 C.2       17 UNK         0.5000 
     98 O          -4.0857  -24.3624  -54.1036 O.2       17 UNK        -0.5000 
     99 N          -3.1395  -23.9786  -52.0786 N.am      18 UNK        -0.5000 
    100 CA        -2.1139  -23.0254  -52.5000 C.3       18 UNK         0.1400 
    101 CB        -1.0129  -22.9777  -51.4289 C.3       18 UNK        -0.1800 
    102 C         -2.6591  -21.6135  -52.8019 C.2       18 UNK         0.5000 
    103 O         -1.9128  -20.7954  -53.3425 O.2       18 UNK        -0.5000 
    104 N         -3.9348  -21.3389  -52.4816 N.am      19 UNK        -0.5000 
    105 CA        -4.5897  -20.0478  -52.7218 C.3       19 UNK         0.1400 
    106 CB        -5.9621  -20.0183  -52.0355 C.3       19 UNK        -0.1800 
    107 C         -4.7235  -19.7072  -54.2171 C.2       19 UNK         0.5000 
    108 O         -4.6791  -18.5323  -54.5812 O.2       19 UNK        -0.5000 
    109 N         -4.8532  -20.7457  -55.0540 N.am      20 UNK        -0.5000 
    110 CA        -4.8801  -20.6407  -56.5119 C.3       20 UNK         0.1400 
    111 CB        -5.4601  -21.9408  -57.0897 C.3       20 UNK        -0.1800 
    112 C         -3.4923  -20.3541  -57.1184 C.2       20 UNK         0.5000 
    113 O         -3.4202  -19.7952  -58.2136 O.2       20 UNK        -0.5000 
    114 N         -2.4229  -20.7466  -56.4118 N.am      21 UNK        -0.5000 
    115 CA        -1.0375  -20.5271  -56.8186 C.3       21 UNK         0.1400 
    116 CB        -0.1454  -21.6431  -56.2487 C.3       21 UNK        -0.1800 
    117 C         -0.5523  -19.1383  -56.3761 C.2       21 UNK         0.5000 
    118 O         -0.0980  -18.3608  -57.2161 O.2       21 UNK        -0.5000 
    119 N         -0.6754  -18.8498  -55.0716 N.am      22 UNK        -0.5000 
    120 CA        -0.2763  -17.5809  -54.4354 C.3       22 UNK         0.1400 
    121 C          1.2529  -17.2667  -54.5129 C.2       22 UNK         0.5000 
    122 N          2.1161  -18.2715  -54.6090 N.am      22 UNK        -0.7600 
    123 O          1.6743  -16.1143  -54.4715 O.2       22 UNK        -0.5000 
    124 C124       -1.1989  -16.4076  -54.8756 C.3       23 UNK        -0.0398 
    125 S125       -1.3897  -15.0920  -53.6197 S.3       23 UNK        -0.2404 
    126 C126       -2.8436  -15.6458  -52.6714 C.3       23 UNK        -0.0205 
    127 H127       -1.2248  -11.7794  -53.0724 H         1 UNK         0.0600 
    128 H128       -2.3650  -10.7995  -52.1436 H         1 UNK         0.0600 
    129 H129       -2.3461  -12.5515  -51.9488 H         1 UNK         0.0600 
    130 H130       -1.1616  -13.3242  -50.2079 H         1 UNK         0.3000 
    131 H131        1.2741  -12.1135  -49.3047 H         1 UNK         0.0600 
    132 H132        1.6456  -13.9993  -48.1371 H         1 UNK         0.0800 
    133 H133        0.5493  -14.6739  -49.2788 H         1 UNK         0.0800 
    134 H134       -2.4475  -13.9147  -47.9897 H         1 UNK         0.0800 
    135 H135       -2.6555  -15.3045  -46.9584 H         1 UNK         0.0800 
    136 H136       -2.7129  -14.3038  -50.3059 H         1 UNK         0.1150 
    137 H137       -2.1241  -18.1848  -52.0028 H         1 UNK         0.1150 
    138 H138       -1.4017  -17.5504  -47.8298 H         1 UNK         0.1150 
    139 H139       -1.0757  -19.9055  -50.7117 H         1 UNK         0.0800 
    140 H140       -0.5847  -19.6536  -49.0646 H         1 UNK         0.0800 
    141 H141       -3.4962  -20.4768  -46.9216 H         1 UNK         0.0800 
    142 H142       -1.9071  -19.8397  -47.1018 H         1 UNK         0.0800 
    143 H143       -1.8212  -22.5961  -48.0652 H         1 UNK         0.0600 
    144 H144       -0.2536  -21.0385  -46.3215 H         1 UNK         0.3000 
    145 H145        1.8586  -23.7130  -45.1667 H         1 UNK         0.0600 
    146 H146        3.5395  -22.0447  -45.9833 H         1 UNK         0.0600 
    147 H147        2.8277  -22.9619  -47.3035 H         1 UNK         0.0600 
    148 H148        2.3108  -21.3097  -47.0112 H         1 UNK         0.0600 
    149 H149        1.8293  -20.9511  -44.5031 H         1 UNK         0.3000 
    150 H150       -0.5975  -21.1170  -41.8729 H         1 UNK         0.0600 
    151 H151        1.5567  -21.7540  -40.8234 H         1 UNK         0.0600 
    152 H152        1.2865  -20.0250  -40.6706 H         1 UNK         0.0600 
    153 H153        2.4315  -20.6392  -41.8619 H         1 UNK         0.0600 
    154 H154        0.9526  -18.9944  -43.0533 H         1 UNK         0.3000 
    155 H155       -1.4524  -18.0389  -45.5056 H         1 UNK         0.0600 
    156 H156       -0.6020  -16.7376  -42.8704 H         1 UNK         0.0600 
    157 H157       -2.2521  -16.9594  -43.4377 H         1 UNK         0.0600 
    158 H158       -1.1663  -15.8822  -44.3024 H         1 UNK         0.0600 
    159 H159        1.1235  -17.0345  -44.6660 H         1 UNK         0.3000 
    160 H160        3.0437  -19.0194  -46.9446 H         1 UNK         0.0600 
    161 H161        2.3498  -16.0500  -47.1745 H         1 UNK         0.0600 
    162 H162        2.0283  -17.2362  -48.4346 H         1 UNK         0.0600 
    163 H163        3.6855  -16.8848  -47.9643 H         1 UNK         0.0600 
    164 H164        3.7831  -16.7813  -45.3774 H         1 UNK         0.3000 
    165 H165        3.8181  -18.1105  -42.1780 H         1 UNK         0.0600 
    166 H166        6.2812  -17.8185  -42.1212 H         1 UNK         0.0600 
    167 H167        5.8716  -19.3086  -42.9543 H         1 UNK         0.0600 
    168 H168        6.3589  -17.8953  -43.8824 H         1 UNK         0.0600 
    169 H169        5.1549  -15.8349  -43.1789 H         1 UNK         0.3000 
    170 H170        4.2591  -13.7698  -42.7384 H         1 UNK         0.0600 
    171 H171        4.1966  -14.2199  -45.2230 H         1 UNK         0.0600 
    172 H172        2.4661  -13.9022  -45.2352 H         1 UNK         0.0600 
    173 H173        3.6076  -12.6158  -44.8393 H         1 UNK         0.0600 
    174 H174        1.5659  -12.8905  -43.2380 H         1 UNK         0.3000 
    175 H175        0.2192  -12.9754  -40.1020 H         1 UNK         0.0600 
    176 H176        1.6865  -10.4396  -41.0166 H         1 UNK         0.0600 
    177 H177        0.2909  -10.4890  -39.9398 H         1 UNK         0.0600 
    178 H178        1.8202  -11.1844  -39.4274 H         1 UNK         0.0600 
    179 H179       -0.0875  -11.2788  -42.4798 H         1 UNK         0.3000 
    180 H180       -1.9399  -13.6631  -44.3097 H         1 UNK         0.0600 
    181 H181       -3.5664  -11.7997  -44.5659 H         1 UNK         0.0600 
    182 H182       -2.9630  -11.0532  -43.0860 H         1 UNK         0.0600 
    183 H183       -3.7500  -12.6211  -43.0236 H         1 UNK         0.0600 
    184 H184       -0.5839  -12.5190  -45.5805 H         1 UNK         0.3000 
    185 H185        0.0001   -9.3372  -46.2859 H         1 UNK         0.0600 
    186 H186        2.4947   -9.3754  -46.0845 H         1 UNK         0.0600 
    187 H187        1.7336   -8.9732  -44.5570 H         1 UNK         0.0600 
    188 H188        2.3765  -10.5886  -44.8091 H         1 UNK         0.0600 
    189 H189        1.6584  -11.5589  -46.9884 H         1 UNK         0.3000 
    190 H190       -2.2943  -21.9263  -44.5820 H         1 UNK         0.3000 
    191 H191       -4.6900  -23.3983  -44.2657 H         1 UNK         0.0600 
    192 H192       -4.1177  -23.3532  -41.8502 H         1 UNK         0.0600 
    193 H193       -3.8305  -21.7825  -42.5848 H         1 UNK         0.0600 
    194 H194       -2.4756  -22.8472  -42.2200 H         1 UNK         0.0600 
    195 H195       -1.2672  -24.4505  -43.9155 H         1 UNK         0.3000 
    196 H196       -1.7775  -27.1593  -43.2520 H         1 UNK         0.0600 
    197 H197        0.6366  -25.9038  -44.6624 H         1 UNK         0.0600 
    198 H198        0.4180  -26.0490  -42.9201 H         1 UNK         0.0600 
    199 H199        0.6057  -27.4917  -43.9062 H         1 UNK         0.0600 
    200 H200       -1.4853  -25.5525  -46.4196 H         1 UNK         0.3000 
    201 H201       -1.7886  -27.9628  -47.9989 H         1 UNK         0.0600 
    202 H202       -2.0391  -25.0012  -48.7530 H         1 UNK         0.0600 
    203 H203       -1.8793  -26.3409  -49.8818 H         1 UNK         0.0600 
    204 H204       -0.5528  -25.9457  -48.8043 H         1 UNK         0.0600 
    205 H205       -4.0430  -26.4422  -46.0702 H         1 UNK         0.3000 
    206 H206       -6.2377  -26.3223  -45.8876 H         1 UNK         0.0600 
    207 H207       -6.1045  -28.8043  -46.1885 H         1 UNK         0.0600 
    208 H208       -7.6268  -28.1558  -46.7759 H         1 UNK         0.0600 
    209 H209       -6.3731  -28.6127  -47.9206 H         1 UNK         0.0600 
    210 H210       -5.0670  -24.4773  -47.5543 H         1 UNK         0.3000 
    211 H211       -5.4601  -22.7733  -48.8350 H         1 UNK         0.0600 
    212 H212       -7.7245  -22.0002  -49.3501 H         1 UNK         0.0600 
    213 H213       -7.6976  -22.6445  -47.7179 H         1 UNK         0.0600 
    214 H214       -8.4021  -23.5887  -49.0310 H         1 UNK         0.0600 
    215 H215       -5.1313  -25.6987  -50.0955 H         1 UNK         0.3000 
    216 H216       -5.9978  -25.4154  -52.7977 H         1 UNK         0.0600 
    217 H217       -3.6560  -27.0437  -51.6771 H         1 UNK         0.0600 
    218 H218       -4.4300  -27.2786  -53.2383 H         1 UNK         0.0600 
    219 H219       -5.3304  -27.5906  -51.7616 H         1 UNK         0.0600 
    220 H220       -3.1855  -24.1889  -51.0931 H         1 UNK         0.3000 
    221 H221       -1.6637  -23.3919  -53.4249 H         1 UNK         0.0600 
    222 H222       -0.5410  -23.9529  -51.3075 H         1 UNK         0.0600 
    223 H223       -1.4054  -22.6768  -50.4588 H         1 UNK         0.0600 
    224 H224       -0.2277  -22.2709  -51.7004 H         1 UNK         0.0600 
    225 H225       -4.5058  -22.0595  -52.0595 H         1 UNK         0.3000 
    226 H226       -3.9801  -19.2755  -52.2582 H         1 UNK         0.0600 
    227 H227       -6.6557  -20.7257  -52.4907 H         1 UNK         0.0600 
    228 H228       -5.8798  -20.2580  -50.9750 H         1 UNK         0.0600 
    229 H229       -6.4115  -19.0274  -52.1107 H         1 UNK         0.0600 
    230 H230       -4.8829  -21.6774  -54.6638 H         1 UNK         0.3000 
    231 H231       -5.5411  -19.8171  -56.7900 H         1 UNK         0.0600 
    232 H232       -4.8497  -22.8058  -56.8260 H         1 UNK         0.0600 
    233 H233       -5.5140  -21.8955  -58.1783 H         1 UNK         0.0600 
    234 H234       -6.4709  -22.1192  -56.7224 H         1 UNK         0.0600 
    235 H235       -2.5677  -21.1366  -55.4915 H         1 UNK         0.3000 
    236 H236       -0.9692  -20.5769  -57.9077 H         1 UNK         0.0600 
    237 H237       -0.4649  -22.6214  -56.6081 H         1 UNK         0.0600 
    238 H238        0.8913  -21.5069  -56.5588 H         1 UNK         0.0600 
    239 H239       -0.1597  -21.6687  -55.1592 H         1 UNK         0.0600 
    240 H240       -1.0692  -19.5530  -54.4502 H         1 UNK         0.3000 
    241 H241       -0.4448  -17.7486  -53.3746 H         1 UNK         0.0600 
    242 H242        3.1032  -18.0732  -54.6566 H         1 UNK         0.3800 
    243 H243        1.7937  -19.2252  -54.6388 H         1 UNK         0.3800 
    244 H244       -2.1931  -16.7817  -55.1239 H         1 UNK         0.0800 
    245 H245       -0.8259  -15.9577  -55.7970 H         1 UNK         0.0800 
    246 H246       -3.5246  -14.8021  -52.5516 H         1 UNK         0.0800 
    247 H247       -3.4035  -16.4041  -53.2204 H         1 UNK         0.0800 
@<TRIPOS>BOND
     1    1    2 1    
     2    1  127 1    
     3    1  128 1    
     4    1  129 1    
     5    2    3 2    
     6    2    4 am   BACKBONE|DICT|INTERRES
     7    4    5 1    
     8    4  130 1    
     9    5    6 1    
    10    5   65 1    
    11    5  131 1    
    12    6    7 1    
    13    6  132 1    
    14    6  133 1    
    15    7    8 1    
    16    8    9 1    
    17    8  134 1    
    18    8  135 1    
    19    9   10 ar   
    20    9   14 ar   
    21   10   11 ar   
    22   10  136 1    
    23   11   12 ar   
    24   11  126 1    
    25   12   13 ar   
    26   12  137 1    
    27   13   14 ar   
    28   13   15 1    
    29   14  138 1    
    30   15   16 1    
    31   15  139 1    
    32   15  140 1    
    33   16   17 1    
    34   17   18 1    
    35   17  141 1    
    36   17  142 1    
    37   18   19 1    
    38   18   67 1    
    39   18  143 1    
    40   19   20 am   BACKBONE|DICT|INTERRES
    41   19  144 1    
    42   20   21 2    
    43   20   22 1    
    44   22   23 1    
    45   22   24 1    
    46   22  145 1    
    47   23  146 1    
    48   23  147 1    
    49   23  148 1    
    50   24   25 am   BACKBONE|DICT|INTERRES
    51   24  149 1    
    52   25   26 2    
    53   25   27 1    
    54   27   28 1    
    55   27   29 1    
    56   27  150 1    
    57   28  151 1    
    58   28  152 1    
    59   28  153 1    
    60   29   30 am   BACKBONE|DICT|INTERRES
    61   29  154 1    
    62   30   31 2    
    63   30   32 1    
    64   32   33 1    
    65   32   34 1    
    66   32  155 1    
    67   33  156 1    
    68   33  157 1    
    69   33  158 1    
    70   34   35 am   BACKBONE|DICT|INTERRES
    71   34  159 1    
    72   35   36 2    
    73   35   37 1    
    74   37   38 1    
    75   37   39 1    
    76   37  160 1    
    77   38  161 1    
    78   38  162 1    
    79   38  163 1    
    80   39   40 am   BACKBONE|DICT|INTERRES
    81   39  164 1    
    82   40   41 2    
    83   40   42 1    
    84   42   43 1    
    85   42   44 1    
    86   42  165 1    
    87   43  166 1    
    88   43  167 1    
    89   43  168 1    
    90   44   45 am   BACKBONE|DICT|INTERRES
    91   44  169 1    
    92   45   46 2    
    93   45   47 1    
    94   47   48 1    
    95   47   49 1    
    96   47  170 1    
    97   48  171 1    
    98   48  172 1    
    99   48  173 1    
   100   49   50 am   BACKBONE|DICT|INTERRES
   101   49  174 1    
   102   50   51 2    
   103   50   52 1    
   104   52   53 1    
   105   52   54 1    
   106   52  175 1    
   107   53  176 1    
   108   53  177 1    
   109   53  178 1    
   110   54   55 am   BACKBONE|DICT|INTERRES
   111   54  179 1    
   112   55   56 2    
   113   55   57 1    
   114   57   58 1    
   115   57   59 1    
   116   57  180 1    
   117   58  181 1    
   118   58  182 1    
   119   58  183 1    
   120   59   60 am   BACKBONE|DICT|INTERRES
   121   59  184 1    
   122   60   61 2    
   123   60   62 1    
   124   62   63 1    
   125   62   64 1    
   126   62  185 1    
   127   63  186 1    
   128   63  187 1    
   129   63  188 1    
   130   64   65 am   BACKBONE|DICT|INTERRES
   131   64  189 1    
   132   65   66 2    
   133   67   68 2    
   134   67   69 am   BACKBONE|DICT|INTERRES
   135   69   70 1    
   136   69  190 1    
   137   70   71 1    
   138   70   72 1    
   139   70  191 1    
   140   71  192 1    
   141   71  193 1    
   142   71  194 1    
   143   72   73 2    
   144   72   74 am   BACKBONE|DICT|INTERRES
   145   74   75 1    
   146   74  195 1    
   147   75   76 1    
   148   75   77 1    
   149   75  196 1    
   150   76  197 1    
   151   76  198 1    
   152   76  199 1    
   153   77   78 2    
   154   77   79 am   BACKBONE|DICT|INTERRES
   155   79   80 1    
   156   79  200 1    
   157   80   81 1    
   158   80   82 1    
   159   80  201 1    
   160   81  202 1    
   161   81  203 1    
   162   81  204 1    
   163   82   83 2    
   164   82   84 am   BACKBONE|DICT|INTERRES
   165   84   85 1    
   166   84  205 1    
   167   85   86 1    
   168   85   87 1    
   169   85  206 1    
   170   86  207 1    
   171   86  208 1    
   172   86  209 1    
   173   87   88 2    
   174   87   89 am   BACKBONE|DICT|INTERRES
   175   89   90 1    
   176   89  210 1    
   177   90   91 1    
   178   90   92 1    
   179   90  211 1    
   180   91  212 1    
   181   91  213 1    
   182   91  214 1    
   183   92   93 2    
   184   92   94 am   BACKBONE|DICT|INTERRES
   185   94   95 1    
   186   94  215 1    
   187   95   96 1    
   188   95   97 1    
   189   95  216 1    
   190   96  217 1    
   191   96  218 1    
   192   96  219 1    
   193   97   98 2    
   194   97   99 am   BACKBONE|DICT|INTERRES
   195   99  100 1    
   196   99  220 1    
   197  100  101 1    
   198  100  102 1    
   199  100  221 1    
   200  101  222 1    
   201  101  223 1    
   202  101  224 1    
   203  102  103 2    
   204  102  104 am   BACKBONE|DICT|INTERRES
   205  104  105 1    
   206  104  225 1    
   207  105  106 1    
   208  105  107 1    
   209  105  226 1    
   210  106  227 1    
   211  106  228 1    
   212  106  229 1    
   213  107  108 2    
   214  107  109 am   BACKBONE|DICT|INTERRES
   215  109  110 1    
   216  109  230 1    
   217  110  111 1    
   218  110  112 1    
   219  110  231 1    
   220  111  232 1    
   221  111  233 1    
   222  111  234 1    
   223  112  113 2    
   224  112  114 am   BACKBONE|DICT|INTERRES
   225  114  115 1    
   226  114  235 1    
   227  115  116 1    
   228  115  117 1    
   229  115  236 1    
   230  116  237 1    
   231  116  238 1    
   232  116  239 1    
   233  117  118 2    
   234  117  119 am   BACKBONE|DICT|INTERRES
   235  119  120 1    
   236  119  240 1    
   237  120  121 1    
   238  120  124 1    
   239  120  241 1    
   240  121  122 am   BACKBONE|DICT|INTERRES
   241  121  123 2    
   242  122  242 1    
   243  122  243 1    
   244  124  125 1    
   245  124  244 1    
   246  124  245 1    
   247  125  126 1    
   248  126  246 1    
   249  126  247 1    
@<TRIPOS>SUBSTRUCTURE
     1 UNK         1 GROUP             0       ****    0 ROOT    
