@<TRIPOS>MOLECULE
3R540
247   249    1
SMALL
USER_CHARGES


@<TRIPOS>ATOM
      1 CA         -0.7062  -13.2382  -50.9979 C.3       0 UNK        -0.1800 
      2 C          -0.5762  -13.4441  -49.4969 C.2       0 UNK         0.5000 
      3 O           0.1712  -14.3121  -49.0402 O.2       0 UNK        -0.5000 
      4 N          -1.2788  -12.5995  -48.7335 N.am      1 UNK        -0.5000 
      5 CA         -1.2713  -12.5362  -47.2659 C.3       1 UNK         0.1400 
      6 C6         -2.4036  -11.6089  -46.7503 C.3       23 UNK        -0.0398 
      7 S7         -4.0222  -12.4275  -46.5485 S.3       23 UNK        -0.2404 
      8 C8         -4.5331  -12.8920  -48.2436 C.3       23 UNK        -0.0205 
      9 C9         -4.3432  -14.3739  -48.5779 C.ar      23 UNK        -0.0193 
     10 C10        -4.0945  -14.7624  -49.9007 C.ar      23 UNK        -0.1150 
     11 C11        -3.9714  -16.1153  -50.2383 C.ar      23 UNK        -0.0193 
     12 C12        -4.0902  -17.0848  -49.2386 C.ar      23 UNK        -0.1150 
     13 C13        -4.3450  -16.7165  -47.9161 C.ar      23 UNK        -0.0193 
     14 C14        -4.4771  -15.3642  -47.5959 C.ar      23 UNK        -0.1150 
     15 C15        -4.4388  -17.7718  -46.8247 C.3       23 UNK        -0.0205 
     16 S16        -5.7676  -18.9821  -47.1083 S.3       23 UNK        -0.2404 
     17 C17        -5.2837  -20.2297  -45.8650 C.3       23 UNK        -0.0398 
     18 CA         -4.5962  -21.4794  -46.4726 C.3       11 UNK         0.1400 
     19 N          -3.5600  -21.1452  -47.4587 N.am      11 UNK        -0.5000 
     20 C          -2.8996  -22.0290  -48.2164 C.2       10 UNK         0.5000 
     21 O          -3.0966  -23.2422  -48.1779 O.2       10 UNK        -0.5000 
     22 CA         -1.8218  -21.4792  -49.1644 C.3       10 UNK         0.1400 
     23 CB         -2.4675  -21.1712  -50.5198 C.3       10 UNK        -0.1800 
     24 N          -1.1047  -20.2880  -48.6958 N.am      10 UNK        -0.5000 
     25 C          -0.5258  -20.1098  -47.4994 C.2       9 UNK         0.5000 
     26 O          -0.6114  -20.9120  -46.5654 O.2       9 UNK        -0.5000 
     27 CA          0.2350  -18.7843  -47.3195 C.3       9 UNK         0.1400 
     28 CB         -0.7454  -17.6063  -47.2148 C.3       9 UNK        -0.1800 
     29 N           1.0856  -18.8062  -46.1330 N.am      9 UNK        -0.5000 
     30 C           2.2774  -19.4156  -46.0624 C.2       8 UNK         0.5000 
     31 O           2.8146  -19.9626  -47.0261 O.2       8 UNK        -0.5000 
     32 CA          2.9988  -19.4126  -44.7002 C.3       8 UNK         0.1400 
     33 CB          4.4244  -18.8469  -44.8199 C.3       8 UNK        -0.1800 
     34 N           2.2643  -18.6368  -43.6986 N.am      8 UNK        -0.5000 
     35 C           1.6314  -19.1590  -42.6391 C.2       7 UNK         0.5000 
     36 O           1.6534  -20.3558  -42.3513 O.2       7 UNK        -0.5000 
     37 CA          0.8305  -18.1924  -41.7458 C.3       7 UNK         0.1400 
     38 CB          1.6387  -17.8331  -40.4906 C.3       7 UNK        -0.1800 
     39 N           0.4161  -16.9693  -42.4416 N.am      7 UNK        -0.5000 
     40 C          -0.5651  -16.9322  -43.3564 C.2       6 UNK         0.5000 
     41 O          -1.1994  -17.9341  -43.6882 O.2       6 UNK        -0.5000 
     42 CA         -0.8707  -15.5966  -44.0677 C.3       6 UNK         0.1400 
     43 CB         -2.3813  -15.3020  -44.1465 C.3       6 UNK        -0.1800 
     44 N          -0.1258  -14.4436  -43.5676 N.am      6 UNK        -0.5000 
     45 C          -0.2412  -13.7983  -42.4009 C.2       5 UNK         0.5000 
     46 O          -1.0641  -14.0776  -41.5279 O.2       5 UNK        -0.5000 
     47 CA          0.7983  -12.6752  -42.1839 C.3       5 UNK         0.1400 
     48 CB          0.8375  -12.1562  -40.7312 C.3       5 UNK        -0.1800 
     49 N           2.1415  -13.0742  -42.6364 N.am      5 UNK        -0.5000 
     50 C           2.8416  -14.1311  -42.1950 C.2       4 UNK         0.5000 
     51 O           2.4475  -14.8778  -41.3002 O.2       4 UNK        -0.5000 
     52 CA          4.1798  -14.4212  -42.9035 C.3       4 UNK         0.1400 
     53 CB          4.7983  -15.7720  -42.4839 C.3       4 UNK        -0.1800 
     54 N           4.0861  -14.3388  -44.3646 N.am      4 UNK        -0.5000 
     55 C           3.3136  -15.0654  -45.1841 C.2       3 UNK         0.5000 
     56 O           2.4770  -15.8873  -44.8001 O.2       3 UNK        -0.5000 
     57 CA          3.5164  -14.8001  -46.6915 C.3       3 UNK         0.1400 
     58 CB          3.0041  -15.9528  -47.5697 C.3       3 UNK        -0.1800 
     59 N           2.8623  -13.5625  -47.1114 N.am      3 UNK        -0.5000 
     60 C           3.2617  -12.3211  -46.7974 C.2       2 UNK         0.5000 
     61 O           4.2996  -12.0793  -46.1790 O.2       2 UNK        -0.5000 
     62 CA          2.3523  -11.1489  -47.2244 C.3       2 UNK         0.1400 
     63 CB          2.9530  -10.4183  -48.4349 C.3       2 UNK        -0.1800 
     64 N           0.9786  -11.5418  -47.5475 N.am      2 UNK        -0.5000 
     65 C           0.0988  -12.0911  -46.6969 C.2       1 UNK         0.5000 
     66 O           0.3464  -12.2738  -45.5056 O.2       1 UNK        -0.5000 
     67 C          -4.0635  -22.3857  -45.3423 C.2       11 UNK         0.5000 
     68 O          -4.8107  -23.2211  -44.8338 O.2       11 UNK        -0.5000 
     69 N          -2.7835  -22.2094  -44.9896 N.am      12 UNK        -0.5000 
     70 CA         -2.0696  -23.0118  -44.0025 C.3       12 UNK         0.1400 
     71 CB         -1.2378  -22.0753  -43.1122 C.3       12 UNK        -0.1800 
     72 C          -1.1641  -24.0458  -44.6901 C.2       12 UNK         0.5000 
     73 O          -1.1339  -25.2013  -44.2669 O.2       12 UNK        -0.5000 
     74 N          -0.4410  -23.6156  -45.7337 N.am      13 UNK        -0.5000 
     75 CA          0.5875  -24.4040  -46.4137 C.3       13 UNK         0.1400 
     76 CB          1.4599  -23.4627  -47.2586 C.3       13 UNK        -0.1800 
     77 C           0.0392  -25.5491  -47.2844 C.2       13 UNK         0.5000 
     78 O           0.7241  -26.5613  -47.4379 O.2       13 UNK        -0.5000 
     79 N          -1.1616  -25.3712  -47.8485 N.am      14 UNK        -0.5000 
     80 CA         -1.7878  -26.3038  -48.7879 C.3       14 UNK         0.1400 
     81 CB         -1.6034  -25.7629  -50.2181 C.3       14 UNK        -0.1800 
     82 C          -3.2736  -26.5446  -48.4667 C.2       14 UNK         0.5000 
     83 O          -3.9918  -27.0709  -49.3168 O.2       14 UNK        -0.5000 
     84 N          -3.7312  -26.1205  -47.2774 N.am      15 UNK        -0.5000 
     85 CA         -5.1195  -26.1806  -46.7934 C.3       15 UNK         0.1400 
     86 CB         -5.5125  -27.6413  -46.4900 C.3       15 UNK        -0.1800 
     87 C          -6.1369  -25.4761  -47.7247 C.2       15 UNK         0.5000 
     88 O          -7.2996  -25.8786  -47.7818 O.2       15 UNK        -0.5000 
     89 N          -5.6622  -24.4615  -48.4645 N.am      16 UNK        -0.5000 
     90 CA         -6.3420  -23.7069  -49.5240 C.3       16 UNK         0.1400 
     91 CB         -7.5826  -22.9665  -48.9803 C.3       16 UNK        -0.1800 
     92 C          -6.6708  -24.5290  -50.7918 C.2       16 UNK         0.5000 
     93 O          -7.3645  -24.0134  -51.6696 O.2       16 UNK        -0.5000 
     94 N          -6.1666  -25.7690  -50.9006 N.am      17 UNK        -0.5000 
     95 CA         -6.3993  -26.6518  -52.0486 C.3       17 UNK         0.1400 
     96 CB         -6.0723  -28.1014  -51.6596 C.3       17 UNK        -0.1800 
     97 C          -5.5934  -26.2293  -53.2905 C.2       17 UNK         0.5000 
     98 O          -6.0569  -26.4292  -54.4138 O.2       17 UNK        -0.5000 
     99 N          -4.4197  -25.6299  -53.0609 N.am      18 UNK        -0.5000 
    100 CA        -3.5652  -25.0186  -54.0722 C.3       18 UNK         0.1400 
    101 CB        -2.2122  -25.7516  -54.1155 C.3       18 UNK        -0.1800 
    102 C         -3.4272  -23.5341  -53.7118 C.2       18 UNK         0.5000 
    103 O         -2.3712  -23.1019  -53.2504 O.2       18 UNK        -0.5000 
    104 N         -4.5243  -22.7843  -53.8899 N.am      19 UNK        -0.5000 
    105 CA        -4.6764  -21.3707  -53.5198 C.3       19 UNK         0.1400 
    106 CB        -6.0809  -20.8976  -53.9213 C.3       19 UNK        -0.1800 
    107 C         -3.6036  -20.4251  -54.0986 C.2       19 UNK         0.5000 
    108 O         -3.2818  -19.4181  -53.4719 O.2       19 UNK        -0.5000 
    109 N         -3.0380  -20.7864  -55.2575 N.am      20 UNK        -0.5000 
    110 CA        -1.9492  -20.0754  -55.9295 C.3       20 UNK         0.1400 
    111 CB        -1.7854  -20.6619  -57.3409 C.3       20 UNK        -0.1800 
    112 C         -0.6004  -20.0983  -55.1753 C.2       20 UNK         0.5000 
    113 O          0.2965  -19.3405  -55.5453 O.2       20 UNK        -0.5000 
    114 N         -0.4603  -20.9550  -54.1516 N.am      21 UNK        -0.5000 
    115 CA         0.7589  -21.1097  -53.3532 C.3       21 UNK         0.1400 
    116 CB         0.7065  -22.4568  -52.6109 C.3       21 UNK        -0.1800 
    117 C          1.0385  -19.9520  -52.3693 C.2       21 UNK         0.5000 
    118 O          2.1112  -19.9437  -51.7633 O.2       21 UNK        -0.5000 
    119 N          0.0933  -19.0150  -52.1964 N.am      22 UNK        -0.5000 
    120 CA         0.2676  -17.8141  -51.3629 C.3       22 UNK         0.1400 
    121 C          1.2878  -16.7768  -51.9254 C.2       22 UNK         0.5000 
    122 N          1.6681  -15.7769  -51.1409 N.am      22 UNK        -0.7600 
    123 O          1.7456  -16.8614  -53.0629 O.2       22 UNK        -0.5000 
    124 C124       -1.0935  -17.2003  -50.9419 C.3       23 UNK        -0.0398 
    125 S125       -2.0347  -16.3600  -52.2597 S.3       23 UNK        -0.2404 
    126 C126       -3.7565  -16.5464  -51.6853 C.3       23 UNK        -0.0205 
    127 H127       -1.7395  -13.0323  -51.2768 H         1 UNK         0.0600 
    128 H128       -0.3824  -14.1193  -51.5455 H         1 UNK         0.0600 
    129 H129       -0.0872  -12.3999  -51.3166 H         1 UNK         0.0600 
    130 H130       -1.8528  -11.9066  -49.1907 H         1 UNK         0.3000 
    131 H131       -1.4415  -13.5468  -46.8877 H         1 UNK         0.0600 
    132 H132       -2.5184  -10.7307  -47.3875 H         1 UNK         0.0800 
    133 H133       -2.1649  -11.2147  -45.7602 H         1 UNK         0.0800 
    134 H134       -4.0221  -12.2605  -48.9703 H         1 UNK         0.0800 
    135 H135       -5.5951  -12.6663  -48.3460 H         1 UNK         0.0800 
    136 H136       -4.0139  -14.0134  -50.6757 H         1 UNK         0.1150 
    137 H137       -3.9991  -18.1316  -49.4907 H         1 UNK         0.1150 
    138 H138       -4.6883  -15.0870  -46.5735 H         1 UNK         0.1150 
    139 H139       -3.4865  -18.2944  -46.7640 H         1 UNK         0.0800 
    140 H140       -4.5988  -17.3081  -45.8505 H         1 UNK         0.0800 
    141 H141       -6.1861  -20.5300  -45.3294 H         1 UNK         0.0800 
    142 H142       -4.6421  -19.7580  -45.1178 H         1 UNK         0.0800 
    143 H143       -5.3582  -22.0503  -47.0023 H         1 UNK         0.0600 
    144 H144       -3.3482  -20.1666  -47.5689 H         1 UNK         0.3000 
    145 H145       -1.0831  -22.2696  -49.3081 H         1 UNK         0.0600 
    146 H146       -1.7276  -20.8979  -51.2688 H         1 UNK         0.0600 
    147 H147       -2.9947  -22.0480  -50.8960 H         1 UNK         0.0600 
    148 H148       -3.1897  -20.3567  -50.4517 H         1 UNK         0.0600 
    149 H149       -0.9737  -19.5735  -49.3927 H         1 UNK         0.3000 
    150 H150        0.8677  -18.6340  -48.1953 H         1 UNK         0.0600 
    151 H151       -1.4390  -17.5831  -48.0534 H         1 UNK         0.0600 
    152 H152       -0.2260  -16.6498  -47.2138 H         1 UNK         0.0600 
    153 H153       -1.3407  -17.6647  -46.3058 H         1 UNK         0.0600 
    154 H154        0.6798  -18.4566  -45.2778 H         1 UNK         0.3000 
    155 H155        3.0805  -20.4570  -44.3933 H         1 UNK         0.0600 
    156 H156        4.4242  -17.8158  -45.1704 H         1 UNK         0.0600 
    157 H157        5.0216  -19.4309  -45.5211 H         1 UNK         0.0600 
    158 H158        4.9385  -18.8726  -43.8590 H         1 UNK         0.0600 
    159 H159        2.2065  -17.6366  -43.8716 H         1 UNK         0.3000 
    160 H160       -0.0707  -18.7169  -41.4207 H         1 UNK         0.0600 
    161 H161        2.6127  -17.4146  -40.7447 H         1 UNK         0.0600 
    162 H162        1.8178  -18.7184  -39.8795 H         1 UNK         0.0600 
    163 H163        1.1104  -17.1093  -39.8697 H         1 UNK         0.0600 
    164 H164        0.9235  -16.1213  -42.2166 H         1 UNK         0.3000 
    165 H165       -0.5139  -15.7216  -45.0887 H         1 UNK         0.0600 
    166 H166       -2.8351  -15.2367  -43.1576 H         1 UNK         0.0600 
    167 H167       -2.5739  -14.3652  -44.6682 H         1 UNK         0.0600 
    168 H168       -2.9024  -16.0881  -44.6917 H         1 UNK         0.0600 
    169 H169        0.5848  -14.0968  -44.1996 H         1 UNK         0.3000 
    170 H170        0.4893  -11.8443  -42.8194 H         1 UNK         0.0600 
    171 H171       -0.1299  -11.7472  -40.4379 H         1 UNK         0.0600 
    172 H172        1.0853  -12.9467  -40.0223 H         1 UNK         0.0600 
    173 H173        1.5736  -11.3605  -40.6171 H         1 UNK         0.0600 
    174 H174        2.5254  -12.5342  -43.3992 H         1 UNK         0.3000 
    175 H175        4.8666  -13.6330  -42.5923 H         1 UNK         0.0600 
    176 H176        4.1395  -16.6087  -42.7158 H         1 UNK         0.0600 
    177 H177        5.7489  -15.9453  -42.9879 H         1 UNK         0.0600 
    178 H178        4.9910  -15.7975  -41.4108 H         1 UNK         0.0600 
    179 H179        4.6567  -13.6208  -44.7981 H         1 UNK         0.3000 
    180 H180        4.5895  -14.7049  -46.8704 H         1 UNK         0.0600 
    181 H181        1.9267  -16.0762  -47.4802 H         1 UNK         0.0600 
    182 H182        3.4705  -16.8975  -47.2904 H         1 UNK         0.0600 
    183 H183        3.2338  -15.7783  -48.6206 H         1 UNK         0.0600 
    184 H184        1.9928  -13.6694  -47.6175 H         1 UNK         0.3000 
    185 H185        2.3107  -10.4506  -46.3861 H         1 UNK         0.0600 
    186 H186        2.9982  -11.0648  -49.3123 H         1 UNK         0.0600 
    187 H187        2.3666   -9.5371  -48.6957 H         1 UNK         0.0600 
    188 H188        3.9683  -10.0794  -48.2241 H         1 UNK         0.0600 
    189 H189        0.6962  -11.4338  -48.5102 H         1 UNK         0.3000 
    190 H190       -2.2268  -21.5298  -45.4965 H         1 UNK         0.3000 
    191 H191       -2.7733  -23.5496  -43.3636 H         1 UNK         0.0600 
    192 H192       -0.6698  -22.6382  -42.3705 H         1 UNK         0.0600 
    193 H193       -1.8759  -21.3757  -42.5722 H         1 UNK         0.0600 
    194 H194       -0.5261  -21.4899  -43.6963 H         1 UNK         0.0600 
    195 H195       -0.5132  -22.6394  -46.0117 H         1 UNK         0.3000 
    196 H196        1.2242  -24.8534  -45.6485 H         1 UNK         0.0600 
    197 H197        0.8828  -22.9715  -48.0420 H         1 UNK         0.0600 
    198 H198        1.9137  -22.6864  -46.6423 H         1 UNK         0.0600 
    199 H199        2.2710  -24.0084  -47.7423 H         1 UNK         0.0600 
    200 H200       -1.6671  -24.5053  -47.6919 H         1 UNK         0.3000 
    201 H201       -1.3090  -27.2829  -48.7268 H         1 UNK         0.0600 
    202 H202       -2.1154  -24.8100  -50.3590 H         1 UNK         0.0600 
    203 H203       -1.9988  -26.4641  -50.9534 H         1 UNK         0.0600 
    204 H204       -0.5493  -25.6127  -50.4517 H         1 UNK         0.0600 
    205 H205       -3.0665  -25.6950  -46.6478 H         1 UNK         0.3000 
    206 H206       -5.1412  -25.6341  -45.8508 H         1 UNK         0.0600 
    207 H207       -4.7891  -28.1140  -45.8257 H         1 UNK         0.0600 
    208 H208       -6.4839  -27.6927  -45.9970 H         1 UNK         0.0600 
    209 H209       -5.5746  -28.2402  -47.3992 H         1 UNK         0.0600 
    210 H210       -4.6846  -24.2125  -48.3311 H         1 UNK         0.3000 
    211 H211       -5.6266  -22.9479  -49.8441 H         1 UNK         0.0600 
    212 H212       -7.9741  -22.2673  -49.7199 H         1 UNK         0.0600 
    213 H213       -7.3495  -22.3880  -48.0878 H         1 UNK         0.0600 
    214 H214       -8.3891  -23.6559  -48.7302 H         1 UNK         0.0600 
    215 H215       -5.5792  -26.1378  -50.1592 H         1 UNK         0.3000 
    216 H216       -7.4594  -26.6051  -52.3069 H         1 UNK         0.0600 
    217 H217       -5.0089  -28.2367  -51.4604 H         1 UNK         0.0600 
    218 H218       -6.3426  -28.7886  -52.4621 H         1 UNK         0.0600 
    219 H219       -6.6226  -28.4065  -50.7693 H         1 UNK         0.0600 
    220 H220       -4.1407  -25.4901  -52.1005 H         1 UNK         0.3000 
    221 H221       -4.0181  -25.0794  -55.0638 H         1 UNK         0.0600 
    222 H222       -2.3444  -26.8070  -54.3534 H         1 UNK         0.0600 
    223 H223       -1.6803  -25.6865  -53.1667 H         1 UNK         0.0600 
    224 H224       -1.5643  -25.3230  -54.8811 H         1 UNK         0.0600 
    225 H225       -5.3522  -23.2354  -54.2523 H         1 UNK         0.3000 
    226 H226       -4.6072  -21.3113  -52.4334 H         1 UNK         0.0600 
    227 H227       -6.2373  -20.9710  -54.9982 H         1 UNK         0.0600 
    228 H228       -6.8522  -21.4892  -53.4273 H         1 UNK         0.0600 
    229 H229       -6.2398  -19.8566  -53.6358 H         1 UNK         0.0600 
    230 H230       -3.3559  -21.6388  -55.6938 H         1 UNK         0.3000 
    231 H231       -2.2437  -19.0283  -56.0261 H         1 UNK         0.0600 
    232 H232       -1.5044  -21.7153  -57.3072 H         1 UNK         0.0600 
    233 H233       -1.0110  -20.1335  -57.8986 H         1 UNK         0.0600 
    234 H234       -2.7090  -20.5774  -57.9139 H         1 UNK         0.0600 
    235 H235       -1.2341  -21.5656  -53.9077 H         1 UNK         0.3000 
    236 H236        1.6055  -21.1467  -54.0418 H         1 UNK         0.0600 
    237 H237        0.5557  -23.2844  -53.3044 H         1 UNK         0.0600 
    238 H238        1.6384  -22.6482  -52.0777 H         1 UNK         0.0600 
    239 H239       -0.0990  -22.4872  -51.8779 H         1 UNK         0.0600 
    240 H240       -0.7468  -19.0580  -52.7571 H         1 UNK         0.3000 
    241 H241        0.7322  -18.1674  -50.4422 H         1 UNK         0.0600 
    242 H242        2.3350  -15.1163  -51.5058 H         1 UNK         0.3800 
    243 H243        1.2436  -15.5956  -50.2392 H         1 UNK         0.3800 
    244 H244       -0.9489  -16.4835  -50.1338 H         1 UNK         0.0800 
    245 H245       -1.7213  -17.9886  -50.5291 H         1 UNK         0.0800 
    246 H246       -4.0623  -17.5850  -51.8135 H         1 UNK         0.0800 
    247 H247       -4.4071  -15.9620  -52.3371 H         1 UNK         0.0800 
@<TRIPOS>BOND
     1    1    2 1    
     2    1  127 1    
     3    1  128 1    
     4    1  129 1    
     5    2    3 2    
     6    2    4 am   BACKBONE|DICT|INTERRES
     7    4    5 1    
     8    4  130 1    
     9    5    6 1    
    10    5   65 1    
    11    5  131 1    
    12    6    7 1    
    13    6  132 1    
    14    6  133 1    
    15    7    8 1    
    16    8    9 1    
    17    8  134 1    
    18    8  135 1    
    19    9   10 ar   
    20    9   14 ar   
    21   10   11 ar   
    22   10  136 1    
    23   11   12 ar   
    24   11  126 1    
    25   12   13 ar   
    26   12  137 1    
    27   13   14 ar   
    28   13   15 1    
    29   14  138 1    
    30   15   16 1    
    31   15  139 1    
    32   15  140 1    
    33   16   17 1    
    34   17   18 1    
    35   17  141 1    
    36   17  142 1    
    37   18   19 1    
    38   18   67 1    
    39   18  143 1    
    40   19   20 am   BACKBONE|DICT|INTERRES
    41   19  144 1    
    42   20   21 2    
    43   20   22 1    
    44   22   23 1    
    45   22   24 1    
    46   22  145 1    
    47   23  146 1    
    48   23  147 1    
    49   23  148 1    
    50   24   25 am   BACKBONE|DICT|INTERRES
    51   24  149 1    
    52   25   26 2    
    53   25   27 1    
    54   27   28 1    
    55   27   29 1    
    56   27  150 1    
    57   28  151 1    
    58   28  152 1    
    59   28  153 1    
    60   29   30 am   BACKBONE|DICT|INTERRES
    61   29  154 1    
    62   30   31 2    
    63   30   32 1    
    64   32   33 1    
    65   32   34 1    
    66   32  155 1    
    67   33  156 1    
    68   33  157 1    
    69   33  158 1    
    70   34   35 am   BACKBONE|DICT|INTERRES
    71   34  159 1    
    72   35   36 2    
    73   35   37 1    
    74   37   38 1    
    75   37   39 1    
    76   37  160 1    
    77   38  161 1    
    78   38  162 1    
    79   38  163 1    
    80   39   40 am   BACKBONE|DICT|INTERRES
    81   39  164 1    
    82   40   41 2    
    83   40   42 1    
    84   42   43 1    
    85   42   44 1    
    86   42  165 1    
    87   43  166 1    
    88   43  167 1    
    89   43  168 1    
    90   44   45 am   BACKBONE|DICT|INTERRES
    91   44  169 1    
    92   45   46 2    
    93   45   47 1    
    94   47   48 1    
    95   47   49 1    
    96   47  170 1    
    97   48  171 1    
    98   48  172 1    
    99   48  173 1    
   100   49   50 am   BACKBONE|DICT|INTERRES
   101   49  174 1    
   102   50   51 2    
   103   50   52 1    
   104   52   53 1    
   105   52   54 1    
   106   52  175 1    
   107   53  176 1    
   108   53  177 1    
   109   53  178 1    
   110   54   55 am   BACKBONE|DICT|INTERRES
   111   54  179 1    
   112   55   56 2    
   113   55   57 1    
   114   57   58 1    
   115   57   59 1    
   116   57  180 1    
   117   58  181 1    
   118   58  182 1    
   119   58  183 1    
   120   59   60 am   BACKBONE|DICT|INTERRES
   121   59  184 1    
   122   60   61 2    
   123   60   62 1    
   124   62   63 1    
   125   62   64 1    
   126   62  185 1    
   127   63  186 1    
   128   63  187 1    
   129   63  188 1    
   130   64   65 am   BACKBONE|DICT|INTERRES
   131   64  189 1    
   132   65   66 2    
   133   67   68 2    
   134   67   69 am   BACKBONE|DICT|INTERRES
   135   69   70 1    
   136   69  190 1    
   137   70   71 1    
   138   70   72 1    
   139   70  191 1    
   140   71  192 1    
   141   71  193 1    
   142   71  194 1    
   143   72   73 2    
   144   72   74 am   BACKBONE|DICT|INTERRES
   145   74   75 1    
   146   74  195 1    
   147   75   76 1    
   148   75   77 1    
   149   75  196 1    
   150   76  197 1    
   151   76  198 1    
   152   76  199 1    
   153   77   78 2    
   154   77   79 am   BACKBONE|DICT|INTERRES
   155   79   80 1    
   156   79  200 1    
   157   80   81 1    
   158   80   82 1    
   159   80  201 1    
   160   81  202 1    
   161   81  203 1    
   162   81  204 1    
   163   82   83 2    
   164   82   84 am   BACKBONE|DICT|INTERRES
   165   84   85 1    
   166   84  205 1    
   167   85   86 1    
   168   85   87 1    
   169   85  206 1    
   170   86  207 1    
   171   86  208 1    
   172   86  209 1    
   173   87   88 2    
   174   87   89 am   BACKBONE|DICT|INTERRES
   175   89   90 1    
   176   89  210 1    
   177   90   91 1    
   178   90   92 1    
   179   90  211 1    
   180   91  212 1    
   181   91  213 1    
   182   91  214 1    
   183   92   93 2    
   184   92   94 am   BACKBONE|DICT|INTERRES
   185   94   95 1    
   186   94  215 1    
   187   95   96 1    
   188   95   97 1    
   189   95  216 1    
   190   96  217 1    
   191   96  218 1    
   192   96  219 1    
   193   97   98 2    
   194   97   99 am   BACKBONE|DICT|INTERRES
   195   99  100 1    
   196   99  220 1    
   197  100  101 1    
   198  100  102 1    
   199  100  221 1    
   200  101  222 1    
   201  101  223 1    
   202  101  224 1    
   203  102  103 2    
   204  102  104 am   BACKBONE|DICT|INTERRES
   205  104  105 1    
   206  104  225 1    
   207  105  106 1    
   208  105  107 1    
   209  105  226 1    
   210  106  227 1    
   211  106  228 1    
   212  106  229 1    
   213  107  108 2    
   214  107  109 am   BACKBONE|DICT|INTERRES
   215  109  110 1    
   216  109  230 1    
   217  110  111 1    
   218  110  112 1    
   219  110  231 1    
   220  111  232 1    
   221  111  233 1    
   222  111  234 1    
   223  112  113 2    
   224  112  114 am   BACKBONE|DICT|INTERRES
   225  114  115 1    
   226  114  235 1    
   227  115  116 1    
   228  115  117 1    
   229  115  236 1    
   230  116  237 1    
   231  116  238 1    
   232  116  239 1    
   233  117  118 2    
   234  117  119 am   BACKBONE|DICT|INTERRES
   235  119  120 1    
   236  119  240 1    
   237  120  121 1    
   238  120  124 1    
   239  120  241 1    
   240  121  122 am   BACKBONE|DICT|INTERRES
   241  121  123 2    
   242  122  242 1    
   243  122  243 1    
   244  124  125 1    
   245  124  244 1    
   246  124  245 1    
   247  125  126 1    
   248  126  246 1    
   249  126  247 1    
@<TRIPOS>SUBSTRUCTURE
     1 UNK         1 GROUP             0       ****    0 ROOT    
