@<TRIPOS>MOLECULE
3R540
247   249    1
SMALL
USER_CHARGES


@<TRIPOS>ATOM
      1 CA          4.1465  -12.3690  -46.2534 C.3       0 UNK        -0.1800 
      2 C           2.8976  -12.9216  -46.9356 C.2       0 UNK         0.5000 
      3 O           1.8765  -12.2413  -46.9590 O.2       0 UNK        -0.5000 
      4 N           2.9200  -14.1309  -47.5141 N.am      1 UNK        -0.5000 
      5 CA          4.0543  -15.0589  -47.5605 C.3       1 UNK         0.1400 
      6 C6          3.9281  -16.0599  -48.7341 C.3       23 UNK        -0.0398 
      7 S7          5.5559  -16.5879  -49.3657 S.3       23 UNK        -0.2404 
      8 C8          5.1781  -16.8894  -51.1272 C.3       23 UNK        -0.0205 
      9 C9          4.0507  -17.8957  -51.3340 C.ar      23 UNK        -0.0193 
     10 C10         3.0280  -17.6300  -52.2491 C.ar      23 UNK        -0.1150 
     11 C11         1.9842  -18.5423  -52.4383 C.ar      23 UNK        -0.0193 
     12 C12         1.9526  -19.7168  -51.6774 C.ar      23 UNK        -0.1150 
     13 C13         2.9665  -19.9904  -50.7529 C.ar      23 UNK        -0.0193 
     14 C14         4.0257  -19.0919  -50.6132 C.ar      23 UNK        -0.1150 
     15 C15         2.9220  -21.2484  -49.8954 C.3       23 UNK        -0.0205 
     16 S16         3.0671  -20.8887  -48.1075 S.3       23 UNK        -0.2404 
     17 C17         1.5812  -19.8730  -47.7978 C.3       23 UNK        -0.0398 
     18 CA          0.4257  -20.6890  -47.1729 C.3       11 UNK         0.1400 
     19 N          -0.5836  -19.8370  -46.5394 N.am      11 UNK        -0.5000 
     20 C          -1.5737  -20.2960  -45.7604 C.2       10 UNK         0.5000 
     21 O          -1.7022  -21.4769  -45.4424 O.2       10 UNK        -0.5000 
     22 CA         -2.6216  -19.2753  -45.2896 C.3       10 UNK         0.1400 
     23 CB         -2.1368  -18.5695  -44.0189 C.3       10 UNK        -0.1800 
     24 N          -2.9473  -18.2850  -46.3152 N.am      10 UNK        -0.5000 
     25 C          -3.5493  -18.5710  -47.4780 C.2       9 UNK         0.5000 
     26 O          -3.9818  -19.6847  -47.7769 O.2       9 UNK        -0.5000 
     27 CA         -3.6242  -17.4366  -48.5130 C.3       9 UNK         0.1400 
     28 CB         -4.8762  -16.5733  -48.2997 C.3       9 UNK        -0.1800 
     29 N          -2.4296  -16.5913  -48.5252 N.am      9 UNK        -0.5000 
     30 C          -1.2048  -17.0204  -48.8663 C.2       8 UNK         0.5000 
     31 O          -0.9655  -18.1800  -49.2004 O.2       8 UNK        -0.5000 
     32 CA         -0.0464  -16.0074  -48.7758 C.3       8 UNK         0.1400 
     33 CB          0.2677  -15.4004  -50.1499 C.3       8 UNK        -0.1800 
     34 N          -0.3141  -14.9271  -47.8235 N.am      8 UNK        -0.5000 
     35 C          -0.2964  -15.0801  -46.4927 C.2       7 UNK         0.5000 
     36 O           0.0574  -16.1293  -45.9553 O.2       7 UNK        -0.5000 
     37 CA         -0.7050  -13.8663  -45.6275 C.3       7 UNK         0.1400 
     38 CB         -1.4338  -12.7568  -46.4208 C.3       7 UNK        -0.1800 
     39 N          -1.5042  -14.2284  -44.4555 N.am      7 UNK        -0.5000 
     40 C          -2.6647  -14.8943  -44.4353 C.2       6 UNK         0.5000 
     41 O          -3.1656  -15.4260  -45.4282 O.2       6 UNK        -0.5000 
     42 CA         -3.3836  -14.9585  -43.0691 C.3       6 UNK         0.1400 
     43 CB         -4.7916  -15.5753  -43.1674 C.3       6 UNK        -0.1800 
     44 N          -2.6120  -15.6831  -42.0565 N.am      6 UNK        -0.5000 
     45 C          -1.5296  -15.2188  -41.4190 C.2       5 UNK         0.5000 
     46 O          -1.0795  -14.0836  -41.5990 O.2       5 UNK        -0.5000 
     47 CA         -0.8583  -16.1681  -40.4069 C.3       5 UNK         0.1400 
     48 CB         -0.8159  -17.6303  -40.8899 C.3       5 UNK        -0.1800 
     49 N           0.5112  -15.7311  -40.1610 N.am      5 UNK        -0.5000 
     50 C           1.0659  -15.5060  -38.9642 C.2       4 UNK         0.5000 
     51 O           0.4659  -15.6508  -37.8979 O.2       4 UNK        -0.5000 
     52 CA          2.5464  -15.0662  -38.9366 C.3       4 UNK         0.1400 
     53 CB          3.4313  -16.1945  -38.3825 C.3       4 UNK        -0.1800 
     54 N           3.0639  -14.6744  -40.2489 N.am      4 UNK        -0.5000 
     55 C           2.7968  -13.5162  -40.8661 C.2       3 UNK         0.5000 
     56 O           2.1518  -12.6025  -40.3512 O.2       3 UNK        -0.5000 
     57 CA          3.3323  -13.3508  -42.3040 C.3       3 UNK         0.1400 
     58 CB          4.6209  -12.5131  -42.2922 C.3       3 UNK        -0.1800 
     59 N           3.5880  -14.6074  -43.0224 N.am      3 UNK        -0.5000 
     60 C           2.6744  -15.5479  -43.3020 C.2       2 UNK         0.5000 
     61 O           1.5056  -15.4965  -42.9220 O.2       2 UNK        -0.5000 
     62 CA          3.1483  -16.7035  -44.1967 C.3       2 UNK         0.1400 
     63 CB          2.2499  -17.9506  -44.0922 C.3       2 UNK        -0.1800 
     64 N           3.1612  -16.2151  -45.5740 N.am      2 UNK        -0.5000 
     65 C           4.2581  -15.7723  -46.2066 C.2       1 UNK         0.5000 
     66 O           5.3903  -15.8403  -45.7275 O.2       1 UNK        -0.5000 
     67 C          -0.2193  -21.6409  -48.1986 C.2       11 UNK         0.5000 
     68 O           0.0551  -22.8385  -48.1673 O.2       11 UNK        -0.5000 
     69 N          -1.0962  -21.1030  -49.0567 N.am      12 UNK        -0.5000 
     70 CA         -1.8556  -21.8640  -50.0493 C.3       12 UNK         0.1400 
     71 CB         -2.6400  -20.8871  -50.9304 C.3       12 UNK        -0.1800 
     72 C          -2.7901  -22.9189  -49.4239 C.2       12 UNK         0.5000 
     73 O          -2.8967  -24.0297  -49.9506 O.2       12 UNK        -0.5000 
     74 N          -3.4158  -22.5663  -48.2918 N.am      13 UNK        -0.5000 
     75 CA         -4.2261  -23.4703  -47.4793 C.3       13 UNK         0.1400 
     76 CB         -5.0031  -22.6677  -46.4252 C.3       13 UNK        -0.1800 
     77 C          -3.3817  -24.5777  -46.8215 C.2       13 UNK         0.5000 
     78 O          -3.7630  -25.7455  -46.8933 O.2       13 UNK        -0.5000 
     79 N          -2.2358  -24.2073  -46.2297 N.am      14 UNK        -0.5000 
     80 CA         -1.2787  -25.1269  -45.6037 C.3       14 UNK         0.1400 
     81 CB         -0.2085  -24.3239  -44.8492 C.3       14 UNK        -0.1800 
     82 C          -0.6230  -26.0967  -46.6054 C.2       14 UNK         0.5000 
     83 O          -0.4077  -27.2627  -46.2731 O.2       14 UNK        -0.5000 
     84 N          -0.3608  -25.6103  -47.8256 N.am      15 UNK        -0.5000 
     85 CA          0.1136  -26.3891  -48.9717 C.3       15 UNK         0.1400 
     86 CB          0.6368  -25.4200  -50.0448 C.3       15 UNK        -0.1800 
     87 C          -0.9596  -27.3236  -49.5698 C.2       15 UNK         0.5000 
     88 O          -0.6227  -28.1588  -50.4099 O.2       15 UNK        -0.5000 
     89 N          -2.2196  -27.1648  -49.1368 N.am      16 UNK        -0.5000 
     90 CA         -3.4120  -27.9083  -49.5467 C.3       16 UNK         0.1400 
     91 CB         -3.2970  -29.3987  -49.1627 C.3       16 UNK        -0.1800 
     92 C          -3.7893  -27.6851  -51.0245 C.2       16 UNK         0.5000 
     93 O          -4.3433  -28.5857  -51.6582 O.2       16 UNK        -0.5000 
     94 N          -3.5051  -26.4823  -51.5446 N.am      17 UNK        -0.5000 
     95 CA         -3.9502  -26.0397  -52.8642 C.3       17 UNK         0.1400 
     96 CB         -3.0538  -24.8894  -53.3562 C.3       17 UNK        -0.1800 
     97 C          -5.4299  -25.6289  -52.7914 C.2       17 UNK         0.5000 
     98 O          -6.2733  -26.2551  -53.4332 O.2       17 UNK        -0.5000 
     99 N          -5.6950  -24.6185  -51.9570 N.am      18 UNK        -0.5000 
    100 CA        -6.9766  -24.0260  -51.5802 C.3       18 UNK         0.1400 
    101 CB        -7.8789  -23.7219  -52.7965 C.3       18 UNK        -0.1800 
    102 C         -6.6541  -22.7204  -50.8419 C.2       18 UNK         0.5000 
    103 O         -5.5730  -22.1586  -51.0376 O.2       18 UNK        -0.5000 
    104 N         -7.5960  -22.2306  -50.0292 N.am      19 UNK        -0.5000 
    105 CA        -7.4974  -20.9185  -49.3920 C.3       19 UNK         0.1400 
    106 CB        -8.6446  -20.7459  -48.3851 C.3       19 UNK        -0.1800 
    107 C         -7.5069  -19.8046  -50.4560 C.2       19 UNK         0.5000 
    108 O         -8.4768  -19.6934  -51.2086 O.2       19 UNK        -0.5000 
    109 N         -6.4103  -19.0381  -50.5093 N.am      20 UNK        -0.5000 
    110 CA        -6.1411  -17.9567  -51.4638 C.3       20 UNK         0.1400 
    111 CB        -7.1739  -16.8167  -51.3305 C.3       20 UNK        -0.1800 
    112 C         -5.9504  -18.4357  -52.9195 C.2       20 UNK         0.5000 
    113 O         -6.2336  -17.6774  -53.8501 O.2       20 UNK        -0.5000 
    114 N         -5.4065  -19.6520  -53.1071 N.am      21 UNK        -0.5000 
    115 CA        -5.0551  -20.2102  -54.4249 C.3       21 UNK         0.1400 
    116 CB        -4.5910  -21.6677  -54.2800 C.3       21 UNK        -0.1800 
    117 C         -3.9875  -19.3995  -55.1932 C.2       21 UNK         0.5000 
    118 O         -3.8727  -19.5547  -56.4096 O.2       21 UNK        -0.5000 
    119 N         -3.2462  -18.5414  -54.4789 N.am      22 UNK        -0.5000 
    120 CA        -2.3161  -17.5436  -55.0298 C.3       22 UNK         0.1400 
    121 C         -2.9851  -16.4701  -55.9420 C.2       22 UNK         0.5000 
    122 N         -4.2930  -16.2460  -55.8610 N.am      22 UNK        -0.7600 
    123 O         -2.3016  -15.8272  -56.7340 O.2       22 UNK        -0.5000 
    124 C124       -1.5015  -16.8311  -53.9174 C.3       23 UNK        -0.0398 
    125 S125       -0.7128  -17.9527  -52.7133 S.3       23 UNK        -0.2404 
    126 C126        0.9076  -18.2619  -53.4790 C.3       23 UNK        -0.0205 
    127 H127        4.5267  -13.0567  -45.5008 H         1 UNK         0.0600 
    128 H128        3.9216  -11.4268  -45.7533 H         1 UNK         0.0600 
    129 H129        4.9313  -12.1789  -46.9853 H         1 UNK         0.0600 
    130 H130        2.0785  -14.4475  -47.9709 H         1 UNK         0.3000 
    131 H131        4.9459  -14.4557  -47.7437 H         1 UNK         0.0600 
    132 H132        3.3978  -15.5895  -49.5634 H         1 UNK         0.0800 
    133 H133        3.3403  -16.9396  -48.4647 H         1 UNK         0.0800 
    134 H134        4.9362  -15.9364  -51.6002 H         1 UNK         0.0800 
    135 H135        6.0757  -17.2620  -51.6220 H         1 UNK         0.0800 
    136 H136        3.0487  -16.7139  -52.8226 H         1 UNK         0.1150 
    137 H137        1.1340  -20.4115  -51.8048 H         1 UNK         0.1150 
    138 H138        4.8163  -19.3097  -49.9090 H         1 UNK         0.1150 
    139 H139        2.0073  -21.8131  -50.0794 H         1 UNK         0.0800 
    140 H140        3.7461  -21.8997  -50.1888 H         1 UNK         0.0800 
    141 H141        1.2691  -19.3686  -48.7122 H         1 UNK         0.0800 
    142 H142        1.8809  -19.0788  -47.1130 H         1 UNK         0.0800 
    143 H143        0.8488  -21.3072  -46.3777 H         1 UNK         0.0600 
    144 H144       -0.5728  -18.8560  -46.7778 H         1 UNK         0.3000 
    145 H145       -3.5330  -19.8258  -45.0476 H         1 UNK         0.0600 
    146 H146       -1.7947  -19.2914  -43.2762 H         1 UNK         0.0600 
    147 H147       -1.3118  -17.8856  -44.2225 H         1 UNK         0.0600 
    148 H148       -2.9446  -18.0018  -43.5649 H         1 UNK         0.0600 
    149 H149       -2.6831  -17.3227  -46.1312 H         1 UNK         0.3000 
    150 H150       -3.6928  -17.9078  -49.4939 H         1 UNK         0.0600 
    151 H151       -4.9863  -15.8351  -49.0941 H         1 UNK         0.0600 
    152 H152       -4.8441  -16.0395  -47.3502 H         1 UNK         0.0600 
    153 H153       -5.7789  -17.1852  -48.2958 H         1 UNK         0.0600 
    154 H154       -2.5423  -15.6406  -48.2058 H         1 UNK         0.3000 
    155 H155        0.8369  -16.5546  -48.4407 H         1 UNK         0.0600 
    156 H156        0.6237  -16.1686  -50.8360 H         1 UNK         0.0600 
    157 H157        1.0497  -14.6440  -50.0858 H         1 UNK         0.0600 
    158 H158       -0.6116  -14.9371  -50.5991 H         1 UNK         0.0600 
    159 H159       -0.6057  -14.0384  -48.2065 H         1 UNK         0.3000 
    160 H160        0.2224  -13.4496  -45.2342 H         1 UNK         0.0600 
    161 H161       -0.8066  -12.3463  -47.2124 H         1 UNK         0.0600 
    162 H162       -1.6974  -11.9237  -45.7691 H         1 UNK         0.0600 
    163 H163       -2.3549  -13.1207  -46.8778 H         1 UNK         0.0600 
    164 H164       -1.1337  -13.9317  -43.5572 H         1 UNK         0.3000 
    165 H165       -3.5087  -13.9278  -42.7305 H         1 UNK         0.0600 
    166 H166       -5.2996  -15.5545  -42.2031 H         1 UNK         0.0600 
    167 H167       -5.4113  -15.0160  -43.8696 H         1 UNK         0.0600 
    168 H168       -4.7663  -16.6091  -43.5111 H         1 UNK         0.0600 
    169 H169       -2.9167  -16.6240  -41.8583 H         1 UNK         0.3000 
    170 H170       -1.4472  -16.1176  -39.4892 H         1 UNK         0.0600 
    171 H171       -0.2830  -18.2610  -40.1781 H         1 UNK         0.0600 
    172 H172       -1.8160  -18.0507  -40.9955 H         1 UNK         0.0600 
    173 H173       -0.3073  -17.7164  -41.8510 H         1 UNK         0.0600 
    174 H174        1.0392  -15.5177  -41.0023 H         1 UNK         0.3000 
    175 H175        2.6209  -14.2111  -38.2615 H         1 UNK         0.0600 
    176 H176        3.3963  -17.0811  -39.0169 H         1 UNK         0.0600 
    177 H177        4.4714  -15.8779  -38.3029 H         1 UNK         0.0600 
    178 H178        3.1075  -16.4925  -37.3844 H         1 UNK         0.0600 
    179 H179        3.6094  -15.3637  -40.7445 H         1 UNK         0.3000 
    180 H180        2.5732  -12.8036  -42.8669 H         1 UNK         0.0600 
    181 H181        4.9605  -12.2852  -43.3016 H         1 UNK         0.0600 
    182 H182        5.4299  -13.0298  -41.7744 H         1 UNK         0.0600 
    183 H183        4.4638  -11.5602  -41.7850 H         1 UNK         0.0600 
    184 H184        4.5242  -14.7307  -43.3824 H         1 UNK         0.3000 
    185 H185        4.1496  -16.9959  -43.8736 H         1 UNK         0.0600 
    186 H186        1.2195  -17.7471  -44.3794 H         1 UNK         0.0600 
    187 H187        2.6200  -18.7551  -44.7275 H         1 UNK         0.0600 
    188 H188        2.2305  -18.3278  -43.0692 H         1 UNK         0.0600 
    189 H189        2.2467  -16.0784  -45.9865 H         1 UNK         0.3000 
    190 H190       -1.2336  -20.0959  -49.0464 H         1 UNK         0.3000 
    191 H191       -1.1388  -22.3917  -50.6813 H         1 UNK         0.0600 
    192 H192       -3.3753  -20.3227  -50.3578 H         1 UNK         0.0600 
    193 H193       -3.1722  -21.4260  -51.7096 H         1 UNK         0.0600 
    194 H194       -1.9750  -20.1785  -51.4198 H         1 UNK         0.0600 
    195 H195       -3.3289  -21.6098  -47.9660 H         1 UNK         0.3000 
    196 H196       -4.9523  -23.9504  -48.1389 H         1 UNK         0.0600 
    197 H197       -5.6406  -23.3219  -45.8295 H         1 UNK         0.0600 
    198 H198       -5.6474  -21.9228  -46.8908 H         1 UNK         0.0600 
    199 H199       -4.3351  -22.1471  -45.7394 H         1 UNK         0.0600 
    200 H200       -2.0079  -23.2180  -46.1752 H         1 UNK         0.3000 
    201 H201       -1.8264  -25.7282  -44.8752 H         1 UNK         0.0600 
    202 H202       -0.6565  -23.7006  -44.0753 H         1 UNK         0.0600 
    203 H203        0.3529  -23.6730  -45.5199 H         1 UNK         0.0600 
    204 H204        0.5059  -24.9869  -44.3596 H         1 UNK         0.0600 
    205 H205       -0.4808  -24.6117  -47.9820 H         1 UNK         0.3000 
    206 H206        0.9440  -27.0153  -48.6400 H         1 UNK         0.0600 
    207 H207        1.4380  -24.7926  -49.6536 H         1 UNK         0.0600 
    208 H208        1.0383  -25.9611  -50.9024 H         1 UNK         0.0600 
    209 H209       -0.1539  -24.7642  -50.4109 H         1 UNK         0.0600 
    210 H210       -2.3891  -26.4432  -48.4471 H         1 UNK         0.3000 
    211 H211       -4.2362  -27.4895  -48.9683 H         1 UNK         0.0600 
    212 H212       -2.5437  -29.9155  -49.7576 H         1 UNK         0.0600 
    213 H213       -4.2446  -29.9161  -49.3164 H         1 UNK         0.0600 
    214 H214       -3.0330  -29.5146  -48.1114 H         1 UNK         0.0600 
    215 H215       -3.0918  -25.7763  -50.9427 H         1 UNK         0.3000 
    216 H216       -3.8569  -26.8648  -53.5737 H         1 UNK         0.0600 
    217 H217       -3.3749  -24.5402  -54.3382 H         1 UNK         0.0600 
    218 H218       -2.0178  -25.2150  -53.4500 H         1 UNK         0.0600 
    219 H219       -3.0706  -24.0331  -52.6816 H         1 UNK         0.0600 
    220 H220       -4.9131  -24.1589  -51.5032 H         1 UNK         0.3000 
    221 H221       -7.4872  -24.7048  -50.8953 H         1 UNK         0.0600 
    222 H222       -7.3526  -23.1602  -53.5673 H         1 UNK         0.0600 
    223 H223       -8.2630  -24.6345  -53.2505 H         1 UNK         0.0600 
    224 H224       -8.7492  -23.1328  -52.5045 H         1 UNK         0.0600 
    225 H225       -8.4767  -22.7152  -49.9368 H         1 UNK         0.3000 
    226 H226       -6.5551  -20.8766  -48.8413 H         1 UNK         0.0600 
    227 H227       -8.6039  -21.5088  -47.6075 H         1 UNK         0.0600 
    228 H228       -8.5850  -19.7751  -47.8913 H         1 UNK         0.0600 
    229 H229       -9.6202  -20.8095  -48.8688 H         1 UNK         0.0600 
    230 H230       -5.6610  -19.2567  -49.8677 H         1 UNK         0.3000 
    231 H231       -5.1764  -17.5376  -51.1813 H         1 UNK         0.0600 
    232 H232       -8.1549  -17.1099  -51.7048 H         1 UNK         0.0600 
    233 H233       -7.2906  -16.5053  -50.2928 H         1 UNK         0.0600 
    234 H234       -6.8610  -15.9388  -51.8969 H         1 UNK         0.0600 
    235 H235       -5.2407  -20.2469  -52.3047 H         1 UNK         0.3000 
    236 H236       -5.9655  -20.2045  -55.0276 H         1 UNK         0.0600 
    237 H237       -3.5905  -21.7350  -53.8555 H         1 UNK         0.0600 
    238 H238       -5.2647  -22.2483  -53.6554 H         1 UNK         0.0600 
    239 H239       -4.5547  -22.1569  -55.2540 H         1 UNK         0.0600 
    240 H240       -3.3815  -18.5118  -53.4806 H         1 UNK         0.3000 
    241 H241       -1.6103  -18.0879  -55.6598 H         1 UNK         0.0600 
    242 H242       -4.7126  -15.5506  -56.4575 H         1 UNK         0.3800 
    243 H243       -4.8749  -16.7656  -55.2143 H         1 UNK         0.3800 
    244 H244       -0.7401  -16.1830  -54.3545 H         1 UNK         0.0800 
    245 H245       -2.1557  -16.1697  -53.3463 H         1 UNK         0.0800 
    246 H246        1.1973  -17.4091  -54.0939 H         1 UNK         0.0800 
    247 H247        0.8245  -19.1127  -54.1563 H         1 UNK         0.0800 
@<TRIPOS>BOND
     1    1    2 1    
     2    1  127 1    
     3    1  128 1    
     4    1  129 1    
     5    2    3 2    
     6    2    4 am   BACKBONE|DICT|INTERRES
     7    4    5 1    
     8    4  130 1    
     9    5    6 1    
    10    5   65 1    
    11    5  131 1    
    12    6    7 1    
    13    6  132 1    
    14    6  133 1    
    15    7    8 1    
    16    8    9 1    
    17    8  134 1    
    18    8  135 1    
    19    9   10 ar   
    20    9   14 ar   
    21   10   11 ar   
    22   10  136 1    
    23   11   12 ar   
    24   11  126 1    
    25   12   13 ar   
    26   12  137 1    
    27   13   14 ar   
    28   13   15 1    
    29   14  138 1    
    30   15   16 1    
    31   15  139 1    
    32   15  140 1    
    33   16   17 1    
    34   17   18 1    
    35   17  141 1    
    36   17  142 1    
    37   18   19 1    
    38   18   67 1    
    39   18  143 1    
    40   19   20 am   BACKBONE|DICT|INTERRES
    41   19  144 1    
    42   20   21 2    
    43   20   22 1    
    44   22   23 1    
    45   22   24 1    
    46   22  145 1    
    47   23  146 1    
    48   23  147 1    
    49   23  148 1    
    50   24   25 am   BACKBONE|DICT|INTERRES
    51   24  149 1    
    52   25   26 2    
    53   25   27 1    
    54   27   28 1    
    55   27   29 1    
    56   27  150 1    
    57   28  151 1    
    58   28  152 1    
    59   28  153 1    
    60   29   30 am   BACKBONE|DICT|INTERRES
    61   29  154 1    
    62   30   31 2    
    63   30   32 1    
    64   32   33 1    
    65   32   34 1    
    66   32  155 1    
    67   33  156 1    
    68   33  157 1    
    69   33  158 1    
    70   34   35 am   BACKBONE|DICT|INTERRES
    71   34  159 1    
    72   35   36 2    
    73   35   37 1    
    74   37   38 1    
    75   37   39 1    
    76   37  160 1    
    77   38  161 1    
    78   38  162 1    
    79   38  163 1    
    80   39   40 am   BACKBONE|DICT|INTERRES
    81   39  164 1    
    82   40   41 2    
    83   40   42 1    
    84   42   43 1    
    85   42   44 1    
    86   42  165 1    
    87   43  166 1    
    88   43  167 1    
    89   43  168 1    
    90   44   45 am   BACKBONE|DICT|INTERRES
    91   44  169 1    
    92   45   46 2    
    93   45   47 1    
    94   47   48 1    
    95   47   49 1    
    96   47  170 1    
    97   48  171 1    
    98   48  172 1    
    99   48  173 1    
   100   49   50 am   BACKBONE|DICT|INTERRES
   101   49  174 1    
   102   50   51 2    
   103   50   52 1    
   104   52   53 1    
   105   52   54 1    
   106   52  175 1    
   107   53  176 1    
   108   53  177 1    
   109   53  178 1    
   110   54   55 am   BACKBONE|DICT|INTERRES
   111   54  179 1    
   112   55   56 2    
   113   55   57 1    
   114   57   58 1    
   115   57   59 1    
   116   57  180 1    
   117   58  181 1    
   118   58  182 1    
   119   58  183 1    
   120   59   60 am   BACKBONE|DICT|INTERRES
   121   59  184 1    
   122   60   61 2    
   123   60   62 1    
   124   62   63 1    
   125   62   64 1    
   126   62  185 1    
   127   63  186 1    
   128   63  187 1    
   129   63  188 1    
   130   64   65 am   BACKBONE|DICT|INTERRES
   131   64  189 1    
   132   65   66 2    
   133   67   68 2    
   134   67   69 am   BACKBONE|DICT|INTERRES
   135   69   70 1    
   136   69  190 1    
   137   70   71 1    
   138   70   72 1    
   139   70  191 1    
   140   71  192 1    
   141   71  193 1    
   142   71  194 1    
   143   72   73 2    
   144   72   74 am   BACKBONE|DICT|INTERRES
   145   74   75 1    
   146   74  195 1    
   147   75   76 1    
   148   75   77 1    
   149   75  196 1    
   150   76  197 1    
   151   76  198 1    
   152   76  199 1    
   153   77   78 2    
   154   77   79 am   BACKBONE|DICT|INTERRES
   155   79   80 1    
   156   79  200 1    
   157   80   81 1    
   158   80   82 1    
   159   80  201 1    
   160   81  202 1    
   161   81  203 1    
   162   81  204 1    
   163   82   83 2    
   164   82   84 am   BACKBONE|DICT|INTERRES
   165   84   85 1    
   166   84  205 1    
   167   85   86 1    
   168   85   87 1    
   169   85  206 1    
   170   86  207 1    
   171   86  208 1    
   172   86  209 1    
   173   87   88 2    
   174   87   89 am   BACKBONE|DICT|INTERRES
   175   89   90 1    
   176   89  210 1    
   177   90   91 1    
   178   90   92 1    
   179   90  211 1    
   180   91  212 1    
   181   91  213 1    
   182   91  214 1    
   183   92   93 2    
   184   92   94 am   BACKBONE|DICT|INTERRES
   185   94   95 1    
   186   94  215 1    
   187   95   96 1    
   188   95   97 1    
   189   95  216 1    
   190   96  217 1    
   191   96  218 1    
   192   96  219 1    
   193   97   98 2    
   194   97   99 am   BACKBONE|DICT|INTERRES
   195   99  100 1    
   196   99  220 1    
   197  100  101 1    
   198  100  102 1    
   199  100  221 1    
   200  101  222 1    
   201  101  223 1    
   202  101  224 1    
   203  102  103 2    
   204  102  104 am   BACKBONE|DICT|INTERRES
   205  104  105 1    
   206  104  225 1    
   207  105  106 1    
   208  105  107 1    
   209  105  226 1    
   210  106  227 1    
   211  106  228 1    
   212  106  229 1    
   213  107  108 2    
   214  107  109 am   BACKBONE|DICT|INTERRES
   215  109  110 1    
   216  109  230 1    
   217  110  111 1    
   218  110  112 1    
   219  110  231 1    
   220  111  232 1    
   221  111  233 1    
   222  111  234 1    
   223  112  113 2    
   224  112  114 am   BACKBONE|DICT|INTERRES
   225  114  115 1    
   226  114  235 1    
   227  115  116 1    
   228  115  117 1    
   229  115  236 1    
   230  116  237 1    
   231  116  238 1    
   232  116  239 1    
   233  117  118 2    
   234  117  119 am   BACKBONE|DICT|INTERRES
   235  119  120 1    
   236  119  240 1    
   237  120  121 1    
   238  120  124 1    
   239  120  241 1    
   240  121  122 am   BACKBONE|DICT|INTERRES
   241  121  123 2    
   242  122  242 1    
   243  122  243 1    
   244  124  125 1    
   245  124  244 1    
   246  124  245 1    
   247  125  126 1    
   248  126  246 1    
   249  126  247 1    
@<TRIPOS>SUBSTRUCTURE
     1 UNK         1 GROUP             0       ****    0 ROOT    
