@<TRIPOS>MOLECULE
3R540
247   249    1
SMALL
USER_CHARGES


@<TRIPOS>ATOM
      1 CA          0.0382  -11.3645  -43.6147 C.3       0 UNK        -0.1800 
      2 C           0.0092  -11.3348  -45.1350 C.2       0 UNK         0.5000 
      3 O          -0.6095  -10.4437  -45.7171 O.2       0 UNK        -0.5000 
      4 N           0.6724  -12.3064  -45.7679 N.am      1 UNK        -0.5000 
      5 CA          0.7936  -12.4494  -47.2206 C.3       1 UNK         0.1400 
      6 C6          0.0374  -13.6980  -47.7514 C.3       23 UNK        -0.0398 
      7 S7         -1.7450  -13.7185  -47.3496 S.3       23 UNK        -0.2404 
      8 C8         -2.5221  -13.9279  -48.9897 C.3       23 UNK        -0.0205 
      9 C9         -2.0377  -15.1247  -49.8115 C.ar      23 UNK        -0.0193 
     10 C10        -2.2096  -15.0902  -51.1989 C.ar      23 UNK        -0.1150 
     11 C11        -1.7583  -16.1364  -52.0086 C.ar      23 UNK        -0.0193 
     12 C12        -1.1210  -17.2278  -51.4121 C.ar      23 UNK        -0.1150 
     13 C13        -0.9794  -17.3035  -50.0249 C.ar      23 UNK        -0.0193 
     14 C14        -1.4365  -16.2498  -49.2307 C.ar      23 UNK        -0.1150 
     15 C15        -0.3209  -18.5226  -49.3987 C.3       23 UNK        -0.0205 
     16 S16        -1.4758  -19.9323  -49.3380 S.3       23 UNK        -0.2404 
     17 C17        -0.3506  -21.3556  -49.5602 C.3       23 UNK        -0.0398 
     18 CA         -0.2441  -22.3179  -48.3549 C.3       11 UNK         0.1400 
     19 N           0.1039  -21.6287  -47.1121 N.am      11 UNK        -0.5000 
     20 C           0.9074  -22.1436  -46.1733 C.2       10 UNK         0.5000 
     21 O           1.4313  -23.2550  -46.2517 O.2       10 UNK        -0.5000 
     22 CA          1.1522  -21.2736  -44.9282 C.3       10 UNK         0.1400 
     23 CB          2.1595  -20.1566  -45.2429 C.3       10 UNK        -0.1800 
     24 N          -0.0756  -20.6870  -44.3906 N.am      10 UNK        -0.5000 
     25 C          -1.1103  -21.3930  -43.9100 C.2       9 UNK         0.5000 
     26 O          -1.1420  -22.6216  -43.8704 O.2       9 UNK        -0.5000 
     27 CA         -2.3375  -20.5994  -43.4279 C.3       9 UNK         0.1400 
     28 CB         -2.2540  -20.3436  -41.9166 C.3       9 UNK        -0.1800 
     29 N          -2.5334  -19.3380  -44.1468 N.am      9 UNK        -0.5000 
     30 C          -2.7890  -19.2574  -45.4628 C.2       8 UNK         0.5000 
     31 O          -2.8435  -20.2408  -46.2013 O.2       8 UNK        -0.5000 
     32 CA         -3.0096  -17.8608  -46.0709 C.3       8 UNK         0.1400 
     33 CB         -4.5089  -17.5992  -46.2723 C.3       8 UNK        -0.1800 
     34 N          -2.4424  -16.7662  -45.2832 N.am      8 UNK        -0.5000 
     35 C          -1.1370  -16.5623  -45.0672 C.2       7 UNK         0.5000 
     36 O          -0.2508  -17.2838  -45.5300 O.2       7 UNK        -0.5000 
     37 CA         -0.7483  -15.3675  -44.1679 C.3       7 UNK         0.1400 
     38 CB         -1.9460  -14.5556  -43.6211 C.3       7 UNK        -0.1800 
     39 N           0.1276  -15.7888  -43.0724 N.am      7 UNK        -0.5000 
     40 C          -0.1665  -16.7112  -42.1444 C.2       6 UNK         0.5000 
     41 O          -1.2646  -17.2614  -42.0558 O.2       6 UNK        -0.5000 
     42 CA          0.9479  -17.1147  -41.1653 C.3       6 UNK         0.1400 
     43 CB          1.6837  -18.3581  -41.6850 C.3       6 UNK        -0.1800 
     44 N           1.9273  -16.0548  -40.9168 N.am      6 UNK        -0.5000 
     45 C           1.7673  -15.0905  -40.0000 C.2       5 UNK         0.5000 
     46 O           0.7328  -14.9224  -39.3536 O.2       5 UNK        -0.5000 
     47 CA          2.9814  -14.1830  -39.7403 C.3       5 UNK         0.1400 
     48 CB          4.0456  -14.9245  -38.9148 C.3       5 UNK        -0.1800 
     49 N           3.5825  -13.7040  -40.9843 N.am      5 UNK        -0.5000 
     50 C           3.1931  -12.5929  -41.6224 C.2       4 UNK         0.5000 
     51 O           2.2996  -11.8495  -41.2175 O.2       4 UNK        -0.5000 
     52 CA          3.9293  -12.2449  -42.9301 C.3       4 UNK         0.1400 
     53 CB          5.1101  -11.3037  -42.6486 C.3       4 UNK        -0.1800 
     54 N           4.4151  -13.4176  -43.6623 N.am      4 UNK        -0.5000 
     55 C           3.6179  -14.2883  -44.2899 C.2       3 UNK         0.5000 
     56 O           2.3860  -14.2202  -44.2768 O.2       3 UNK        -0.5000 
     57 CA          4.3028  -15.3837  -45.1211 C.3       3 UNK         0.1400 
     58 CB          3.7231  -16.7721  -44.8060 C.3       3 UNK        -0.1800 
     59 N           4.0636  -15.0698  -46.5232 N.am      3 UNK        -0.5000 
     60 C           4.8336  -14.2627  -47.2662 C.2       2 UNK         0.5000 
     61 O           5.9629  -13.8946  -46.9413 O.2       2 UNK        -0.5000 
     62 CA          4.1898  -13.7213  -48.5589 C.3       2 UNK         0.1400 
     63 CB          4.3437  -14.7266  -49.7104 C.3       2 UNK        -0.1800 
     64 N           2.7678  -13.4159  -48.3651 N.am      2 UNK        -0.5000 
     65 C           2.3048  -12.4635  -47.5384 C.2       1 UNK         0.5000 
     66 O           3.0394  -11.6326  -46.9981 O.2       1 UNK        -0.5000 
     67 C          -1.4697  -23.2388  -48.1805 C.2       11 UNK         0.5000 
     68 O          -1.5432  -24.2720  -48.8480 O.2       11 UNK        -0.5000 
     69 N          -2.3785  -22.9168  -47.2463 N.am      12 UNK        -0.5000 
     70 CA         -3.4919  -23.7912  -46.8661 C.3       12 UNK         0.1400 
     71 CB         -4.4813  -23.0359  -45.9708 C.3       12 UNK        -0.1800 
     72 C          -3.0200  -25.0934  -46.1920 C.2       12 UNK         0.5000 
     73 O          -3.5927  -26.1484  -46.4621 O.2       12 UNK        -0.5000 
     74 N          -1.9450  -25.0222  -45.3915 N.am      13 UNK        -0.5000 
     75 CA         -1.2690  -26.1827  -44.7992 C.3       13 UNK         0.1400 
     76 CB         -0.2273  -25.7039  -43.7773 C.3       13 UNK        -0.1800 
     77 C          -0.6101  -27.1087  -45.8427 C.2       13 UNK         0.5000 
     78 O          -0.4679  -28.3045  -45.5868 O.2       13 UNK        -0.5000 
     79 N          -0.2554  -26.5515  -47.0087 N.am      14 UNK        -0.5000 
     80 CA          0.2379  -27.2811  -48.1785 C.3       14 UNK         0.1400 
     81 CB          1.1929  -26.3673  -48.9660 C.3       14 UNK        -0.1800 
     82 C          -0.9038  -27.8049  -49.0789 C.2       14 UNK         0.5000 
     83 O          -0.6175  -28.3987  -50.1191 O.2       14 UNK        -0.5000 
     84 N          -2.1648  -27.5772  -48.6749 N.am      15 UNK        -0.5000 
     85 CA         -3.4104  -27.9408  -49.3580 C.3       15 UNK         0.1400 
     86 CB         -3.5544  -29.4731  -49.4739 C.3       15 UNK        -0.1800 
     87 C          -3.6054  -27.2066  -50.7008 C.2       15 UNK         0.5000 
     88 O          -4.2093  -27.7591  -51.6223 O.2       15 UNK        -0.5000 
     89 N          -3.1042  -25.9687  -50.7864 N.am      16 UNK        -0.5000 
     90 CA         -3.1657  -25.1208  -51.9712 C.3       16 UNK         0.1400 
     91 CB         -1.8814  -25.3179  -52.7999 C.3       16 UNK        -0.1800 
     92 C          -3.3830  -23.6685  -51.5240 C.2       16 UNK         0.5000 
     93 O          -2.5450  -22.8122  -51.7981 O.2       16 UNK        -0.5000 
     94 N          -4.4830  -23.4354  -50.7970 N.am      17 UNK        -0.5000 
     95 CA         -4.8283  -22.1806  -50.1224 C.3       17 UNK         0.1400 
     96 CB         -6.1873  -22.3674  -49.4275 C.3       17 UNK        -0.1800 
     97 C          -4.8521  -20.9219  -51.0153 C.2       17 UNK         0.5000 
     98 O          -4.9369  -21.0135  -52.2447 O.2       17 UNK        -0.5000 
     99 N          -4.8019  -19.7598  -50.3514 N.am      18 UNK        -0.5000 
    100 CA        -4.8529  -18.4241  -50.9435 C.3       18 UNK         0.1400 
    101 CB        -4.8093  -17.3817  -49.8190 C.3       18 UNK        -0.1800 
    102 C         -6.1091  -18.2183  -51.8061 C.2       18 UNK         0.5000 
    103 O         -7.2040  -18.6024  -51.3892 O.2       18 UNK        -0.5000 
    104 N         -5.9143  -17.6573  -53.0052 N.am      19 UNK        -0.5000 
    105 CA        -6.8805  -17.4354  -54.0900 C.3       19 UNK         0.1400 
    106 CB        -8.0491  -16.5396  -53.6366 C.3       19 UNK        -0.1800 
    107 C         -7.3914  -18.7246  -54.7688 C.2       19 UNK         0.5000 
    108 O         -7.6613  -18.6980  -55.9702 O.2       19 UNK        -0.5000 
    109 N         -7.5003  -19.8261  -54.0151 N.am      20 UNK        -0.5000 
    110 CA        -7.8819  -21.1508  -54.4997 C.3       20 UNK         0.1400 
    111 CB        -8.1991  -22.0611  -53.3028 C.3       20 UNK        -0.1800 
    112 C         -6.8008  -21.7819  -55.3946 C.2       20 UNK         0.5000 
    113 O         -7.1404  -22.3841  -56.4145 O.2       20 UNK        -0.5000 
    114 N         -5.5276  -21.6206  -55.0109 N.am      21 UNK        -0.5000 
    115 CA        -4.3750  -22.1194  -55.7601 C.3       21 UNK         0.1400 
    116 CB        -4.1502  -23.6099  -55.4569 C.3       21 UNK        -0.1800 
    117 C         -3.0949  -21.3046  -55.5135 C.2       21 UNK         0.5000 
    118 O         -2.2990  -21.1752  -56.4447 O.2       21 UNK        -0.5000 
    119 N         -2.9118  -20.7668  -54.2976 N.am      22 UNK        -0.5000 
    120 CA        -1.7155  -20.0137  -53.8711 C.3       22 UNK         0.1400 
    121 C         -0.4059  -20.8632  -53.9019 C.2       22 UNK         0.5000 
    122 N         -0.4196  -22.0710  -53.3592 N.am      22 UNK        -0.7600 
    123 O          0.6292  -20.4387  -54.4102 O.2       22 UNK        -0.5000 
    124 C124       -1.5541  -18.6488  -54.6043 C.3       23 UNK        -0.0398 
    125 S125       -2.8784  -17.4540  -54.2197 S.3       23 UNK        -0.2404 
    126 C126       -1.9333  -16.0549  -53.5220 C.3       23 UNK        -0.0205 
    127 H127        0.4523  -12.3008  -43.2396 H         1 UNK         0.0600 
    128 H128       -0.9703  -11.2581  -43.2154 H         1 UNK         0.0600 
    129 H129        0.6461  -10.5441  -43.2335 H         1 UNK         0.0600 
    130 H130        1.2229  -12.9654  -45.2243 H         1 UNK         0.3000 
    131 H131        0.3887  -11.5705  -47.7259 H         1 UNK         0.0600 
    132 H132        0.1451  -13.7596  -48.8351 H         1 UNK         0.0800 
    133 H133        0.4693  -14.6127  -47.3409 H         1 UNK         0.0800 
    134 H134       -3.5996  -14.0215  -48.8497 H         1 UNK         0.0800 
    135 H135       -2.3625  -13.0082  -49.5547 H         1 UNK         0.0800 
    136 H136       -2.6872  -14.2327  -51.6523 H         1 UNK         0.1150 
    137 H137       -0.7383  -18.0306  -52.0207 H         1 UNK         0.1150 
    138 H138       -1.3111  -16.3084  -48.1607 H         1 UNK         0.1150 
    139 H139        0.5645  -18.7723  -49.9841 H         1 UNK         0.0800 
    140 H140        0.0286  -18.3013  -48.3887 H         1 UNK         0.0800 
    141 H141        0.6491  -20.9897  -49.7932 H         1 UNK         0.0800 
    142 H142       -0.6541  -21.9008  -50.4518 H         1 UNK         0.0800 
    143 H143        0.5772  -22.9938  -48.6043 H         1 UNK         0.0600 
    144 H144       -0.3258  -20.7268  -46.9616 H         1 UNK         0.3000 
    145 H145        1.5830  -21.9154  -44.1568 H         1 UNK         0.0600 
    146 H146        2.4688  -19.6405  -44.3363 H         1 UNK         0.0600 
    147 H147        3.0621  -20.5596  -45.7041 H         1 UNK         0.0600 
    148 H148        1.7436  -19.4150  -45.9265 H         1 UNK         0.0600 
    149 H149       -0.1547  -19.6799  -44.4250 H         1 UNK         0.3000 
    150 H150       -3.2216  -21.2118  -43.6055 H         1 UNK         0.0600 
    151 H151       -2.2643  -21.2847  -41.3654 H         1 UNK         0.0600 
    152 H152       -3.0987  -19.7511  -41.5647 H         1 UNK         0.0600 
    153 H153       -1.3379  -19.8217  -41.6436 H         1 UNK         0.0600 
    154 H154       -2.4551  -18.4870  -43.6037 H         1 UNK         0.3000 
    155 H155       -2.5291  -17.8653  -47.0496 H         1 UNK         0.0600 
    156 H156       -5.0414  -17.5576  -45.3213 H         1 UNK         0.0600 
    157 H157       -4.6774  -16.6568  -46.7941 H         1 UNK         0.0600 
    158 H158       -4.9673  -18.3885  -46.8696 H         1 UNK         0.0600 
    159 H159       -3.1017  -16.1318  -44.8569 H         1 UNK         0.3000 
    160 H160       -0.1586  -14.7041  -44.7968 H         1 UNK         0.0600 
    161 H161       -1.6036  -13.7400  -42.9854 H         1 UNK         0.0600 
    162 H162       -2.6243  -15.1661  -43.0244 H         1 UNK         0.0600 
    163 H163       -2.5235  -14.1067  -44.4296 H         1 UNK         0.0600 
    164 H164        1.0617  -15.3990  -43.1000 H         1 UNK         0.3000 
    165 H165        0.4688  -17.3846  -40.2214 H         1 UNK         0.0600 
    166 H166        2.4214  -18.7114  -40.9643 H         1 UNK         0.0600 
    167 H167        0.9918  -19.1804  -41.8696 H         1 UNK         0.0600 
    168 H168        2.2000  -18.1493  -42.6199 H         1 UNK         0.0600 
    169 H169        2.8072  -16.1232  -41.4036 H         1 UNK         0.3000 
    170 H170        2.6409  -13.3311  -39.1473 H         1 UNK         0.0600 
    171 H171        4.8756  -14.2646  -38.6618 H         1 UNK         0.0600 
    172 H172        4.4524  -15.7834  -39.4499 H         1 UNK         0.0600 
    173 H173        3.6260  -15.2909  -37.9769 H         1 UNK         0.0600 
    174 H174        4.3387  -14.2457  -41.3753 H         1 UNK         0.3000 
    175 H175        3.2222  -11.7153  -43.5727 H         1 UNK         0.0600 
    176 H176        5.5861  -10.9811  -43.5749 H         1 UNK         0.0600 
    177 H177        5.8689  -11.7827  -42.0286 H         1 UNK         0.0600 
    178 H178        4.7779  -10.4055  -42.1261 H         1 UNK         0.0600 
    179 H179        5.4169  -13.5141  -43.7486 H         1 UNK         0.3000 
    180 H180        5.3743  -15.3992  -44.9101 H         1 UNK         0.0600 
    181 H181        2.6428  -16.8129  -44.9554 H         1 UNK         0.0600 
    182 H182        3.9272  -17.0459  -43.7711 H         1 UNK         0.0600 
    183 H183        4.1737  -17.5382  -45.4372 H         1 UNK         0.0600 
    184 H184        3.1429  -15.2946  -46.8680 H         1 UNK         0.3000 
    185 H185        4.7064  -12.7992  -48.8338 H         1 UNK         0.0600 
    186 H186        3.8307  -15.6659  -49.5003 H         1 UNK         0.0600 
    187 H187        3.9416  -14.3249  -50.6407 H         1 UNK         0.0600 
    188 H188        5.3950  -14.9590  -49.8858 H         1 UNK         0.0600 
    189 H189        2.1162  -14.0402  -48.8163 H         1 UNK         0.3000 
    190 H190       -2.3137  -22.0225  -46.7683 H         1 UNK         0.3000 
    191 H191       -4.0178  -24.0726  -47.7804 H         1 UNK         0.0600 
    192 H192       -4.8394  -22.1264  -46.4533 H         1 UNK         0.0600 
    193 H193       -5.3537  -23.6519  -45.7498 H         1 UNK         0.0600 
    194 H194       -4.0272  -22.7606  -45.0208 H         1 UNK         0.0600 
    195 H195       -1.5618  -24.1118  -45.1561 H         1 UNK         0.3000 
    196 H196       -2.0192  -26.7726  -44.2686 H         1 UNK         0.0600 
    197 H197        0.3037  -26.5462  -43.3322 H         1 UNK         0.0600 
    198 H198       -0.6993  -25.1540  -42.9630 H         1 UNK         0.0600 
    199 H199        0.5158  -25.0512  -44.2371 H         1 UNK         0.0600 
    200 H200       -0.4230  -25.5638  -47.1400 H         1 UNK         0.3000 
    201 H201        0.8084  -28.1497  -47.8435 H         1 UNK         0.0600 
    202 H202        1.9822  -25.9734  -48.3253 H         1 UNK         0.0600 
    203 H203        0.6714  -25.5220  -49.4138 H         1 UNK         0.0600 
    204 H204        1.6765  -26.9148  -49.7757 H         1 UNK         0.0600 
    205 H205       -2.2983  -27.0723  -47.8070 H         1 UNK         0.3000 
    206 H206       -4.2171  -27.5909  -48.7129 H         1 UNK         0.0600 
    207 H207       -3.4148  -29.9562  -48.5068 H         1 UNK         0.0600 
    208 H208       -4.5483  -29.7461  -49.8303 H         1 UNK         0.0600 
    209 H209       -2.8313  -29.8986  -50.1700 H         1 UNK         0.0600 
    210 H210       -2.6156  -25.5669  -49.9906 H         1 UNK         0.3000 
    211 H211       -4.0244  -25.3933  -52.5879 H         1 UNK         0.0600 
    212 H212       -0.9909  -25.0708  -52.2202 H         1 UNK         0.0600 
    213 H213       -1.8819  -24.6886  -53.6901 H         1 UNK         0.0600 
    214 H214       -1.7843  -26.3509  -53.1338 H         1 UNK         0.0600 
    215 H215       -5.1166  -24.2056  -50.6453 H         1 UNK         0.3000 
    216 H216       -4.0682  -22.0144  -49.3577 H         1 UNK         0.0600 
    217 H217       -6.4649  -21.4837  -48.8517 H         1 UNK         0.0600 
    218 H218       -6.1678  -23.2071  -48.7329 H         1 UNK         0.0600 
    219 H219       -6.9835  -22.5494  -50.1503 H         1 UNK         0.0600 
    220 H220       -4.7390  -19.7861  -49.3453 H         1 UNK         0.3000 
    221 H221       -3.9614  -18.3096  -51.5618 H         1 UNK         0.0600 
    222 H222       -5.6867  -17.4474  -49.1746 H         1 UNK         0.0600 
    223 H223       -3.9252  -17.5140  -49.1974 H         1 UNK         0.0600 
    224 H224       -4.7752  -16.3704  -50.2254 H         1 UNK         0.0600 
    225 H225       -4.9604  -17.4259  -53.2557 H         1 UNK         0.3000 
    226 H226       -6.3295  -16.8864  -54.8553 H         1 UNK         0.0600 
    227 H227       -7.6865  -15.6113  -53.1952 H         1 UNK         0.0600 
    228 H228       -8.6818  -16.2717  -54.4835 H         1 UNK         0.0600 
    229 H229       -8.6853  -17.0355  -52.9032 H         1 UNK         0.0600 
    230 H230       -7.2926  -19.7394  -53.0262 H         1 UNK         0.3000 
    231 H231       -8.7908  -21.0438  -55.0955 H         1 UNK         0.0600 
    232 H232       -7.3268  -22.2125  -52.6668 H         1 UNK         0.0600 
    233 H233       -8.5326  -23.0435  -53.6390 H         1 UNK         0.0600 
    234 H234       -8.9939  -21.6406  -52.6865 H         1 UNK         0.0600 
    235 H235       -5.3407  -21.1463  -54.1325 H         1 UNK         0.3000 
    236 H236       -4.5897  -22.0208  -56.8267 H         1 UNK         0.0600 
    237 H237       -4.9806  -24.2178  -55.8159 H         1 UNK         0.0600 
    238 H238       -3.2440  -23.9808  -55.9376 H         1 UNK         0.0600 
    239 H239       -4.0526  -23.7783  -54.3871 H         1 UNK         0.0600 
    240 H240       -3.5832  -20.9590  -53.5599 H         1 UNK         0.3000 
    241 H241       -1.8780  -19.8014  -52.8143 H         1 UNK         0.0600 
    242 H242       -1.2486  -22.3994  -52.8617 H         1 UNK         0.3800 
    243 H243        0.4141  -22.6342  -53.3790 H         1 UNK         0.3800 
    244 H244       -0.5971  -18.1925  -54.3501 H         1 UNK         0.0800 
    245 H245       -1.5227  -18.7907  -55.6847 H         1 UNK         0.0800 
    246 H246       -2.4649  -15.1395  -53.7861 H         1 UNK         0.0800 
    247 H247       -0.9561  -15.9733  -53.9990 H         1 UNK         0.0800 
@<TRIPOS>BOND
     1    1    2 1    
     2    1  127 1    
     3    1  128 1    
     4    1  129 1    
     5    2    3 2    
     6    2    4 am   BACKBONE|DICT|INTERRES
     7    4    5 1    
     8    4  130 1    
     9    5    6 1    
    10    5   65 1    
    11    5  131 1    
    12    6    7 1    
    13    6  132 1    
    14    6  133 1    
    15    7    8 1    
    16    8    9 1    
    17    8  134 1    
    18    8  135 1    
    19    9   10 ar   
    20    9   14 ar   
    21   10   11 ar   
    22   10  136 1    
    23   11   12 ar   
    24   11  126 1    
    25   12   13 ar   
    26   12  137 1    
    27   13   14 ar   
    28   13   15 1    
    29   14  138 1    
    30   15   16 1    
    31   15  139 1    
    32   15  140 1    
    33   16   17 1    
    34   17   18 1    
    35   17  141 1    
    36   17  142 1    
    37   18   19 1    
    38   18   67 1    
    39   18  143 1    
    40   19   20 am   BACKBONE|DICT|INTERRES
    41   19  144 1    
    42   20   21 2    
    43   20   22 1    
    44   22   23 1    
    45   22   24 1    
    46   22  145 1    
    47   23  146 1    
    48   23  147 1    
    49   23  148 1    
    50   24   25 am   BACKBONE|DICT|INTERRES
    51   24  149 1    
    52   25   26 2    
    53   25   27 1    
    54   27   28 1    
    55   27   29 1    
    56   27  150 1    
    57   28  151 1    
    58   28  152 1    
    59   28  153 1    
    60   29   30 am   BACKBONE|DICT|INTERRES
    61   29  154 1    
    62   30   31 2    
    63   30   32 1    
    64   32   33 1    
    65   32   34 1    
    66   32  155 1    
    67   33  156 1    
    68   33  157 1    
    69   33  158 1    
    70   34   35 am   BACKBONE|DICT|INTERRES
    71   34  159 1    
    72   35   36 2    
    73   35   37 1    
    74   37   38 1    
    75   37   39 1    
    76   37  160 1    
    77   38  161 1    
    78   38  162 1    
    79   38  163 1    
    80   39   40 am   BACKBONE|DICT|INTERRES
    81   39  164 1    
    82   40   41 2    
    83   40   42 1    
    84   42   43 1    
    85   42   44 1    
    86   42  165 1    
    87   43  166 1    
    88   43  167 1    
    89   43  168 1    
    90   44   45 am   BACKBONE|DICT|INTERRES
    91   44  169 1    
    92   45   46 2    
    93   45   47 1    
    94   47   48 1    
    95   47   49 1    
    96   47  170 1    
    97   48  171 1    
    98   48  172 1    
    99   48  173 1    
   100   49   50 am   BACKBONE|DICT|INTERRES
   101   49  174 1    
   102   50   51 2    
   103   50   52 1    
   104   52   53 1    
   105   52   54 1    
   106   52  175 1    
   107   53  176 1    
   108   53  177 1    
   109   53  178 1    
   110   54   55 am   BACKBONE|DICT|INTERRES
   111   54  179 1    
   112   55   56 2    
   113   55   57 1    
   114   57   58 1    
   115   57   59 1    
   116   57  180 1    
   117   58  181 1    
   118   58  182 1    
   119   58  183 1    
   120   59   60 am   BACKBONE|DICT|INTERRES
   121   59  184 1    
   122   60   61 2    
   123   60   62 1    
   124   62   63 1    
   125   62   64 1    
   126   62  185 1    
   127   63  186 1    
   128   63  187 1    
   129   63  188 1    
   130   64   65 am   BACKBONE|DICT|INTERRES
   131   64  189 1    
   132   65   66 2    
   133   67   68 2    
   134   67   69 am   BACKBONE|DICT|INTERRES
   135   69   70 1    
   136   69  190 1    
   137   70   71 1    
   138   70   72 1    
   139   70  191 1    
   140   71  192 1    
   141   71  193 1    
   142   71  194 1    
   143   72   73 2    
   144   72   74 am   BACKBONE|DICT|INTERRES
   145   74   75 1    
   146   74  195 1    
   147   75   76 1    
   148   75   77 1    
   149   75  196 1    
   150   76  197 1    
   151   76  198 1    
   152   76  199 1    
   153   77   78 2    
   154   77   79 am   BACKBONE|DICT|INTERRES
   155   79   80 1    
   156   79  200 1    
   157   80   81 1    
   158   80   82 1    
   159   80  201 1    
   160   81  202 1    
   161   81  203 1    
   162   81  204 1    
   163   82   83 2    
   164   82   84 am   BACKBONE|DICT|INTERRES
   165   84   85 1    
   166   84  205 1    
   167   85   86 1    
   168   85   87 1    
   169   85  206 1    
   170   86  207 1    
   171   86  208 1    
   172   86  209 1    
   173   87   88 2    
   174   87   89 am   BACKBONE|DICT|INTERRES
   175   89   90 1    
   176   89  210 1    
   177   90   91 1    
   178   90   92 1    
   179   90  211 1    
   180   91  212 1    
   181   91  213 1    
   182   91  214 1    
   183   92   93 2    
   184   92   94 am   BACKBONE|DICT|INTERRES
   185   94   95 1    
   186   94  215 1    
   187   95   96 1    
   188   95   97 1    
   189   95  216 1    
   190   96  217 1    
   191   96  218 1    
   192   96  219 1    
   193   97   98 2    
   194   97   99 am   BACKBONE|DICT|INTERRES
   195   99  100 1    
   196   99  220 1    
   197  100  101 1    
   198  100  102 1    
   199  100  221 1    
   200  101  222 1    
   201  101  223 1    
   202  101  224 1    
   203  102  103 2    
   204  102  104 am   BACKBONE|DICT|INTERRES
   205  104  105 1    
   206  104  225 1    
   207  105  106 1    
   208  105  107 1    
   209  105  226 1    
   210  106  227 1    
   211  106  228 1    
   212  106  229 1    
   213  107  108 2    
   214  107  109 am   BACKBONE|DICT|INTERRES
   215  109  110 1    
   216  109  230 1    
   217  110  111 1    
   218  110  112 1    
   219  110  231 1    
   220  111  232 1    
   221  111  233 1    
   222  111  234 1    
   223  112  113 2    
   224  112  114 am   BACKBONE|DICT|INTERRES
   225  114  115 1    
   226  114  235 1    
   227  115  116 1    
   228  115  117 1    
   229  115  236 1    
   230  116  237 1    
   231  116  238 1    
   232  116  239 1    
   233  117  118 2    
   234  117  119 am   BACKBONE|DICT|INTERRES
   235  119  120 1    
   236  119  240 1    
   237  120  121 1    
   238  120  124 1    
   239  120  241 1    
   240  121  122 am   BACKBONE|DICT|INTERRES
   241  121  123 2    
   242  122  242 1    
   243  122  243 1    
   244  124  125 1    
   245  124  244 1    
   246  124  245 1    
   247  125  126 1    
   248  126  246 1    
   249  126  247 1    
@<TRIPOS>SUBSTRUCTURE
     1 UNK         1 GROUP             0       ****    0 ROOT    
