@<TRIPOS>MOLECULE
3R540
247   249    1
SMALL
USER_CHARGES


@<TRIPOS>ATOM
      1 CA         -0.2451  -11.9391  -48.7438 C.3       0 UNK        -0.1800 
      2 C          -0.4260  -12.5837  -47.3782 C.2       0 UNK         0.5000 
      3 O           0.4840  -13.2463  -46.8824 O.2       0 UNK        -0.5000 
      4 N          -1.5991  -12.4096  -46.7604 N.am      1 UNK        -0.5000 
      5 CA         -1.9097  -12.9035  -45.4165 C.3       1 UNK         0.1400 
      6 C6         -3.3968  -13.3169  -45.3017 C.3       23 UNK        -0.0398 
      7 S7         -3.6771  -14.4780  -43.9252 S.3       23 UNK        -0.2404 
      8 C8         -5.4785  -14.7075  -44.0122 C.3       23 UNK        -0.0205 
      9 C9         -5.8764  -15.7669  -45.0301 C.ar      23 UNK        -0.0193 
     10 C10        -6.0822  -15.4207  -46.3685 C.ar      23 UNK        -0.1150 
     11 C11        -6.4940  -16.3822  -47.2948 C.ar      23 UNK        -0.0193 
     12 C12        -6.7175  -17.6947  -46.8707 C.ar      23 UNK        -0.1150 
     13 C13        -6.5153  -18.0580  -45.5342 C.ar      23 UNK        -0.0193 
     14 C14        -6.0844  -17.0886  -44.6226 C.ar      23 UNK        -0.1150 
     15 C15        -6.8264  -19.4709  -45.0472 C.3       23 UNK        -0.0205 
     16 S16        -6.2127  -20.7866  -46.1493 S.3       23 UNK        -0.2404 
     17 C17        -4.4153  -20.6466  -45.8930 C.3       23 UNK        -0.0398 
     18 CA         -3.6522  -21.8865  -46.4160 C.3       11 UNK         0.1400 
     19 N          -2.2450  -21.5826  -46.6988 N.am      11 UNK        -0.5000 
     20 C          -1.3446  -22.4323  -47.2135 C.2       10 UNK         0.5000 
     21 O          -1.6044  -23.5939  -47.5211 O.2       10 UNK        -0.5000 
     22 CA          0.0944  -21.9194  -47.3687 C.3       10 UNK         0.1400 
     23 CB          0.2305  -21.0188  -48.6054 C.3       10 UNK        -0.1800 
     24 N           0.5272  -21.2096  -46.1669 N.am      10 UNK        -0.5000 
     25 C           0.7968  -21.8155  -45.0010 C.2       9 UNK         0.5000 
     26 O           0.8305  -23.0375  -44.8566 O.2       9 UNK        -0.5000 
     27 CA          1.0233  -20.9044  -43.7823 C.3       9 UNK         0.1400 
     28 CB          2.5050  -20.5202  -43.6554 C.3       9 UNK        -0.1800 
     29 N           0.2016  -19.6938  -43.8358 N.am      9 UNK        -0.5000 
     30 C          -1.1284  -19.6804  -43.6558 C.2       8 UNK         0.5000 
     31 O          -1.7937  -20.6890  -43.4198 O.2       8 UNK        -0.5000 
     32 CA         -1.8437  -18.3220  -43.8025 C.3       8 UNK         0.1400 
     33 CB         -1.8227  -17.5739  -42.4615 C.3       8 UNK        -0.1800 
     34 N          -1.2665  -17.4706  -44.8453 N.am      8 UNK        -0.5000 
     35 C          -1.1686  -17.8063  -46.1400 C.2       7 UNK         0.5000 
     36 O          -1.6366  -18.8442  -46.6037 O.2       7 UNK        -0.5000 
     37 CA         -0.3653  -16.8726  -47.0671 C.3       7 UNK         0.1400 
     38 CB         -1.3215  -15.9901  -47.8820 C.3       7 UNK        -0.1800 
     39 N           0.6332  -16.0347  -46.3893 N.am      7 UNK        -0.5000 
     40 C           1.6356  -16.4850  -45.6201 C.2       6 UNK         0.5000 
     41 O           1.8097  -17.6775  -45.3607 O.2       6 UNK        -0.5000 
     42 CA          2.5706  -15.4138  -45.0266 C.3       6 UNK         0.1400 
     43 CB          3.6733  -16.0041  -44.1239 C.3       6 UNK        -0.1800 
     44 N           3.1542  -14.5318  -46.0399 N.am      6 UNK        -0.5000 
     45 C           3.9211  -14.8683  -47.0850 C.2       5 UNK         0.5000 
     46 O           4.2315  -16.0264  -47.3661 O.2       5 UNK        -0.5000 
     47 CA          4.4780  -13.7189  -47.9523 C.3       5 UNK         0.1400 
     48 CB          3.4504  -13.2505  -49.0000 C.3       5 UNK        -0.1800 
     49 N           5.0400  -12.5903  -47.1920 N.am      5 UNK        -0.5000 
     50 C           4.4050  -11.7009  -46.4168 C.2       4 UNK         0.5000 
     51 O           3.1846  -11.6782  -46.2438 O.2       4 UNK        -0.5000 
     52 CA          5.2830  -10.6491  -45.7186 C.3       4 UNK         0.1400 
     53 CB          5.2884   -9.3366  -46.5169 C.3       4 UNK        -0.1800 
     54 N           4.7563  -10.3901  -44.3818 N.am      4 UNK        -0.5000 
     55 C           5.0309  -11.1275  -43.2978 C.2       3 UNK         0.5000 
     56 O           5.9035  -11.9960  -43.2607 O.2       3 UNK        -0.5000 
     57 CA          4.1570  -10.8675  -42.0533 C.3       3 UNK         0.1400 
     58 CB          4.7725   -9.7646  -41.1785 C.3       3 UNK        -0.1800 
     59 N           2.7790  -10.5009  -42.3985 N.am      3 UNK        -0.5000 
     60 C           1.9056  -11.3311  -42.9856 C.2       2 UNK         0.5000 
     61 O           2.1426  -12.5231  -43.1955 O.2       2 UNK        -0.5000 
     62 CA          0.5542  -10.7313  -43.4130 C.3       2 UNK         0.1400 
     63 CB          0.7154   -9.3987  -44.1722 C.3       2 UNK        -0.1800 
     64 N          -0.1348  -11.6864  -44.2733 N.am      2 UNK        -0.5000 
     65 C          -1.4560  -11.8515  -44.3809 C.2       1 UNK         0.5000 
     66 O          -2.2814  -11.1845  -43.7543 O.2       1 UNK        -0.5000 
     67 C          -3.8186  -23.1074  -45.4838 C.2       11 UNK         0.5000 
     68 O          -4.6377  -23.9819  -45.7693 O.2       11 UNK        -0.5000 
     69 N          -2.9731  -23.1929  -44.4464 N.am      12 UNK        -0.5000 
     70 CA         -2.8695  -24.3303  -43.5268 C.3       12 UNK         0.1400 
     71 CB         -1.8963  -23.9646  -42.3959 C.3       12 UNK        -0.1800 
     72 C          -2.4449  -25.6576  -44.1955 C.2       12 UNK         0.5000 
     73 O          -2.7245  -26.7230  -43.6455 O.2       12 UNK        -0.5000 
     74 N          -1.8084  -25.5768  -45.3709 N.am      13 UNK        -0.5000 
     75 CA         -1.4090  -26.7005  -46.2179 C.3       13 UNK         0.1400 
     76 CB          0.0547  -26.4924  -46.6484 C.3       13 UNK        -0.1800 
     77 C          -2.3544  -26.8521  -47.4299 C.2       13 UNK         0.5000 
     78 O          -1.9256  -27.3296  -48.4820 O.2       13 UNK        -0.5000 
     79 N          -3.6177  -26.4232  -47.2768 N.am      14 UNK        -0.5000 
     80 CA         -4.6906  -26.4406  -48.2785 C.3       14 UNK         0.1400 
     81 CB         -5.0842  -27.8887  -48.6394 C.3       14 UNK        -0.1800 
     82 C          -4.3453  -25.5832  -49.5115 C.2       14 UNK         0.5000 
     83 O          -4.4469  -26.0509  -50.6470 O.2       14 UNK        -0.5000 
     84 N          -3.8893  -24.3501  -49.2484 N.am      15 UNK        -0.5000 
     85 CA         -3.3692  -23.3770  -50.2174 C.3       15 UNK         0.1400 
     86 CB         -4.4880  -22.8941  -51.1632 C.3       15 UNK        -0.1800 
     87 C          -2.1200  -23.9075  -50.9516 C.2       15 UNK         0.5000 
     88 O          -1.9893  -23.7248  -52.1607 O.2       15 UNK        -0.5000 
     89 N          -1.2507  -24.5999  -50.1997 N.am      16 UNK        -0.5000 
     90 CA         -0.0858  -25.3685  -50.6519 C.3       16 UNK         0.1400 
     91 CB          1.0311  -24.4218  -51.1341 C.3       16 UNK        -0.1800 
     92 C          -0.4742  -26.4260  -51.7065 C.2       16 UNK         0.5000 
     93 O           0.1188  -26.4731  -52.7838 O.2       16 UNK        -0.5000 
     94 N          -1.5164  -27.2110  -51.3960 N.am      17 UNK        -0.5000 
     95 CA         -2.2099  -28.1461  -52.2917 C.3       17 UNK         0.1400 
     96 CB         -1.3199  -29.3683  -52.5978 C.3       17 UNK        -0.1800 
     97 C          -2.7467  -27.4478  -53.5635 C.2       17 UNK         0.5000 
     98 O          -2.5511  -27.9361  -54.6778 O.2       17 UNK        -0.5000 
     99 N          -3.3874  -26.2896  -53.3529 N.am      18 UNK        -0.5000 
    100 CA        -3.9530  -25.3606  -54.3384 C.3       18 UNK         0.1400 
    101 CB        -5.0926  -26.0328  -55.1312 C.3       18 UNK        -0.1800 
    102 C         -2.9290  -24.6618  -55.2635 C.2       18 UNK         0.5000 
    103 O         -3.3442  -24.0019  -56.2180 O.2       18 UNK        -0.5000 
    104 N         -1.6243  -24.7809  -54.9799 N.am      19 UNK        -0.5000 
    105 CA        -0.5543  -24.1547  -55.7603 C.3       19 UNK         0.1400 
    106 CB         0.7419  -24.9589  -55.5815 C.3       19 UNK        -0.1800 
    107 C         -0.3122  -22.6762  -55.3977 C.2       19 UNK         0.5000 
    108 O          0.2641  -21.9530  -56.2117 O.2       19 UNK        -0.5000 
    109 N         -0.7274  -22.2508  -54.1981 N.am      20 UNK        -0.5000 
    110 CA        -0.4934  -20.9163  -53.6499 C.3       20 UNK         0.1400 
    111 CB         0.7102  -20.9587  -52.6904 C.3       20 UNK        -0.1800 
    112 C         -1.7745  -20.3879  -52.9859 C.2       20 UNK         0.5000 
    113 O         -1.7669  -20.0255  -51.8079 O.2       20 UNK        -0.5000 
    114 N         -2.8652  -20.3621  -53.7608 N.am      21 UNK        -0.5000 
    115 CA        -4.1286  -19.7290  -53.3829 C.3       21 UNK         0.1400 
    116 CB        -5.2364  -20.2423  -54.3156 C.3       21 UNK        -0.1800 
    117 C         -4.0276  -18.1925  -53.4393 C.2       21 UNK         0.5000 
    118 O         -3.2350  -17.6554  -54.2183 O.2       21 UNK        -0.5000 
    119 N         -4.8416  -17.5195  -52.6185 N.am      22 UNK        -0.5000 
    120 CA        -4.9438  -16.0534  -52.5436 C.3       22 UNK         0.1400 
    121 C         -5.4630  -15.4150  -53.8636 C.2       22 UNK         0.5000 
    122 N         -4.9367  -14.2616  -54.2524 N.am      22 UNK        -0.7600 
    123 O         -6.3700  -15.9329  -54.5120 O.2       22 UNK        -0.5000 
    124 C124       -5.8319  -15.6042  -51.3558 C.3       23 UNK        -0.0398 
    125 S125       -5.2151  -16.1785  -49.7372 S.3       23 UNK        -0.2404 
    126 C126       -6.7288  -15.9963  -48.7460 C.3       23 UNK        -0.0205 
    127 H127       -1.1522  -11.4355  -49.0782 H         1 UNK         0.0600 
    128 H128        0.0174  -12.6964  -49.4825 H         1 UNK         0.0600 
    129 H129        0.5598  -11.2051  -48.7048 H         1 UNK         0.0600 
    130 H130       -2.3069  -11.8325  -47.1925 H         1 UNK         0.3000 
    131 H131       -1.3176  -13.8032  -45.2331 H         1 UNK         0.0600 
    132 H132       -3.6987  -13.8282  -46.2159 H         1 UNK         0.0800 
    133 H133       -4.0539  -12.4508  -45.2061 H         1 UNK         0.0800 
    134 H134       -5.8375  -14.9955  -43.0230 H         1 UNK         0.0800 
    135 H135       -5.9658  -13.7587  -44.2416 H         1 UNK         0.0800 
    136 H136       -5.9338  -14.3996  -46.6896 H         1 UNK         0.1150 
    137 H137       -7.0604  -18.4322  -47.5826 H         1 UNK         0.1150 
    138 H138       -5.9389  -17.3543  -43.5848 H         1 UNK         0.1150 
    139 H139       -6.4252  -19.6341  -44.0457 H         1 UNK         0.0800 
    140 H140       -7.9092  -19.5701  -44.9622 H         1 UNK         0.0800 
    141 H141       -4.2005  -20.4658  -44.8387 H         1 UNK         0.0800 
    142 H142       -4.0943  -19.7519  -46.4278 H         1 UNK         0.0800 
    143 H143       -4.0898  -22.1581  -47.3780 H         1 UNK         0.0600 
    144 H144       -1.9542  -20.6216  -46.5284 H         1 UNK         0.3000 
    145 H145        0.7432  -22.7861  -47.5135 H         1 UNK         0.0600 
    146 H146       -0.3790  -20.1187  -48.5299 H         1 UNK         0.0600 
    147 H147        1.2651  -20.7114  -48.7578 H         1 UNK         0.0600 
    148 H148       -0.0876  -21.5484  -49.5041 H         1 UNK         0.0600 
    149 H149        0.4998  -20.2005  -46.1916 H         1 UNK         0.3000 
    150 H150        0.7424  -21.4671  -42.8893 H         1 UNK         0.0600 
    151 H151        3.1270  -21.4081  -43.5358 H         1 UNK         0.0600 
    152 H152        2.6757  -19.8834  -42.7873 H         1 UNK         0.0600 
    153 H153        2.8625  -19.9882  -44.5375 H         1 UNK         0.0600 
    154 H154        0.6764  -18.8388  -44.1059 H         1 UNK         0.3000 
    155 H155       -2.8837  -18.5170  -44.0708 H         1 UNK         0.0600 
    156 H156       -2.2400  -18.1904  -41.6642 H         1 UNK         0.0600 
    157 H157       -2.4171  -16.6631  -42.5043 H         1 UNK         0.0600 
    158 H158       -0.8085  -17.2999  -42.1681 H         1 UNK         0.0600 
    159 H159       -0.8551  -16.6002  -44.5456 H         1 UNK         0.3000 
    160 H160        0.1793  -17.5118  -47.7649 H         1 UNK         0.0600 
    161 H161       -1.8989  -15.3255  -47.2401 H         1 UNK         0.0600 
    162 H162       -2.0336  -16.5984  -48.4419 H         1 UNK         0.0600 
    163 H163       -0.7795  -15.3810  -48.6052 H         1 UNK         0.0600 
    164 H164        0.5881  -15.0334  -46.5737 H         1 UNK         0.3000 
    165 H165        1.9373  -14.7859  -44.4009 H         1 UNK         0.0600 
    166 H166        4.3416  -16.6645  -44.6774 H         1 UNK         0.0600 
    167 H167        4.2759  -15.2140  -43.6753 H         1 UNK         0.0600 
    168 H168        3.2410  -16.5849  -43.3082 H         1 UNK         0.0600 
    169 H169        2.9236  -13.5447  -45.9490 H         1 UNK         0.3000 
    170 H170        5.3213  -14.1377  -48.5039 H         1 UNK         0.0600 
    171 H171        2.5730  -12.8011  -48.5382 H         1 UNK         0.0600 
    172 H172        3.8850  -12.5156  -49.6773 H         1 UNK         0.0600 
    173 H173        3.1031  -14.0882  -49.6059 H         1 UNK         0.0600 
    174 H174        6.0470  -12.5216  -47.2420 H         1 UNK         0.3000 
    175 H175        6.3082  -11.0185  -45.6450 H         1 UNK         0.0600 
    176 H176        4.2832   -8.9276  -46.6281 H         1 UNK         0.0600 
    177 H177        5.9059   -8.5817  -46.0299 H         1 UNK         0.0600 
    178 H178        5.6924   -9.4910  -47.5183 H         1 UNK         0.0600 
    179 H179        3.9847   -9.7424  -44.3292 H         1 UNK         0.3000 
    180 H180        4.1283  -11.7902  -41.4697 H         1 UNK         0.0600 
    181 H181        5.7922  -10.0212  -40.8883 H         1 UNK         0.0600 
    182 H182        4.2007   -9.6236  -40.2611 H         1 UNK         0.0600 
    183 H183        4.8109   -8.8085  -41.7018 H         1 UNK         0.0600 
    184 H184        2.5113   -9.5416  -42.2328 H         1 UNK         0.3000 
    185 H185       -0.0308  -10.5663  -42.5061 H         1 UNK         0.0600 
    186 H186       -0.2482   -9.0229  -44.5168 H         1 UNK         0.0600 
    187 H187        1.1485   -8.6239  -43.5394 H         1 UNK         0.0600 
    188 H188        1.3579   -9.5139  -45.0466 H         1 UNK         0.0600 
    189 H189        0.4802  -12.2763  -44.8237 H         1 UNK         0.3000 
    190 H190       -2.3594  -22.4061  -44.2559 H         1 UNK         0.3000 
    191 H191       -3.8569  -24.4906  -43.0893 H         1 UNK         0.0600 
    192 H192       -0.8949  -23.7644  -42.7786 H         1 UNK         0.0600 
    193 H193       -2.2319  -23.0780  -41.8575 H         1 UNK         0.0600 
    194 H194       -1.8154  -24.7743  -41.6696 H         1 UNK         0.0600 
    195 H195       -1.6544  -24.6610  -45.7771 H         1 UNK         0.3000 
    196 H196       -1.4635  -27.6350  -45.6566 H         1 UNK         0.0600 
    197 H197        0.7075  -26.3928  -45.7811 H         1 UNK         0.0600 
    198 H198        0.1738  -25.5957  -47.2567 H         1 UNK         0.0600 
    199 H199        0.4199  -27.3385  -47.2317 H         1 UNK         0.0600 
    200 H200       -3.8589  -25.9785  -46.3998 H         1 UNK         0.3000 
    201 H201       -5.5571  -25.9704  -47.8111 H         1 UNK         0.0600 
    202 H202       -5.9551  -27.9025  -49.2957 H         1 UNK         0.0600 
    203 H203       -5.3409  -28.4607  -47.7479 H         1 UNK         0.0600 
    204 H204       -4.2805  -28.4148  -49.1555 H         1 UNK         0.0600 
    205 H205       -3.7584  -24.1077  -48.2760 H         1 UNK         0.3000 
    206 H206       -3.0312  -22.5067  -49.6548 H         1 UNK         0.0600 
    207 H207       -5.2535  -22.3471  -50.6134 H         1 UNK         0.0600 
    208 H208       -4.9779  -23.7166  -51.6812 H         1 UNK         0.0600 
    209 H209       -4.0948  -22.2254  -51.9255 H         1 UNK         0.0600 
    210 H210       -1.4472  -24.6481  -49.2055 H         1 UNK         0.3000 
    211 H211        0.2875  -25.9132  -49.7839 H         1 UNK         0.0600 
    212 H212        1.2624  -23.6662  -50.3836 H         1 UNK         0.0600 
    213 H213        1.9492  -24.9753  -51.3337 H         1 UNK         0.0600 
    214 H214        0.7545  -23.9113  -52.0564 H         1 UNK         0.0600 
    215 H215       -1.9110  -27.1200  -50.4639 H         1 UNK         0.3000 
    216 H216       -3.0844  -28.5018  -51.7448 H         1 UNK         0.0600 
    217 H217       -1.8697  -30.1174  -53.1687 H         1 UNK         0.0600 
    218 H218       -0.4397  -29.0947  -53.1803 H         1 UNK         0.0600 
    219 H219       -0.9791  -29.8461  -51.6794 H         1 UNK         0.0600 
    220 H220       -3.5219  -26.0133  -52.3841 H         1 UNK         0.3000 
    221 H221       -4.4003  -24.5569  -53.7547 H         1 UNK         0.0600 
    222 H222       -4.7185  -26.8072  -55.8012 H         1 UNK         0.0600 
    223 H223       -5.8217  -26.4898  -54.4621 H         1 UNK         0.0600 
    224 H224       -5.6287  -25.3056  -55.7421 H         1 UNK         0.0600 
    225 H225       -1.3458  -25.3077  -54.1611 H         1 UNK         0.3000 
    226 H226       -0.8242  -24.1952  -56.8177 H         1 UNK         0.0600 
    227 H227        0.5850  -26.0186  -55.7841 H         1 UNK         0.0600 
    228 H228        1.5148  -24.6065  -56.2655 H         1 UNK         0.0600 
    229 H229        1.1375  -24.8633  -54.5700 H         1 UNK         0.0600 
    230 H230       -1.2202  -22.8967  -53.5813 H         1 UNK         0.3000 
    231 H231       -0.2577  -20.2149  -54.4528 H         1 UNK         0.0600 
    232 H232        0.9470  -19.9619  -52.3167 H         1 UNK         0.0600 
    233 H233        1.6014  -21.3406  -53.1884 H         1 UNK         0.0600 
    234 H234        0.5094  -21.5919  -51.8273 H         1 UNK         0.0600 
    235 H235       -2.7819  -20.6677  -54.7192 H         1 UNK         0.3000 
    236 H236       -4.3754  -20.0132  -52.3584 H         1 UNK         0.0600 
    237 H237       -5.3330  -21.3267  -54.2534 H         1 UNK         0.0600 
    238 H238       -6.2033  -19.8141  -54.0485 H         1 UNK         0.0600 
    239 H239       -5.0386  -19.9816  -55.3562 H         1 UNK         0.0600 
    240 H240       -5.4685  -18.0319  -52.0163 H         1 UNK         0.3000 
    241 H241       -3.9344  -15.6762  -52.3673 H         1 UNK         0.0600 
    242 H242       -4.1968  -13.8141  -53.7333 H         1 UNK         0.3800 
    243 H243       -5.2757  -13.8296  -55.0983 H         1 UNK         0.3800 
    244 H244       -5.8927  -14.5150  -51.3158 H         1 UNK         0.0800 
    245 H245       -6.8536  -15.9625  -51.4959 H         1 UNK         0.0800 
    246 H246       -7.5200  -16.6153  -49.1721 H         1 UNK         0.0800 
    247 H247       -7.0790  -14.9645  -48.8050 H         1 UNK         0.0800 
@<TRIPOS>BOND
     1    1    2 1    
     2    1  127 1    
     3    1  128 1    
     4    1  129 1    
     5    2    3 2    
     6    2    4 am   BACKBONE|DICT|INTERRES
     7    4    5 1    
     8    4  130 1    
     9    5    6 1    
    10    5   65 1    
    11    5  131 1    
    12    6    7 1    
    13    6  132 1    
    14    6  133 1    
    15    7    8 1    
    16    8    9 1    
    17    8  134 1    
    18    8  135 1    
    19    9   10 ar   
    20    9   14 ar   
    21   10   11 ar   
    22   10  136 1    
    23   11   12 ar   
    24   11  126 1    
    25   12   13 ar   
    26   12  137 1    
    27   13   14 ar   
    28   13   15 1    
    29   14  138 1    
    30   15   16 1    
    31   15  139 1    
    32   15  140 1    
    33   16   17 1    
    34   17   18 1    
    35   17  141 1    
    36   17  142 1    
    37   18   19 1    
    38   18   67 1    
    39   18  143 1    
    40   19   20 am   BACKBONE|DICT|INTERRES
    41   19  144 1    
    42   20   21 2    
    43   20   22 1    
    44   22   23 1    
    45   22   24 1    
    46   22  145 1    
    47   23  146 1    
    48   23  147 1    
    49   23  148 1    
    50   24   25 am   BACKBONE|DICT|INTERRES
    51   24  149 1    
    52   25   26 2    
    53   25   27 1    
    54   27   28 1    
    55   27   29 1    
    56   27  150 1    
    57   28  151 1    
    58   28  152 1    
    59   28  153 1    
    60   29   30 am   BACKBONE|DICT|INTERRES
    61   29  154 1    
    62   30   31 2    
    63   30   32 1    
    64   32   33 1    
    65   32   34 1    
    66   32  155 1    
    67   33  156 1    
    68   33  157 1    
    69   33  158 1    
    70   34   35 am   BACKBONE|DICT|INTERRES
    71   34  159 1    
    72   35   36 2    
    73   35   37 1    
    74   37   38 1    
    75   37   39 1    
    76   37  160 1    
    77   38  161 1    
    78   38  162 1    
    79   38  163 1    
    80   39   40 am   BACKBONE|DICT|INTERRES
    81   39  164 1    
    82   40   41 2    
    83   40   42 1    
    84   42   43 1    
    85   42   44 1    
    86   42  165 1    
    87   43  166 1    
    88   43  167 1    
    89   43  168 1    
    90   44   45 am   BACKBONE|DICT|INTERRES
    91   44  169 1    
    92   45   46 2    
    93   45   47 1    
    94   47   48 1    
    95   47   49 1    
    96   47  170 1    
    97   48  171 1    
    98   48  172 1    
    99   48  173 1    
   100   49   50 am   BACKBONE|DICT|INTERRES
   101   49  174 1    
   102   50   51 2    
   103   50   52 1    
   104   52   53 1    
   105   52   54 1    
   106   52  175 1    
   107   53  176 1    
   108   53  177 1    
   109   53  178 1    
   110   54   55 am   BACKBONE|DICT|INTERRES
   111   54  179 1    
   112   55   56 2    
   113   55   57 1    
   114   57   58 1    
   115   57   59 1    
   116   57  180 1    
   117   58  181 1    
   118   58  182 1    
   119   58  183 1    
   120   59   60 am   BACKBONE|DICT|INTERRES
   121   59  184 1    
   122   60   61 2    
   123   60   62 1    
   124   62   63 1    
   125   62   64 1    
   126   62  185 1    
   127   63  186 1    
   128   63  187 1    
   129   63  188 1    
   130   64   65 am   BACKBONE|DICT|INTERRES
   131   64  189 1    
   132   65   66 2    
   133   67   68 2    
   134   67   69 am   BACKBONE|DICT|INTERRES
   135   69   70 1    
   136   69  190 1    
   137   70   71 1    
   138   70   72 1    
   139   70  191 1    
   140   71  192 1    
   141   71  193 1    
   142   71  194 1    
   143   72   73 2    
   144   72   74 am   BACKBONE|DICT|INTERRES
   145   74   75 1    
   146   74  195 1    
   147   75   76 1    
   148   75   77 1    
   149   75  196 1    
   150   76  197 1    
   151   76  198 1    
   152   76  199 1    
   153   77   78 2    
   154   77   79 am   BACKBONE|DICT|INTERRES
   155   79   80 1    
   156   79  200 1    
   157   80   81 1    
   158   80   82 1    
   159   80  201 1    
   160   81  202 1    
   161   81  203 1    
   162   81  204 1    
   163   82   83 2    
   164   82   84 am   BACKBONE|DICT|INTERRES
   165   84   85 1    
   166   84  205 1    
   167   85   86 1    
   168   85   87 1    
   169   85  206 1    
   170   86  207 1    
   171   86  208 1    
   172   86  209 1    
   173   87   88 2    
   174   87   89 am   BACKBONE|DICT|INTERRES
   175   89   90 1    
   176   89  210 1    
   177   90   91 1    
   178   90   92 1    
   179   90  211 1    
   180   91  212 1    
   181   91  213 1    
   182   91  214 1    
   183   92   93 2    
   184   92   94 am   BACKBONE|DICT|INTERRES
   185   94   95 1    
   186   94  215 1    
   187   95   96 1    
   188   95   97 1    
   189   95  216 1    
   190   96  217 1    
   191   96  218 1    
   192   96  219 1    
   193   97   98 2    
   194   97   99 am   BACKBONE|DICT|INTERRES
   195   99  100 1    
   196   99  220 1    
   197  100  101 1    
   198  100  102 1    
   199  100  221 1    
   200  101  222 1    
   201  101  223 1    
   202  101  224 1    
   203  102  103 2    
   204  102  104 am   BACKBONE|DICT|INTERRES
   205  104  105 1    
   206  104  225 1    
   207  105  106 1    
   208  105  107 1    
   209  105  226 1    
   210  106  227 1    
   211  106  228 1    
   212  106  229 1    
   213  107  108 2    
   214  107  109 am   BACKBONE|DICT|INTERRES
   215  109  110 1    
   216  109  230 1    
   217  110  111 1    
   218  110  112 1    
   219  110  231 1    
   220  111  232 1    
   221  111  233 1    
   222  111  234 1    
   223  112  113 2    
   224  112  114 am   BACKBONE|DICT|INTERRES
   225  114  115 1    
   226  114  235 1    
   227  115  116 1    
   228  115  117 1    
   229  115  236 1    
   230  116  237 1    
   231  116  238 1    
   232  116  239 1    
   233  117  118 2    
   234  117  119 am   BACKBONE|DICT|INTERRES
   235  119  120 1    
   236  119  240 1    
   237  120  121 1    
   238  120  124 1    
   239  120  241 1    
   240  121  122 am   BACKBONE|DICT|INTERRES
   241  121  123 2    
   242  122  242 1    
   243  122  243 1    
   244  124  125 1    
   245  124  244 1    
   246  124  245 1    
   247  125  126 1    
   248  126  246 1    
   249  126  247 1    
@<TRIPOS>SUBSTRUCTURE
     1 UNK         1 GROUP             0       ****    0 ROOT    
