@<TRIPOS>MOLECULE
3R540
247   249    1
SMALL
USER_CHARGES


@<TRIPOS>ATOM
      1 CA          4.0948  -10.5172  -47.7861 C.3       0 UNK        -0.1800 
      2 C           5.5183  -11.0653  -47.8791 C.2       0 UNK         0.5000 
      3 O           6.4585  -10.2744  -47.8453 O.2       0 UNK        -0.5000 
      4 N           5.7545  -12.3828  -47.9882 N.am      1 UNK        -0.5000 
      5 CA          4.8095  -13.5118  -48.0555 C.3       1 UNK         0.1400 
      6 C6          3.8419  -13.4750  -49.2709 C.3       23 UNK        -0.0398 
      7 S7          4.7189  -13.4808  -50.8751 S.3       23 UNK        -0.2404 
      8 C8          5.2006  -15.2328  -51.0650 C.3       23 UNK        -0.0205 
      9 C9          4.0015  -16.1672  -51.0239 C.ar      23 UNK        -0.0193 
     10 C10         3.1813  -16.3104  -52.1462 C.ar      23 UNK        -0.1150 
     11 C11         2.0380  -17.1122  -52.0886 C.ar      23 UNK        -0.0193 
     12 C12         1.7183  -17.7682  -50.8970 C.ar      23 UNK        -0.1150 
     13 C13         2.5457  -17.6545  -49.7760 C.ar      23 UNK        -0.0193 
     14 C14         3.6929  -16.8619  -49.8505 C.ar      23 UNK        -0.1150 
     15 C15         2.1787  -18.3334  -48.4658 C.3       23 UNK        -0.0205 
     16 S16         2.7876  -20.0452  -48.3777 S.3       23 UNK        -0.2404 
     17 C17         1.4118  -20.9595  -49.1572 C.3       23 UNK        -0.0398 
     18 CA          0.4818  -21.6304  -48.1191 C.3       11 UNK         0.1400 
     19 N          -0.0846  -20.6760  -47.1627 N.am      11 UNK        -0.5000 
     20 C          -0.6987  -21.0145  -46.0219 C.2       10 UNK         0.5000 
     21 O          -0.8703  -22.1745  -45.6507 O.2       10 UNK        -0.5000 
     22 CA         -1.2597  -19.8522  -45.1871 C.3       10 UNK         0.1400 
     23 CB         -0.1343  -19.1900  -44.3776 C.3       10 UNK        -0.1800 
     24 N          -1.9302  -18.8520  -46.0228 N.am      10 UNK        -0.5000 
     25 C          -3.0432  -19.0958  -46.7339 C.2       9 UNK         0.5000 
     26 O          -3.6073  -20.1895  -46.7531 O.2       9 UNK        -0.5000 
     27 CA         -3.6171  -17.9616  -47.5996 C.3       9 UNK         0.1400 
     28 CB         -4.8831  -17.3649  -46.9675 C.3       9 UNK        -0.1800 
     29 N          -2.6571  -16.8967  -47.8736 N.am      9 UNK        -0.5000 
     30 C          -1.6688  -16.9981  -48.7729 C.2       8 UNK         0.5000 
     31 O          -1.4802  -17.9998  -49.4652 O.2       8 UNK        -0.5000 
     32 CA         -0.7066  -15.7990  -48.8925 C.3       8 UNK         0.1400 
     33 CB         -1.1560  -14.8603  -50.0212 C.3       8 UNK        -0.1800 
     34 N          -0.5434  -15.0318  -47.6547 N.am      8 UNK        -0.5000 
     35 C          -0.0945  -15.5272  -46.4922 C.2       7 UNK         0.5000 
     36 O           0.2078  -16.7096  -46.3299 O.2       7 UNK        -0.5000 
     37 CA         -0.0058  -14.5667  -45.2894 C.3       7 UNK         0.1400 
     38 CB         -0.2298  -13.0807  -45.6427 C.3       7 UNK        -0.1800 
     39 N          -0.8957  -14.9704  -44.1965 N.am      7 UNK        -0.5000 
     40 C          -2.2183  -15.1982  -44.2580 C.2       6 UNK         0.5000 
     41 O          -2.8757  -15.0999  -45.2950 O.2       6 UNK        -0.5000 
     42 CA         -2.9385  -15.6129  -42.9540 C.3       6 UNK         0.1400 
     43 CB         -3.4304  -17.0676  -43.0325 C.3       6 UNK        -0.1800 
     44 N          -2.1089  -15.4756  -41.7560 N.am      6 UNK        -0.5000 
     45 C          -1.8380  -14.3244  -41.1254 C.2       5 UNK         0.5000 
     46 O          -2.3296  -13.2404  -41.4400 O.2       5 UNK        -0.5000 
     47 CA         -0.8193  -14.3939  -39.9656 C.3       5 UNK         0.1400 
     48 CB         -1.5480  -14.4723  -38.6154 C.3       5 UNK        -0.1800 
     49 N           0.1276  -15.5141  -40.0641 N.am      5 UNK        -0.5000 
     50 C           0.9899  -15.6968  -41.0728 C.2       4 UNK         0.5000 
     51 O           1.0817  -14.9223  -42.0318 O.2       4 UNK        -0.5000 
     52 CA          1.8508  -16.9715  -41.0406 C.3       4 UNK         0.1400 
     53 CB          0.9976  -18.2473  -40.8994 C.3       4 UNK        -0.1800 
     54 N           2.6013  -16.9933  -42.2874 N.am      4 UNK        -0.5000 
     55 C           3.7274  -17.6560  -42.5593 C.2       3 UNK         0.5000 
     56 O           4.2382  -18.4894  -41.8104 O.2       3 UNK        -0.5000 
     57 CA          4.4158  -17.2859  -43.8897 C.3       3 UNK         0.1400 
     58 CB          3.9712  -18.2352  -45.0123 C.3       3 UNK        -0.1800 
     59 N           4.1522  -15.9030  -44.3066 N.am      3 UNK        -0.5000 
     60 C           4.5773  -14.8071  -43.6624 C.2       2 UNK         0.5000 
     61 O           5.3037  -14.8431  -42.6677 O.2       2 UNK        -0.5000 
     62 CA          4.1256  -13.4531  -44.2490 C.3       2 UNK         0.1400 
     63 CB          4.5689  -12.2527  -43.3942 C.3       2 UNK        -0.1800 
     64 N           4.6265  -13.2685  -45.6106 N.am      2 UNK        -0.5000 
     65 C           4.0927  -13.8022  -46.7169 C.2       1 UNK         0.5000 
     66 O           3.0940  -14.5223  -46.6950 O.2       1 UNK        -0.5000 
     67 C          -0.6277  -22.4344  -48.8229 C.2       11 UNK         0.5000 
     68 O          -0.4772  -23.6416  -49.0026 O.2       11 UNK        -0.5000 
     69 N          -1.7377  -21.7633  -49.1677 N.am      12 UNK        -0.5000 
     70 CA         -2.9172  -22.3783  -49.7793 C.3       12 UNK         0.1400 
     71 CB         -3.8833  -21.2801  -50.2465 C.3       12 UNK        -0.1800 
     72 C          -3.6277  -23.3628  -48.8328 C.2       12 UNK         0.5000 
     73 O          -4.0927  -24.4114  -49.2839 O.2       12 UNK        -0.5000 
     74 N          -3.6838  -23.0173  -47.5396 N.am      13 UNK        -0.5000 
     75 CA         -4.1903  -23.8776  -46.4733 C.3       13 UNK         0.1400 
     76 CB         -4.4000  -23.0503  -45.1964 C.3       13 UNK        -0.1800 
     77 C          -3.2638  -25.0778  -46.2106 C.2       13 UNK         0.5000 
     78 O          -3.7521  -26.2037  -46.1210 O.2       13 UNK        -0.5000 
     79 N          -1.9469  -24.8307  -46.1352 N.am      14 UNK        -0.5000 
     80 CA         -0.9132  -25.8524  -45.9333 C.3       14 UNK         0.1400 
     81 CB          0.4484  -25.1749  -45.7198 C.3       14 UNK        -0.1800 
     82 C          -0.8331  -26.8757  -47.0821 C.2       14 UNK         0.5000 
     83 O          -0.6257  -28.0624  -46.8271 O.2       14 UNK        -0.5000 
     84 N          -1.0402  -26.4058  -48.3194 N.am      15 UNK        -0.5000 
     85 CA         -1.1427  -27.2281  -49.5269 C.3       15 UNK         0.1400 
     86 CB         -0.9754  -26.3186  -50.7552 C.3       15 UNK        -0.1800 
     87 C          -2.4659  -28.0153  -49.6295 C.2       15 UNK         0.5000 
     88 O          -2.5795  -28.8775  -50.5014 O.2       15 UNK        -0.5000 
     89 N          -3.4445  -27.6878  -48.7704 N.am      16 UNK        -0.5000 
     90 CA         -4.8181  -28.2019  -48.7334 C.3       16 UNK         0.1400 
     91 CB         -4.8415  -29.7135  -48.4253 C.3       16 UNK        -0.1800 
     92 C          -5.6420  -27.8262  -49.9839 C.2       16 UNK         0.5000 
     93 O          -6.6174  -28.5065  -50.3069 O.2       16 UNK        -0.5000 
     94 N          -5.2451  -26.7382  -50.6569 N.am      17 UNK        -0.5000 
     95 CA         -5.9451  -26.1644  -51.8025 C.3       17 UNK         0.1400 
     96 CB         -4.9481  -25.3568  -52.6496 C.3       17 UNK        -0.1800 
     97 C          -7.1101  -25.2736  -51.3443 C.2       17 UNK         0.5000 
     98 O          -8.1683  -25.2868  -51.9730 O.2       17 UNK        -0.5000 
     99 N          -6.8807  -24.5175  -50.2571 N.am      18 UNK        -0.5000 
    100 CA        -7.8123  -23.5914  -49.5982 C.3       18 UNK         0.1400 
    101 CB        -8.9761  -24.3671  -48.9486 C.3       18 UNK        -0.1800 
    102 C         -8.2979  -22.4344  -50.5030 C.2       18 UNK         0.5000 
    103 O         -9.3552  -21.8548  -50.2522 O.2       18 UNK        -0.5000 
    104 N         -7.5044  -22.1048  -51.5318 N.am      19 UNK        -0.5000 
    105 CA        -7.7895  -21.0739  -52.5339 C.3       19 UNK         0.1400 
    106 CB        -6.9252  -21.3579  -53.7730 C.3       19 UNK        -0.1800 
    107 C         -7.5607  -19.6330  -52.0318 C.2       19 UNK         0.5000 
    108 O         -7.9329  -18.6883  -52.7276 O.2       19 UNK        -0.5000 
    109 N         -6.9348  -19.4949  -50.8528 N.am      20 UNK        -0.5000 
    110 CA        -6.5711  -18.2528  -50.1579 C.3       20 UNK         0.1400 
    111 CB        -7.8184  -17.4076  -49.8277 C.3       20 UNK        -0.1800 
    112 C         -5.4656  -17.4265  -50.8544 C.2       20 UNK         0.5000 
    113 O         -5.2152  -16.2894  -50.4544 O.2       20 UNK        -0.5000 
    114 N         -4.8014  -18.0180  -51.8517 N.am      21 UNK        -0.5000 
    115 CA        -3.7151  -17.4600  -52.6474 C.3       21 UNK         0.1400 
    116 CB        -4.2299  -16.3031  -53.5301 C.3       21 UNK        -0.1800 
    117 C         -3.1306  -18.5918  -53.5082 C.2       21 UNK         0.5000 
    118 O         -3.6712  -19.7015  -53.5148 O.2       21 UNK        -0.5000 
    119 N         -2.0511  -18.2857  -54.2350 N.am      22 UNK        -0.5000 
    120 CA        -1.3876  -19.2039  -55.1782 C.3       22 UNK         0.1400 
    121 C         -2.1391  -19.3943  -56.5310 C.2       22 UNK         0.5000 
    122 N         -3.1795  -18.6279  -56.8362 N.am      22 UNK        -0.7600 
    123 O         -1.7735  -20.2622  -57.3190 O.2       22 UNK        -0.5000 
    124 C124        0.0880  -18.7946  -55.4237 C.3       23 UNK        -0.0398 
    125 S125        1.1248  -18.9567  -53.9316 S.3       23 UNK        -0.2404 
    126 C126        1.1301  -17.2497  -53.2999 C.3       23 UNK        -0.0205 
    127 H127        4.0916   -9.5860  -47.2194 H         1 UNK         0.0600 
    128 H128        3.4048  -11.1947  -47.2882 H         1 UNK         0.0600 
    129 H129        3.7126  -10.2989  -48.7831 H         1 UNK         0.0600 
    130 H130        6.7227  -12.6652  -48.0509 H         1 UNK         0.3000 
    131 H131        5.4433  -14.3884  -48.1922 H         1 UNK         0.0600 
    132 H132        3.1450  -14.3119  -49.2506 H         1 UNK         0.0800 
    133 H133        3.2045  -12.5933  -49.2401 H         1 UNK         0.0800 
    134 H134        5.7212  -15.3531  -52.0162 H         1 UNK         0.0800 
    135 H135        5.9224  -15.4993  -50.2919 H         1 UNK         0.0800 
    136 H136        3.4229  -15.7773  -53.0550 H         1 UNK         0.1150 
    137 H137        0.8153  -18.3583  -50.8493 H         1 UNK         0.1150 
    138 H138        4.3241  -16.7540  -48.9796 H         1 UNK         0.1150 
    139 H139        2.5942  -17.7666  -47.6320 H         1 UNK         0.0800 
    140 H140        1.0992  -18.3159  -48.3234 H         1 UNK         0.0800 
    141 H141        1.8522  -21.7156  -49.8097 H         1 UNK         0.0800 
    142 H142        0.8431  -20.2979  -49.8091 H         1 UNK         0.0800 
    143 H143        1.0836  -22.3425  -47.5504 H         1 UNK         0.0600 
    144 H144        0.0030  -19.6968  -47.3882 H         1 UNK         0.3000 
    145 H145       -1.9972  -20.2543  -44.4892 H         1 UNK         0.0600 
    146 H146       -0.4732  -18.2807  -43.8841 H         1 UNK         0.0600 
    147 H147        0.2397  -19.8669  -43.6088 H         1 UNK         0.0600 
    148 H148        0.7119  -18.9215  -45.0092 H         1 UNK         0.0600 
    149 H149       -1.4760  -17.9494  -46.1028 H         1 UNK         0.3000 
    150 H150       -3.8987  -18.4145  -48.5506 H         1 UNK         0.0600 
    151 H151       -5.6233  -18.1390  -46.7607 H         1 UNK         0.0600 
    152 H152       -5.3489  -16.6374  -47.6320 H         1 UNK         0.0600 
    153 H153       -4.6690  -16.8591  -46.0288 H         1 UNK         0.0600 
    154 H154       -2.7236  -16.0634  -47.3002 H         1 UNK         0.3000 
    155 H155        0.2755  -16.1872  -49.1542 H         1 UNK         0.0600 
    156 H156       -2.1302  -14.4164  -49.8116 H         1 UNK         0.0600 
    157 H157       -1.2368  -15.3989  -50.9663 H         1 UNK         0.0600 
    158 H158       -0.4402  -14.0519  -50.1715 H         1 UNK         0.0600 
    159 H159       -0.8008  -14.0566  -47.6908 H         1 UNK         0.3000 
    160 H160        1.0096  -14.6646  -44.9053 H         1 UNK         0.0600 
    161 H161       -1.2408  -12.8902  -46.0046 H         1 UNK         0.0600 
    162 H162        0.4735  -12.7473  -46.4072 H         1 UNK         0.0600 
    163 H163       -0.0707  -12.4495  -44.7682 H         1 UNK         0.0600 
    164 H164       -0.4357  -15.0664  -43.2980 H         1 UNK         0.3000 
    165 H165       -3.8118  -14.9658  -42.8494 H         1 UNK         0.0600 
    166 H166       -3.9844  -17.3432  -42.1350 H         1 UNK         0.0600 
    167 H167       -4.1019  -17.2145  -43.8767 H         1 UNK         0.0600 
    168 H168       -2.6061  -17.7707  -43.1432 H         1 UNK         0.0600 
    169 H169       -1.6713  -16.3171  -41.4122 H         1 UNK         0.3000 
    170 H170       -0.2404  -13.4683  -39.9885 H         1 UNK         0.0600 
    171 H171       -2.2411  -13.6384  -38.4958 H         1 UNK         0.0600 
    172 H172       -2.1240  -15.3938  -38.5221 H         1 UNK         0.0600 
    173 H173       -0.8446  -14.4289  -37.7836 H         1 UNK         0.0600 
    174 H174        0.1034  -16.1872  -39.3116 H         1 UNK         0.3000 
    175 H175        2.5496  -16.8952  -40.2055 H         1 UNK         0.0600 
    176 H176        0.1912  -18.2760  -41.6308 H         1 UNK         0.0600 
    177 H177        1.5980  -19.1477  -41.0292 H         1 UNK         0.0600 
    178 H178        0.5432  -18.3089  -39.9104 H         1 UNK         0.0600 
    179 H179        2.2936  -16.2829  -42.9399 H         1 UNK         0.3000 
    180 H180        5.4924  -17.3998  -43.7478 H         1 UNK         0.0600 
    181 H181        4.5250  -18.0459  -45.9321 H         1 UNK         0.0600 
    182 H182        2.9095  -18.1236  -45.2316 H         1 UNK         0.0600 
    183 H183        4.1430  -19.2770  -44.7387 H         1 UNK         0.0600 
    184 H184        3.5964  -15.7714  -45.1448 H         1 UNK         0.3000 
    185 H185        3.0339  -13.4549  -44.2661 H         1 UNK         0.0600 
    186 H186        4.1876  -12.3366  -42.3756 H         1 UNK         0.0600 
    187 H187        5.6554  -12.1771  -43.3351 H         1 UNK         0.0600 
    188 H188        4.1899  -11.3165  -43.8047 H         1 UNK         0.0600 
    189 H189        5.4746  -12.7284  -45.7060 H         1 UNK         0.3000 
    190 H190       -1.7872  -20.7736  -48.9745 H         1 UNK         0.3000 
    191 H191       -2.5864  -22.9386  -50.6564 H         1 UNK         0.0600 
    192 H192       -3.3783  -20.5620  -50.8924 H         1 UNK         0.0600 
    193 H193       -4.7057  -21.7080  -50.8191 H         1 UNK         0.0600 
    194 H194       -4.3114  -20.7321  -49.4070 H         1 UNK         0.0600 
    195 H195       -3.3493  -22.1007  -47.2597 H         1 UNK         0.3000 
    196 H196       -5.1617  -24.2678  -46.7850 H         1 UNK         0.0600 
    197 H197       -4.7911  -23.6700  -44.3886 H         1 UNK         0.0600 
    198 H198       -5.1146  -22.2443  -45.3642 H         1 UNK         0.0600 
    199 H199       -3.4697  -22.6017  -44.8469 H         1 UNK         0.0600 
    200 H200       -1.6256  -23.8670  -46.1698 H         1 UNK         0.3000 
    201 H201       -1.1650  -26.4001  -45.0229 H         1 UNK         0.0600 
    202 H202        0.4285  -24.5132  -44.8538 H         1 UNK         0.0600 
    203 H203        0.7427  -24.5840  -46.5872 H         1 UNK         0.0600 
    204 H204        1.2307  -25.9146  -45.5451 H         1 UNK         0.0600 
    205 H205       -1.1165  -25.4012  -48.4519 H         1 UNK         0.3000 
    206 H206       -0.3276  -27.9545  -49.5227 H         1 UNK         0.0600 
    207 H207       -0.0138  -25.8054  -50.7374 H         1 UNK         0.0600 
    208 H208       -1.0176  -26.8934  -51.6812 H         1 UNK         0.0600 
    209 H209       -1.7588  -25.5610  -50.8025 H         1 UNK         0.0600 
    210 H210       -3.2425  -26.9774  -48.0775 H         1 UNK         0.3000 
    211 H211       -5.3026  -27.6934  -47.8990 H         1 UNK         0.0600 
    212 H212       -4.4533  -30.3046  -49.2550 H         1 UNK         0.0600 
    213 H213       -5.8580  -30.0565  -48.2297 H         1 UNK         0.0600 
    214 H214       -4.2474  -29.9438  -47.5409 H         1 UNK         0.0600 
    215 H215       -4.4756  -26.1980  -50.2787 H         1 UNK         0.3000 
    216 H216       -6.3493  -26.9685  -52.4211 H         1 UNK         0.0600 
    217 H217       -4.1399  -25.9912  -53.0140 H         1 UNK         0.0600 
    218 H218       -4.4999  -24.5395  -52.0833 H         1 UNK         0.0600 
    219 H219       -5.4389  -24.9224  -53.5216 H         1 UNK         0.0600 
    220 H220       -5.9590  -24.5827  -49.8350 H         1 UNK         0.3000 
    221 H221       -7.2453  -23.1204  -48.7938 H         1 UNK         0.0600 
    222 H222       -9.6293  -24.8174  -49.6965 H         1 UNK         0.0600 
    223 H223       -8.6061  -25.1640  -48.3034 H         1 UNK         0.0600 
    224 H224       -9.5901  -23.7109  -48.3308 H         1 UNK         0.0600 
    225 H225       -6.6701  -22.6526  -51.6769 H         1 UNK         0.3000 
    226 H226       -8.8393  -21.1523  -52.8241 H         1 UNK         0.0600 
    227 H227       -7.1477  -22.3398  -54.1912 H         1 UNK         0.0600 
    228 H228       -7.1074  -20.6235  -54.5587 H         1 UNK         0.0600 
    229 H229       -5.8610  -21.3282  -53.5371 H         1 UNK         0.0600 
    230 H230       -6.6860  -20.3472  -50.3741 H         1 UNK         0.3000 
    231 H231       -6.1488  -18.5778  -49.2084 H         1 UNK         0.0600 
    232 H232       -7.5670  -16.5850  -49.1574 H         1 UNK         0.0600 
    233 H233       -8.5813  -18.0069  -49.3307 H         1 UNK         0.0600 
    234 H234       -8.2627  -16.9714  -50.7226 H         1 UNK         0.0600 
    235 H235       -5.0392  -18.9663  -52.1151 H         1 UNK         0.3000 
    236 H236       -2.9343  -17.1003  -51.9745 H         1 UNK         0.0600 
    237 H237       -4.6206  -15.4822  -52.9293 H         1 UNK         0.0600 
    238 H238       -3.4347  -15.8859  -54.1483 H         1 UNK         0.0600 
    239 H239       -5.0273  -16.6348  -54.1963 H         1 UNK         0.0600 
    240 H240       -1.6807  -17.3488  -54.1968 H         1 UNK         0.3000 
    241 H241       -1.3758  -20.1939  -54.7176 H         1 UNK         0.0600 
    242 H242       -3.6563  -18.7681  -57.7133 H         1 UNK         0.3800 
    243 H243       -3.4983  -17.9143  -56.2021 H         1 UNK         0.3800 
    244 H244        0.5409  -19.4343  -56.1834 H         1 UNK         0.0800 
    245 H245        0.1491  -17.7781  -55.8156 H         1 UNK         0.0800 
    246 H246        0.1192  -16.9567  -53.0164 H         1 UNK         0.0800 
    247 H247        1.4443  -16.5707  -54.0942 H         1 UNK         0.0800 
@<TRIPOS>BOND
     1    1    2 1    
     2    1  127 1    
     3    1  128 1    
     4    1  129 1    
     5    2    3 2    
     6    2    4 am   BACKBONE|DICT|INTERRES
     7    4    5 1    
     8    4  130 1    
     9    5    6 1    
    10    5   65 1    
    11    5  131 1    
    12    6    7 1    
    13    6  132 1    
    14    6  133 1    
    15    7    8 1    
    16    8    9 1    
    17    8  134 1    
    18    8  135 1    
    19    9   10 ar   
    20    9   14 ar   
    21   10   11 ar   
    22   10  136 1    
    23   11   12 ar   
    24   11  126 1    
    25   12   13 ar   
    26   12  137 1    
    27   13   14 ar   
    28   13   15 1    
    29   14  138 1    
    30   15   16 1    
    31   15  139 1    
    32   15  140 1    
    33   16   17 1    
    34   17   18 1    
    35   17  141 1    
    36   17  142 1    
    37   18   19 1    
    38   18   67 1    
    39   18  143 1    
    40   19   20 am   BACKBONE|DICT|INTERRES
    41   19  144 1    
    42   20   21 2    
    43   20   22 1    
    44   22   23 1    
    45   22   24 1    
    46   22  145 1    
    47   23  146 1    
    48   23  147 1    
    49   23  148 1    
    50   24   25 am   BACKBONE|DICT|INTERRES
    51   24  149 1    
    52   25   26 2    
    53   25   27 1    
    54   27   28 1    
    55   27   29 1    
    56   27  150 1    
    57   28  151 1    
    58   28  152 1    
    59   28  153 1    
    60   29   30 am   BACKBONE|DICT|INTERRES
    61   29  154 1    
    62   30   31 2    
    63   30   32 1    
    64   32   33 1    
    65   32   34 1    
    66   32  155 1    
    67   33  156 1    
    68   33  157 1    
    69   33  158 1    
    70   34   35 am   BACKBONE|DICT|INTERRES
    71   34  159 1    
    72   35   36 2    
    73   35   37 1    
    74   37   38 1    
    75   37   39 1    
    76   37  160 1    
    77   38  161 1    
    78   38  162 1    
    79   38  163 1    
    80   39   40 am   BACKBONE|DICT|INTERRES
    81   39  164 1    
    82   40   41 2    
    83   40   42 1    
    84   42   43 1    
    85   42   44 1    
    86   42  165 1    
    87   43  166 1    
    88   43  167 1    
    89   43  168 1    
    90   44   45 am   BACKBONE|DICT|INTERRES
    91   44  169 1    
    92   45   46 2    
    93   45   47 1    
    94   47   48 1    
    95   47   49 1    
    96   47  170 1    
    97   48  171 1    
    98   48  172 1    
    99   48  173 1    
   100   49   50 am   BACKBONE|DICT|INTERRES
   101   49  174 1    
   102   50   51 2    
   103   50   52 1    
   104   52   53 1    
   105   52   54 1    
   106   52  175 1    
   107   53  176 1    
   108   53  177 1    
   109   53  178 1    
   110   54   55 am   BACKBONE|DICT|INTERRES
   111   54  179 1    
   112   55   56 2    
   113   55   57 1    
   114   57   58 1    
   115   57   59 1    
   116   57  180 1    
   117   58  181 1    
   118   58  182 1    
   119   58  183 1    
   120   59   60 am   BACKBONE|DICT|INTERRES
   121   59  184 1    
   122   60   61 2    
   123   60   62 1    
   124   62   63 1    
   125   62   64 1    
   126   62  185 1    
   127   63  186 1    
   128   63  187 1    
   129   63  188 1    
   130   64   65 am   BACKBONE|DICT|INTERRES
   131   64  189 1    
   132   65   66 2    
   133   67   68 2    
   134   67   69 am   BACKBONE|DICT|INTERRES
   135   69   70 1    
   136   69  190 1    
   137   70   71 1    
   138   70   72 1    
   139   70  191 1    
   140   71  192 1    
   141   71  193 1    
   142   71  194 1    
   143   72   73 2    
   144   72   74 am   BACKBONE|DICT|INTERRES
   145   74   75 1    
   146   74  195 1    
   147   75   76 1    
   148   75   77 1    
   149   75  196 1    
   150   76  197 1    
   151   76  198 1    
   152   76  199 1    
   153   77   78 2    
   154   77   79 am   BACKBONE|DICT|INTERRES
   155   79   80 1    
   156   79  200 1    
   157   80   81 1    
   158   80   82 1    
   159   80  201 1    
   160   81  202 1    
   161   81  203 1    
   162   81  204 1    
   163   82   83 2    
   164   82   84 am   BACKBONE|DICT|INTERRES
   165   84   85 1    
   166   84  205 1    
   167   85   86 1    
   168   85   87 1    
   169   85  206 1    
   170   86  207 1    
   171   86  208 1    
   172   86  209 1    
   173   87   88 2    
   174   87   89 am   BACKBONE|DICT|INTERRES
   175   89   90 1    
   176   89  210 1    
   177   90   91 1    
   178   90   92 1    
   179   90  211 1    
   180   91  212 1    
   181   91  213 1    
   182   91  214 1    
   183   92   93 2    
   184   92   94 am   BACKBONE|DICT|INTERRES
   185   94   95 1    
   186   94  215 1    
   187   95   96 1    
   188   95   97 1    
   189   95  216 1    
   190   96  217 1    
   191   96  218 1    
   192   96  219 1    
   193   97   98 2    
   194   97   99 am   BACKBONE|DICT|INTERRES
   195   99  100 1    
   196   99  220 1    
   197  100  101 1    
   198  100  102 1    
   199  100  221 1    
   200  101  222 1    
   201  101  223 1    
   202  101  224 1    
   203  102  103 2    
   204  102  104 am   BACKBONE|DICT|INTERRES
   205  104  105 1    
   206  104  225 1    
   207  105  106 1    
   208  105  107 1    
   209  105  226 1    
   210  106  227 1    
   211  106  228 1    
   212  106  229 1    
   213  107  108 2    
   214  107  109 am   BACKBONE|DICT|INTERRES
   215  109  110 1    
   216  109  230 1    
   217  110  111 1    
   218  110  112 1    
   219  110  231 1    
   220  111  232 1    
   221  111  233 1    
   222  111  234 1    
   223  112  113 2    
   224  112  114 am   BACKBONE|DICT|INTERRES
   225  114  115 1    
   226  114  235 1    
   227  115  116 1    
   228  115  117 1    
   229  115  236 1    
   230  116  237 1    
   231  116  238 1    
   232  116  239 1    
   233  117  118 2    
   234  117  119 am   BACKBONE|DICT|INTERRES
   235  119  120 1    
   236  119  240 1    
   237  120  121 1    
   238  120  124 1    
   239  120  241 1    
   240  121  122 am   BACKBONE|DICT|INTERRES
   241  121  123 2    
   242  122  242 1    
   243  122  243 1    
   244  124  125 1    
   245  124  244 1    
   246  124  245 1    
   247  125  126 1    
   248  126  246 1    
   249  126  247 1    
@<TRIPOS>SUBSTRUCTURE
     1 UNK         1 GROUP             0       ****    0 ROOT    
