@<TRIPOS>MOLECULE
3R540
247   249    1
SMALL
USER_CHARGES


@<TRIPOS>ATOM
      1 CA          7.6196  -12.8204  -50.1738 C.3       0 UNK        -0.1800 
      2 C           6.3363  -13.6370  -50.1126 C.2       0 UNK         0.5000 
      3 O           6.3944  -14.8631  -50.0144 O.2       0 UNK        -0.5000 
      4 N           5.1802  -12.9648  -50.1788 N.am      1 UNK        -0.5000 
      5 CA          3.8501  -13.5687  -50.0662 C.3       1 UNK         0.1400 
      6 C6          2.7617  -12.6000  -50.6030 C.3       23 UNK        -0.0398 
      7 S7          1.0278  -13.1212  -50.3625 S.3       23 UNK        -0.2404 
      8 C8          0.8902  -14.5377  -51.4976 C.3       23 UNK        -0.0205 
      9 C9         -0.4314  -15.2642  -51.2998 C.ar      23 UNK        -0.0193 
     10 C10        -1.3900  -15.2908  -52.3160 C.ar      23 UNK        -0.1150 
     11 C11        -2.6101  -15.9473  -52.1243 C.ar      23 UNK        -0.0193 
     12 C12        -2.8703  -16.5705  -50.9003 C.ar      23 UNK        -0.1150 
     13 C13        -1.9197  -16.5529  -49.8741 C.ar      23 UNK        -0.0193 
     14 C14        -0.6998  -15.9055  -50.0875 C.ar      23 UNK        -0.1150 
     15 C15        -2.2371  -17.1926  -48.5275 C.3       23 UNK        -0.0205 
     16 S16        -0.9084  -18.2938  -47.9316 S.3       23 UNK        -0.2404 
     17 C17        -1.8404  -19.4835  -46.9156 C.3       23 UNK        -0.0398 
     18 CA         -1.2904  -20.9207  -47.0887 C.3       11 UNK         0.1400 
     19 N          -0.0359  -21.1385  -46.3614 N.am      11 UNK        -0.5000 
     20 C           0.7252  -22.2384  -46.4608 C.2       10 UNK         0.5000 
     21 O           0.4833  -23.1727  -47.2235 O.2       10 UNK        -0.5000 
     22 CA          1.9236  -22.3376  -45.5020 C.3       10 UNK         0.1400 
     23 CB          3.1234  -21.5479  -46.0457 C.3       10 UNK        -0.1800 
     24 N           1.5826  -21.8679  -44.1582 N.am      10 UNK        -0.5000 
     25 C           0.7506  -22.5157  -43.3266 C.2       9 UNK         0.5000 
     26 O           0.2387  -23.6033  -43.5913 O.2       9 UNK        -0.5000 
     27 CA          0.3808  -21.8139  -42.0030 C.3       9 UNK         0.1400 
     28 CB          1.3783  -22.1887  -40.8981 C.3       9 UNK        -0.1800 
     29 N           0.3207  -20.3571  -42.1272 N.am      9 UNK        -0.5000 
     30 C          -0.5065  -19.6997  -42.9532 C.2       8 UNK         0.5000 
     31 O          -1.4060  -20.2562  -43.5832 O.2       8 UNK        -0.5000 
     32 CA         -0.2669  -18.1905  -43.1674 C.3       8 UNK         0.1400 
     33 CB         -1.3687  -17.3682  -42.4834 C.3       8 UNK        -0.1800 
     34 N           1.0422  -17.7012  -42.7271 N.am      8 UNK        -0.5000 
     35 C           2.2370  -18.1351  -43.1573 C.2       7 UNK         0.5000 
     36 O           2.3815  -19.0388  -43.9812 O.2       7 UNK        -0.5000 
     37 CA          3.4810  -17.5044  -42.5043 C.3       7 UNK         0.1400 
     38 CB          3.9562  -16.2870  -43.3097 C.3       7 UNK        -0.1800 
     39 N           3.2678  -17.1078  -41.1104 N.am      7 UNK        -0.5000 
     40 C           2.9441  -17.9263  -40.1002 C.2       6 UNK         0.5000 
     41 O           2.8021  -19.1423  -40.2335 O.2       6 UNK        -0.5000 
     42 CA          2.6913  -17.2869  -38.7184 C.3       6 UNK         0.1400 
     43 CB          4.0034  -17.1207  -37.9283 C.3       6 UNK        -0.1800 
     44 N           1.9153  -16.0376  -38.7657 N.am      6 UNK        -0.5000 
     45 C           2.2712  -14.8470  -39.2666 C.2       5 UNK         0.5000 
     46 O           3.3894  -14.5905  -39.7197 O.2       5 UNK        -0.5000 
     47 CA          1.1684  -13.7722  -39.3114 C.3       5 UNK         0.1400 
     48 CB          1.3577  -12.7556  -38.1756 C.3       5 UNK        -0.1800 
     49 N           1.1391  -13.0628  -40.5934 N.am      5 UNK        -0.5000 
     50 C           0.9792  -13.6412  -41.7915 C.2       4 UNK         0.5000 
     51 O           0.8007  -14.8525  -41.9501 O.2       4 UNK        -0.5000 
     52 CA          1.0425  -12.7081  -43.0100 C.3       4 UNK         0.1400 
     53 CB          2.4795  -12.2168  -43.2638 C.3       4 UNK        -0.1800 
     54 N           0.5595  -13.4202  -44.1872 N.am      4 UNK        -0.5000 
     55 C          -0.0008  -12.8745  -45.2695 C.2       3 UNK         0.5000 
     56 O          -0.1776  -11.6620  -45.4042 O.2       3 UNK        -0.5000 
     57 CA         -0.4018  -13.8537  -46.3956 C.3       3 UNK         0.1400 
     58 CB         -1.2561  -13.1816  -47.4851 C.3       3 UNK        -0.1800 
     59 N           0.7753  -14.4657  -47.0181 N.am      3 UNK        -0.5000 
     60 C           1.5105  -15.4412  -46.4667 C.2       2 UNK         0.5000 
     61 O           1.2212  -15.9582  -45.3892 O.2       2 UNK        -0.5000 
     62 CA          2.7735  -15.9267  -47.2086 C.3       2 UNK         0.1400 
     63 CB          2.7215  -17.4419  -47.4657 C.3       2 UNK        -0.1800 
     64 N           3.0355  -15.2501  -48.4798 N.am      2 UNK        -0.5000 
     65 C           3.5994  -14.0432  -48.6154 C.2       1 UNK         0.5000 
     66 O           3.9080  -13.3183  -47.6668 O.2       1 UNK        -0.5000 
     67 C          -2.3553  -21.9622  -46.7011 C.2       11 UNK         0.5000 
     68 O          -3.0039  -22.5139  -47.5900 O.2       11 UNK        -0.5000 
     69 N          -2.4888  -22.2374  -45.3964 N.am      12 UNK        -0.5000 
     70 CA         -3.3907  -23.2513  -44.8506 C.3       12 UNK         0.1400 
     71 CB         -3.4020  -23.1559  -43.3177 C.3       12 UNK        -0.1800 
     72 C          -3.0359  -24.6776  -45.3112 C.2       12 UNK         0.5000 
     73 O          -3.9372  -25.4386  -45.6634 O.2       12 UNK        -0.5000 
     74 N          -1.7349  -25.0019  -45.3296 N.am      13 UNK        -0.5000 
     75 CA         -1.2062  -26.2822  -45.8023 C.3       13 UNK         0.1400 
     76 CB          0.2750  -26.4018  -45.4124 C.3       13 UNK        -0.1800 
     77 C          -1.3887  -26.4841  -47.3182 C.2       13 UNK         0.5000 
     78 O          -1.7655  -27.5771  -47.7428 O.2       13 UNK        -0.5000 
     79 N          -1.1277  -25.4304  -48.1040 N.am      14 UNK        -0.5000 
     80 CA         -1.2675  -25.4305  -49.5619 C.3       14 UNK         0.1400 
     81 CB         -0.5085  -24.2232  -50.1361 C.3       14 UNK        -0.1800 
     82 C          -2.7299  -25.3989  -50.0431 C.2       14 UNK         0.5000 
     83 O          -2.9970  -25.8302  -51.1641 O.2       14 UNK        -0.5000 
     84 N          -3.6282  -24.8599  -49.2056 N.am      15 UNK        -0.5000 
     85 CA         -4.9992  -24.4439  -49.5182 C.3       15 UNK         0.1400 
     86 CB         -5.8811  -25.6256  -49.9727 C.3       15 UNK        -0.1800 
     87 C          -5.0057  -23.2546  -50.4999 C.2       15 UNK         0.5000 
     88 O          -5.7908  -23.2204  -51.4499 O.2       15 UNK        -0.5000 
     89 N          -4.1132  -22.2872  -50.2521 N.am      16 UNK        -0.5000 
     90 CA         -4.0089  -21.0428  -51.0095 C.3       16 UNK         0.1400 
     91 CB         -2.7556  -20.2825  -50.5701 C.3       16 UNK        -0.1800 
     92 C          -5.2733  -20.1851  -50.8385 C.2       16 UNK         0.5000 
     93 O          -5.8693  -20.1824  -49.7589 O.2       16 UNK        -0.5000 
     94 N          -5.6886  -19.5256  -51.9268 N.am      17 UNK        -0.5000 
     95 CA         -6.9475  -18.7921  -52.1263 C.3       17 UNK         0.1400 
     96 CB         -7.0959  -17.6226  -51.1348 C.3       17 UNK        -0.1800 
     97 C          -8.2060  -19.6888  -52.1377 C.2       17 UNK         0.5000 
     98 O          -9.0718  -19.4882  -52.9883 O.2       17 UNK        -0.5000 
     99 N          -8.2738  -20.6766  -51.2351 N.am      18 UNK        -0.5000 
    100 CA        -9.3531  -21.6582  -51.1082 C.3       18 UNK         0.1400 
    101 CB        -9.1615  -22.4566  -49.8085 C.3       18 UNK        -0.1800 
    102 C         -9.4461  -22.5978  -52.3246 C.2       18 UNK         0.5000 
    103 O        -10.5156  -22.7172  -52.9230 O.2       18 UNK        -0.5000 
    104 N         -8.3130  -23.2137  -52.6844 N.am      19 UNK        -0.5000 
    105 CA        -8.1376  -24.0437  -53.8797 C.3       19 UNK         0.1400 
    106 CB        -7.4400  -25.3542  -53.4755 C.3       19 UNK        -0.1800 
    107 C         -7.3319  -23.2988  -54.9643 C.2       19 UNK         0.5000 
    108 O         -6.9469  -23.9099  -55.9615 O.2       19 UNK        -0.5000 
    109 N         -7.0799  -21.9991  -54.7409 N.am      20 UNK        -0.5000 
    110 CA        -6.3319  -21.0615  -55.5864 C.3       20 UNK         0.1400 
    111 CB        -7.0217  -20.8730  -56.9531 C.3       20 UNK        -0.1800 
    112 C         -4.8294  -21.3920  -55.7169 C.2       20 UNK         0.5000 
    113 O         -4.1770  -20.9113  -56.6444 O.2       20 UNK        -0.5000 
    114 N         -4.2813  -22.1582  -54.7624 N.am      21 UNK        -0.5000 
    115 CA        -2.8733  -22.5698  -54.6883 C.3       21 UNK         0.1400 
    116 CB        -2.7888  -23.8486  -53.8384 C.3       21 UNK        -0.1800 
    117 C         -1.9394  -21.4521  -54.1639 C.2       21 UNK         0.5000 
    118 O         -1.0818  -21.7033  -53.3166 O.2       21 UNK        -0.5000 
    119 N         -2.1571  -20.2267  -54.6475 N.am      22 UNK        -0.5000 
    120 CA        -1.4212  -19.0051  -54.2999 C.3       22 UNK         0.1400 
    121 C          0.0467  -19.0215  -54.8069 C.2       22 UNK         0.5000 
    122 N          0.9704  -18.4314  -54.0604 N.am      22 UNK        -0.7600 
    123 O          0.3487  -19.5220  -55.8884 O.2       22 UNK        -0.5000 
    124 C124       -2.1679  -17.7572  -54.8307 C.3       23 UNK        -0.0398 
    125 S125       -3.8099  -17.5691  -54.0518 S.3       23 UNK        -0.2404 
    126 C126       -3.6617  -15.9521  -53.2257 C.3       23 UNK        -0.0205 
    127 H127        7.4176  -11.7534  -50.2709 H         1 UNK         0.0600 
    128 H128        8.2053  -12.9742  -49.2674 H         1 UNK         0.0600 
    129 H129        8.2221  -13.1313  -51.0273 H         1 UNK         0.0600 
    130 H130        5.2021  -11.9562  -50.2277 H         1 UNK         0.3000 
    131 H131        3.8476  -14.4499  -50.7109 H         1 UNK         0.0600 
    132 H132        2.8662  -11.6273  -50.1194 H         1 UNK         0.0800 
    133 H133        2.9207  -12.4204  -51.6673 H         1 UNK         0.0800 
    134 H134        1.7037  -15.2420  -51.3261 H         1 UNK         0.0800 
    135 H135        0.9931  -14.1851  -52.5251 H         1 UNK         0.0800 
    136 H136       -1.1902  -14.7922  -53.2540 H         1 UNK         0.1150 
    137 H137       -3.8198  -17.0638  -50.7480 H         1 UNK         0.1150 
    138 H138        0.0355  -15.8813  -49.2971 H         1 UNK         0.1150 
    139 H139       -3.1762  -17.7418  -48.5995 H         1 UNK         0.0800 
    140 H140       -2.3978  -16.4053  -47.7901 H         1 UNK         0.0800 
    141 H141       -2.8933  -19.4399  -47.1981 H         1 UNK         0.0800 
    142 H142       -1.8045  -19.1630  -45.8755 H         1 UNK         0.0800 
    143 H143       -1.0775  -21.0832  -48.1475 H         1 UNK         0.0600 
    144 H144        0.2318  -20.4268  -45.6984 H         1 UNK         0.3000 
    145 H145        2.2135  -23.3882  -45.4324 H         1 UNK         0.0600 
    146 H146        3.9794  -21.6176  -45.3745 H         1 UNK         0.0600 
    147 H147        3.4363  -21.9369  -47.0154 H         1 UNK         0.0600 
    148 H148        2.8872  -20.4919  -46.1792 H         1 UNK         0.0600 
    149 H149        1.9298  -20.9486  -43.8997 H         1 UNK         0.3000 
    150 H150       -0.6090  -22.1643  -41.7047 H         1 UNK         0.0600 
    151 H151        2.3870  -21.8478  -41.1354 H         1 UNK         0.0600 
    152 H152        1.4198  -23.2698  -40.7593 H         1 UNK         0.0600 
    153 H153        1.0931  -21.7481  -39.9425 H         1 UNK         0.0600 
    154 H154        1.0416  -19.8325  -41.6485 H         1 UNK         0.3000 
    155 H155       -0.3285  -18.0113  -44.2424 H         1 UNK         0.0600 
    156 H156       -2.3604  -17.7197  -42.7716 H         1 UNK         0.0600 
    157 H157       -1.3071  -16.3177  -42.7671 H         1 UNK         0.0600 
    158 H158       -1.2988  -17.4292  -41.3968 H         1 UNK         0.0600 
    159 H159        1.0304  -16.8900  -42.1182 H         1 UNK         0.3000 
    160 H160        4.2743  -18.2543  -42.5157 H         1 UNK         0.0600 
    161 H161        3.1933  -15.5089  -43.3451 H         1 UNK         0.0600 
    162 H162        4.1854  -16.5698  -44.3373 H         1 UNK         0.0600 
    163 H163        4.8600  -15.8543  -42.8808 H         1 UNK         0.0600 
    164 H164        3.3611  -16.1201  -40.8933 H         1 UNK         0.3000 
    165 H165        2.0699  -17.9917  -38.1636 H         1 UNK         0.0600 
    166 H166        3.8173  -16.7074  -36.9370 H         1 UNK         0.0600 
    167 H167        4.7111  -16.4668  -38.4381 H         1 UNK         0.0600 
    168 H168        4.4960  -18.0842  -37.7916 H         1 UNK         0.0600 
    169 H169        0.9622  -16.1337  -38.4432 H         1 UNK         0.3000 
    170 H170        0.1980  -14.2564  -39.1840 H         1 UNK         0.0600 
    171 H171        1.3610  -13.2515  -37.2040 H         1 UNK         0.0600 
    172 H172        2.3012  -12.2166  -38.2720 H         1 UNK         0.0600 
    173 H173        0.5510  -12.0223  -38.1621 H         1 UNK         0.0600 
    174 H174        1.3094  -12.0688  -40.5535 H         1 UNK         0.3000 
    175 H175        0.3921  -11.8537  -42.8117 H         1 UNK         0.0600 
    176 H176        3.1565  -13.0468  -43.4686 H         1 UNK         0.0600 
    177 H177        2.5202  -11.5372  -44.1153 H         1 UNK         0.0600 
    178 H178        2.8727  -11.6770  -42.4018 H         1 UNK         0.0600 
    179 H179        0.6753  -14.4303  -44.1524 H         1 UNK         0.3000 
    180 H180       -1.0091  -14.6417  -45.9445 H         1 UNK         0.0600 
    181 H181       -0.7138  -12.3794  -47.9863 H         1 UNK         0.0600 
    182 H182       -2.1612  -12.7483  -47.0581 H         1 UNK         0.0600 
    183 H183       -1.5695  -13.8984  -48.2433 H         1 UNK         0.0600 
    184 H184        1.0857  -14.0611  -47.8895 H         1 UNK         0.3000 
    185 H185        3.6142  -15.7336  -46.5397 H         1 UNK         0.0600 
    186 H186        2.4943  -17.9939  -46.5529 H         1 UNK         0.0600 
    187 H187        1.9605  -17.6986  -48.2022 H         1 UNK         0.0600 
    188 H188        3.6790  -17.8108  -47.8333 H         1 UNK         0.0600 
    189 H189        2.8121  -15.7794  -49.3093 H         1 UNK         0.3000 
    190 H190       -1.9545  -21.6917  -44.7255 H         1 UNK         0.3000 
    191 H191       -4.3966  -23.0265  -45.2116 H         1 UNK         0.0600 
    192 H192       -4.1125  -23.8634  -42.8886 H         1 UNK         0.0600 
    193 H193       -3.6934  -22.1590  -42.9861 H         1 UNK         0.0600 
    194 H194       -2.4230  -23.3766  -42.8928 H         1 UNK         0.0600 
    195 H195       -1.0584  -24.3376  -44.9678 H         1 UNK         0.3000 
    196 H196       -1.7533  -27.0789  -45.2938 H         1 UNK         0.0600 
    197 H197        0.8747  -25.6076  -45.8579 H         1 UNK         0.0600 
    198 H198        0.4026  -26.3496  -44.3310 H         1 UNK         0.0600 
    199 H199        0.6913  -27.3540  -45.7434 H         1 UNK         0.0600 
    200 H200       -0.7565  -24.5820  -47.6844 H         1 UNK         0.3000 
    201 H201       -0.8087  -26.3406  -49.9538 H         1 UNK         0.0600 
    202 H202       -0.9095  -23.2813  -49.7590 H         1 UNK         0.0600 
    203 H203       -0.5781  -24.1947  -51.2246 H         1 UNK         0.0600 
    204 H204        0.5499  -24.2631  -49.8787 H         1 UNK         0.0600 
    205 H205       -3.2724  -24.5035  -48.3265 H         1 UNK         0.3000 
    206 H206       -5.4183  -24.0661  -48.5846 H         1 UNK         0.0600 
    207 H207       -5.8457  -26.4425  -49.2522 H         1 UNK         0.0600 
    208 H208       -5.5748  -26.0186  -50.9419 H         1 UNK         0.0600 
    209 H209       -6.9231  -25.3178  -50.0656 H         1 UNK         0.0600 
    210 H210       -3.5662  -22.3552  -49.3990 H         1 UNK         0.3000 
    211 H211       -3.9047  -21.3041  -52.0618 H         1 UNK         0.0600 
    212 H212       -2.6123  -19.3848  -51.1703 H         1 UNK         0.0600 
    213 H213       -1.8594  -20.8933  -50.6800 H         1 UNK         0.0600 
    214 H214       -2.8319  -19.9768  -49.5298 H         1 UNK         0.0600 
    215 H215       -5.0962  -19.5568  -52.7443 H         1 UNK         0.3000 
    216 H216       -6.8719  -18.3556  -53.1236 H         1 UNK         0.0600 
    217 H217       -7.2124  -17.9652  -50.1066 H         1 UNK         0.0600 
    218 H218       -7.9736  -17.0217  -51.3757 H         1 UNK         0.0600 
    219 H219       -6.2309  -16.9613  -51.1734 H         1 UNK         0.0600 
    220 H220       -7.5134  -20.7399  -50.5641 H         1 UNK         0.3000 
    221 H221      -10.2959  -21.1122  -51.0357 H         1 UNK         0.0600 
    222 H222       -9.1944  -21.8020  -48.9375 H         1 UNK         0.0600 
    223 H223       -8.2069  -22.9836  -49.7928 H         1 UNK         0.0600 
    224 H224       -9.9502  -23.2001  -49.6862 H         1 UNK         0.0600 
    225 H225       -7.4719  -23.0849  -52.1231 H         1 UNK         0.3000 
    226 H226       -9.1071  -24.2957  -54.3137 H         1 UNK         0.0600 
    227 H227       -6.4147  -25.1812  -53.1474 H         1 UNK         0.0600 
    228 H228       -7.9724  -25.8525  -52.6653 H         1 UNK         0.0600 
    229 H229       -7.4000  -26.0506  -54.3138 H         1 UNK         0.0600 
    230 H230       -7.4686  -21.6120  -53.8937 H         1 UNK         0.3000 
    231 H231       -6.3748  -20.1006  -55.0721 H         1 UNK         0.0600 
    232 H232       -8.0775  -20.6306  -56.8315 H         1 UNK         0.0600 
    233 H233       -6.9509  -21.7681  -57.5714 H         1 UNK         0.0600 
    234 H234       -6.5661  -20.0550  -57.5125 H         1 UNK         0.0600 
    235 H235       -4.8857  -22.5139  -54.0357 H         1 UNK         0.3000 
    236 H236       -2.5329  -22.8192  -55.6953 H         1 UNK         0.0600 
    237 H237       -3.4414  -24.6302  -54.2280 H         1 UNK         0.0600 
    238 H238       -1.7749  -24.2504  -53.8271 H         1 UNK         0.0600 
    239 H239       -3.0764  -23.6582  -52.8047 H         1 UNK         0.0600 
    240 H240       -2.8492  -20.1359  -55.3826 H         1 UNK         0.3000 
    241 H241       -1.3895  -18.9442  -53.2104 H         1 UNK         0.0600 
    242 H242        0.7436  -18.0106  -53.1732 H         1 UNK         0.3800 
    243 H243        1.9252  -18.4207  -54.3837 H         1 UNK         0.3800 
    244 H244       -2.3055  -17.8256  -55.9112 H         1 UNK         0.0800 
    245 H245       -1.5802  -16.8542  -54.6634 H         1 UNK         0.0800 
    246 H246       -4.6294  -15.6882  -52.7970 H         1 UNK         0.0800 
    247 H247       -3.4439  -15.1868  -53.9722 H         1 UNK         0.0800 
@<TRIPOS>BOND
     1    1    2 1    
     2    1  127 1    
     3    1  128 1    
     4    1  129 1    
     5    2    3 2    
     6    2    4 am   BACKBONE|DICT|INTERRES
     7    4    5 1    
     8    4  130 1    
     9    5    6 1    
    10    5   65 1    
    11    5  131 1    
    12    6    7 1    
    13    6  132 1    
    14    6  133 1    
    15    7    8 1    
    16    8    9 1    
    17    8  134 1    
    18    8  135 1    
    19    9   10 ar   
    20    9   14 ar   
    21   10   11 ar   
    22   10  136 1    
    23   11   12 ar   
    24   11  126 1    
    25   12   13 ar   
    26   12  137 1    
    27   13   14 ar   
    28   13   15 1    
    29   14  138 1    
    30   15   16 1    
    31   15  139 1    
    32   15  140 1    
    33   16   17 1    
    34   17   18 1    
    35   17  141 1    
    36   17  142 1    
    37   18   19 1    
    38   18   67 1    
    39   18  143 1    
    40   19   20 am   BACKBONE|DICT|INTERRES
    41   19  144 1    
    42   20   21 2    
    43   20   22 1    
    44   22   23 1    
    45   22   24 1    
    46   22  145 1    
    47   23  146 1    
    48   23  147 1    
    49   23  148 1    
    50   24   25 am   BACKBONE|DICT|INTERRES
    51   24  149 1    
    52   25   26 2    
    53   25   27 1    
    54   27   28 1    
    55   27   29 1    
    56   27  150 1    
    57   28  151 1    
    58   28  152 1    
    59   28  153 1    
    60   29   30 am   BACKBONE|DICT|INTERRES
    61   29  154 1    
    62   30   31 2    
    63   30   32 1    
    64   32   33 1    
    65   32   34 1    
    66   32  155 1    
    67   33  156 1    
    68   33  157 1    
    69   33  158 1    
    70   34   35 am   BACKBONE|DICT|INTERRES
    71   34  159 1    
    72   35   36 2    
    73   35   37 1    
    74   37   38 1    
    75   37   39 1    
    76   37  160 1    
    77   38  161 1    
    78   38  162 1    
    79   38  163 1    
    80   39   40 am   BACKBONE|DICT|INTERRES
    81   39  164 1    
    82   40   41 2    
    83   40   42 1    
    84   42   43 1    
    85   42   44 1    
    86   42  165 1    
    87   43  166 1    
    88   43  167 1    
    89   43  168 1    
    90   44   45 am   BACKBONE|DICT|INTERRES
    91   44  169 1    
    92   45   46 2    
    93   45   47 1    
    94   47   48 1    
    95   47   49 1    
    96   47  170 1    
    97   48  171 1    
    98   48  172 1    
    99   48  173 1    
   100   49   50 am   BACKBONE|DICT|INTERRES
   101   49  174 1    
   102   50   51 2    
   103   50   52 1    
   104   52   53 1    
   105   52   54 1    
   106   52  175 1    
   107   53  176 1    
   108   53  177 1    
   109   53  178 1    
   110   54   55 am   BACKBONE|DICT|INTERRES
   111   54  179 1    
   112   55   56 2    
   113   55   57 1    
   114   57   58 1    
   115   57   59 1    
   116   57  180 1    
   117   58  181 1    
   118   58  182 1    
   119   58  183 1    
   120   59   60 am   BACKBONE|DICT|INTERRES
   121   59  184 1    
   122   60   61 2    
   123   60   62 1    
   124   62   63 1    
   125   62   64 1    
   126   62  185 1    
   127   63  186 1    
   128   63  187 1    
   129   63  188 1    
   130   64   65 am   BACKBONE|DICT|INTERRES
   131   64  189 1    
   132   65   66 2    
   133   67   68 2    
   134   67   69 am   BACKBONE|DICT|INTERRES
   135   69   70 1    
   136   69  190 1    
   137   70   71 1    
   138   70   72 1    
   139   70  191 1    
   140   71  192 1    
   141   71  193 1    
   142   71  194 1    
   143   72   73 2    
   144   72   74 am   BACKBONE|DICT|INTERRES
   145   74   75 1    
   146   74  195 1    
   147   75   76 1    
   148   75   77 1    
   149   75  196 1    
   150   76  197 1    
   151   76  198 1    
   152   76  199 1    
   153   77   78 2    
   154   77   79 am   BACKBONE|DICT|INTERRES
   155   79   80 1    
   156   79  200 1    
   157   80   81 1    
   158   80   82 1    
   159   80  201 1    
   160   81  202 1    
   161   81  203 1    
   162   81  204 1    
   163   82   83 2    
   164   82   84 am   BACKBONE|DICT|INTERRES
   165   84   85 1    
   166   84  205 1    
   167   85   86 1    
   168   85   87 1    
   169   85  206 1    
   170   86  207 1    
   171   86  208 1    
   172   86  209 1    
   173   87   88 2    
   174   87   89 am   BACKBONE|DICT|INTERRES
   175   89   90 1    
   176   89  210 1    
   177   90   91 1    
   178   90   92 1    
   179   90  211 1    
   180   91  212 1    
   181   91  213 1    
   182   91  214 1    
   183   92   93 2    
   184   92   94 am   BACKBONE|DICT|INTERRES
   185   94   95 1    
   186   94  215 1    
   187   95   96 1    
   188   95   97 1    
   189   95  216 1    
   190   96  217 1    
   191   96  218 1    
   192   96  219 1    
   193   97   98 2    
   194   97   99 am   BACKBONE|DICT|INTERRES
   195   99  100 1    
   196   99  220 1    
   197  100  101 1    
   198  100  102 1    
   199  100  221 1    
   200  101  222 1    
   201  101  223 1    
   202  101  224 1    
   203  102  103 2    
   204  102  104 am   BACKBONE|DICT|INTERRES
   205  104  105 1    
   206  104  225 1    
   207  105  106 1    
   208  105  107 1    
   209  105  226 1    
   210  106  227 1    
   211  106  228 1    
   212  106  229 1    
   213  107  108 2    
   214  107  109 am   BACKBONE|DICT|INTERRES
   215  109  110 1    
   216  109  230 1    
   217  110  111 1    
   218  110  112 1    
   219  110  231 1    
   220  111  232 1    
   221  111  233 1    
   222  111  234 1    
   223  112  113 2    
   224  112  114 am   BACKBONE|DICT|INTERRES
   225  114  115 1    
   226  114  235 1    
   227  115  116 1    
   228  115  117 1    
   229  115  236 1    
   230  116  237 1    
   231  116  238 1    
   232  116  239 1    
   233  117  118 2    
   234  117  119 am   BACKBONE|DICT|INTERRES
   235  119  120 1    
   236  119  240 1    
   237  120  121 1    
   238  120  124 1    
   239  120  241 1    
   240  121  122 am   BACKBONE|DICT|INTERRES
   241  121  123 2    
   242  122  242 1    
   243  122  243 1    
   244  124  125 1    
   245  124  244 1    
   246  124  245 1    
   247  125  126 1    
   248  126  246 1    
   249  126  247 1    
@<TRIPOS>SUBSTRUCTURE
     1 UNK         1 GROUP             0       ****    0 ROOT    
