@<TRIPOS>MOLECULE
3R540
247   249    1
SMALL
USER_CHARGES


@<TRIPOS>ATOM
      1 CA          7.7866  -13.2634  -45.6794 C.3       0 UNK        -0.1800 
      2 C           6.4286  -13.7596  -46.1557 C.2       0 UNK         0.5000 
      3 O           5.9429  -14.7781  -45.6653 O.2       0 UNK        -0.5000 
      4 N           5.8181  -13.0447  -47.1064 N.am      1 UNK        -0.5000 
      5 CA          4.5109  -13.3576  -47.6904 C.3       1 UNK         0.1400 
      6 C6          4.6212  -14.3800  -48.8529 C.3       23 UNK        -0.0398 
      7 S7          3.0722  -15.2939  -49.1622 S.3       23 UNK        -0.2404 
      8 C8          3.4139  -15.9222  -50.8320 C.3       23 UNK        -0.0205 
      9 C9          2.2412  -16.7164  -51.3834 C.ar      23 UNK        -0.0193 
     10 C10         1.3114  -16.1023  -52.2294 C.ar      23 UNK        -0.1150 
     11 C11         0.2571  -16.8402  -52.7742 C.ar      23 UNK        -0.0193 
     12 C12         0.1362  -18.1954  -52.4642 C.ar      23 UNK        -0.1150 
     13 C13         1.0537  -18.8211  -51.6162 C.ar      23 UNK        -0.0193 
     14 C14         2.1043  -18.0743  -51.0748 C.ar      23 UNK        -0.1150 
     15 C15         0.9326  -20.3121  -51.3361 C.3       23 UNK        -0.0205 
     16 S16        -0.6816  -20.7524  -50.6210 S.3       23 UNK        -0.2404 
     17 C17        -0.4117  -20.4502  -48.8410 C.3       23 UNK        -0.0398 
     18 CA         -0.1879  -21.7673  -48.0583 C.3       11 UNK         0.1400 
     19 N           0.2751  -21.5314  -46.6887 N.am      11 UNK        -0.5000 
     20 C           0.7034  -22.4912  -45.8551 C.2       10 UNK         0.5000 
     21 O           0.8078  -23.6757  -46.1713 O.2       10 UNK        -0.5000 
     22 CA          1.0181  -22.0728  -44.4082 C.3       10 UNK         0.1400 
     23 CB          2.4069  -21.4247  -44.3119 C.3       10 UNK        -0.1800 
     24 N           0.0052  -21.1751  -43.8526 N.am      10 UNK        -0.5000 
     25 C          -1.2798  -21.5107  -43.6665 C.2       9 UNK         0.5000 
     26 O          -1.7323  -22.6332  -43.8905 O.2       9 UNK        -0.5000 
     27 CA         -2.2320  -20.3963  -43.1981 C.3       9 UNK         0.1400 
     28 CB         -2.1268  -20.1931  -41.6796 C.3       9 UNK        -0.1800 
     29 N          -2.0048  -19.1250  -43.8873 N.am      9 UNK        -0.5000 
     30 C          -2.1343  -18.9422  -45.2096 C.2       8 UNK         0.5000 
     31 O          -2.4849  -19.8259  -45.9905 O.2       8 UNK        -0.5000 
     32 CA         -1.7467  -17.5591  -45.7630 C.3       8 UNK         0.1400 
     33 CB         -2.8328  -16.5145  -45.4651 C.3       8 UNK        -0.1800 
     34 N          -0.4624  -17.0969  -45.2409 N.am      8 UNK        -0.5000 
     35 C           0.7072  -17.7220  -45.4376 C.2       7 UNK         0.5000 
     36 O           0.8403  -18.7224  -46.1428 O.2       7 UNK        -0.5000 
     37 CA          1.9179  -17.1696  -44.6672 C.3       7 UNK         0.1400 
     38 CB          2.5324  -15.9650  -45.3926 C.3       7 UNK        -0.1800 
     39 N           1.5647  -16.7942  -43.2980 N.am      7 UNK        -0.5000 
     40 C           1.2561  -17.6717  -42.3325 C.2       6 UNK         0.5000 
     41 O           1.2633  -18.8919  -42.4896 O.2       6 UNK        -0.5000 
     42 CA          0.8309  -17.0841  -40.9749 C.3       6 UNK         0.1400 
     43 CB          2.0620  -16.7248  -40.1297 C.3       6 UNK        -0.1800 
     44 N          -0.0220  -15.9036  -41.1177 N.am      6 UNK        -0.5000 
     45 C          -1.2612  -15.9236  -41.6283 C.2       5 UNK         0.5000 
     46 O          -1.8300  -16.9477  -42.0027 O.2       5 UNK        -0.5000 
     47 CA         -1.9629  -14.5637  -41.7939 C.3       5 UNK         0.1400 
     48 CB         -2.6901  -14.1696  -40.4998 C.3       5 UNK        -0.1800 
     49 N          -1.0493  -13.4876  -42.1877 N.am      5 UNK        -0.5000 
     50 C          -0.3617  -13.4588  -43.3364 C.2       4 UNK         0.5000 
     51 O          -0.3907  -14.3612  -44.1770 O.2       4 UNK        -0.5000 
     52 CA          0.5553  -12.2445  -43.5547 C.3       4 UNK         0.1400 
     53 CB          2.0014  -12.5873  -43.1634 C.3       4 UNK        -0.1800 
     54 N           0.5354  -11.8006  -44.9457 N.am      4 UNK        -0.5000 
     55 C          -0.4937  -11.1840  -45.5429 C.2       3 UNK         0.5000 
     56 O          -1.5473  -10.9088  -44.9652 O.2       3 UNK        -0.5000 
     57 CA         -0.3022  -10.8066  -47.0305 C.3       3 UNK         0.1400 
     58 CB         -1.1993   -9.6308  -47.4705 C.3       3 UNK        -0.1800 
     59 N           1.0988  -10.5563  -47.3969 N.am      3 UNK        -0.5000 
     60 C           1.9253   -9.6245  -46.8981 C.2       2 UNK         0.5000 
     61 O           1.5908   -8.7940  -46.0515 O.2       2 UNK        -0.5000 
     62 CA          3.3825   -9.6693  -47.4089 C.3       2 UNK         0.1400 
     63 CB          4.2902   -8.6391  -46.7121 C.3       2 UNK        -0.1800 
     64 N           3.9769  -11.0003  -47.2459 N.am      2 UNK        -0.5000 
     65 C           3.7848  -12.0468  -48.0624 C.2       1 UNK         0.5000 
     66 O           3.0635  -11.9871  -49.0589 O.2       1 UNK        -0.5000 
     67 C          -1.4313  -22.6822  -48.0883 C.2       11 UNK         0.5000 
     68 O          -1.4343  -23.6668  -48.8264 O.2       11 UNK        -0.5000 
     69 N          -2.4359  -22.3738  -47.2559 N.am      12 UNK        -0.5000 
     70 CA         -3.6626  -23.1577  -47.1035 C.3       12 UNK         0.1400 
     71 CB         -4.5989  -22.4519  -46.1112 C.3       12 UNK        -0.1800 
     72 C          -3.3947  -24.6109  -46.6710 C.2       12 UNK         0.5000 
     73 O          -3.9671  -25.5332  -47.2525 O.2       12 UNK        -0.5000 
     74 N          -2.4920  -24.7897  -45.6961 N.am      13 UNK        -0.5000 
     75 CA         -2.0323  -26.0919  -45.2157 C.3       13 UNK         0.1400 
     76 CB         -1.1796  -25.9026  -43.9520 C.3       13 UNK        -0.1800 
     77 C          -1.2585  -26.8884  -46.2824 C.2       13 UNK         0.5000 
     78 O          -1.5003  -28.0867  -46.4287 O.2       13 UNK        -0.5000 
     79 N          -0.3621  -26.2141  -47.0174 N.am      14 UNK        -0.5000 
     80 CA          0.4336  -26.7985  -48.0995 C.3       14 UNK         0.1400 
     81 CB          1.5328  -25.8130  -48.5252 C.3       14 UNK        -0.1800 
     82 C          -0.4192  -27.2177  -49.3103 C.2       14 UNK         0.5000 
     83 O          -0.2012  -28.2967  -49.8629 O.2       14 UNK        -0.5000 
     84 N          -1.3845  -26.3690  -49.6876 N.am      15 UNK        -0.5000 
     85 CA         -2.3494  -26.6296  -50.7564 C.3       15 UNK         0.1400 
     86 CB         -3.0350  -25.3086  -51.1440 C.3       15 UNK        -0.1800 
     87 C          -3.4093  -27.6784  -50.3699 C.2       15 UNK         0.5000 
     88 O          -3.9757  -28.3137  -51.2599 O.2       15 UNK        -0.5000 
     89 N          -3.6718  -27.8115  -49.0601 N.am      16 UNK        -0.5000 
     90 CA         -4.7612  -28.5702  -48.4363 C.3       16 UNK         0.1400 
     91 CB         -4.5775  -30.0867  -48.6503 C.3       16 UNK        -0.1800 
     92 C          -6.1389  -28.0433  -48.8914 C.2       16 UNK         0.5000 
     93 O          -7.0373  -28.8253  -49.2098 O.2       16 UNK        -0.5000 
     94 N          -6.2548  -26.7121  -48.9520 N.am      17 UNK        -0.5000 
     95 CA         -7.3779  -25.9707  -49.5152 C.3       17 UNK         0.1400 
     96 CB         -7.3470  -26.0599  -51.0587 C.3       17 UNK        -0.1800 
     97 C          -7.3344  -24.5258  -48.9857 C.2       17 UNK         0.5000 
     98 O          -6.8748  -24.3013  -47.8649 O.2       17 UNK        -0.5000 
     99 N          -7.8174  -23.5680  -49.7856 N.am      18 UNK        -0.5000 
    100 CA        -7.7512  -22.1356  -49.5018 C.3       18 UNK         0.1400 
    101 CB        -8.7333  -21.4053  -50.4326 C.3       18 UNK        -0.1800 
    102 C         -6.3269  -21.5779  -49.6873 C.2       18 UNK         0.5000 
    103 O         -5.5273  -22.1476  -50.4332 O.2       18 UNK        -0.5000 
    104 N         -6.0586  -20.4373  -49.0398 N.am      19 UNK        -0.5000 
    105 CA        -4.8009  -19.6914  -49.1474 C.3       19 UNK         0.1400 
    106 CB        -4.7532  -18.6493  -48.0213 C.3       19 UNK        -0.1800 
    107 C         -4.6207  -18.9864  -50.5067 C.2       19 UNK         0.5000 
    108 O         -3.4938  -18.6694  -50.8848 O.2       19 UNK        -0.5000 
    109 N         -5.7285  -18.7428  -51.2198 N.am      20 UNK        -0.5000 
    110 CA        -5.7976  -18.0339  -52.4995 C.3       20 UNK         0.1400 
    111 CB        -7.2267  -17.4895  -52.6767 C.3       20 UNK        -0.1800 
    112 C         -5.3374  -18.8885  -53.7025 C.2       20 UNK         0.5000 
    113 O         -5.9802  -18.8720  -54.7544 O.2       20 UNK        -0.5000 
    114 N         -4.2163  -19.6060  -53.5481 N.am      21 UNK        -0.5000 
    115 CA        -3.6219  -20.4816  -54.5646 C.3       21 UNK         0.1400 
    116 CB        -2.4977  -21.3092  -53.9239 C.3       21 UNK        -0.1800 
    117 C         -3.1148  -19.7308  -55.8144 C.2       21 UNK         0.5000 
    118 O         -2.9724  -20.3447  -56.8727 O.2       21 UNK        -0.5000 
    119 N         -2.8864  -18.4180  -55.6791 N.am      22 UNK        -0.5000 
    120 CA        -2.6016  -17.4884  -56.7841 C.3       22 UNK         0.1400 
    121 C         -3.8454  -17.1366  -57.6565 C.2       22 UNK         0.5000 
    122 N         -5.0658  -17.5027  -57.2781 N.am      22 UNK        -0.7600 
    123 O         -3.6985  -16.5208  -58.7088 O.2       22 UNK        -0.5000 
    124 C124       -1.8998  -16.1960  -56.2880 C.3       23 UNK        -0.0398 
    125 S125       -0.3157  -16.5344  -55.4475 S.3       23 UNK        -0.2404 
    126 C126       -0.7482  -16.1956  -53.7128 C.3       23 UNK        -0.0205 
    127 H127        8.0900  -12.3520  -46.1950 H         1 UNK         0.0600 
    128 H128        8.5469  -14.0238  -45.8575 H         1 UNK         0.0600 
    129 H129        7.7556  -13.0549  -44.6101 H         1 UNK         0.0600 
    130 H130        6.2715  -12.2214  -47.4805 H         1 UNK         0.3000 
    131 H131        3.8973  -13.8041  -46.9053 H         1 UNK         0.0600 
    132 H132        5.3803  -15.1279  -48.6199 H         1 UNK         0.0800 
    133 H133        4.9577  -13.8891  -49.7677 H         1 UNK         0.0800 
    134 H134        4.3065  -16.5494  -50.8074 H         1 UNK         0.0800 
    135 H135        3.6428  -15.0858  -51.4944 H         1 UNK         0.0800 
    136 H136        1.4162  -15.0545  -52.4741 H         1 UNK         0.1150 
    137 H137       -0.6734  -18.7669  -52.8929 H         1 UNK         0.1150 
    138 H138        2.8266  -18.5502  -50.4264 H         1 UNK         0.1150 
    139 H139        1.7332  -20.6617  -50.6823 H         1 UNK         0.0800 
    140 H140        1.0507  -20.8492  -52.2781 H         1 UNK         0.0800 
    141 H141       -1.2688  -19.9020  -48.4469 H         1 UNK         0.0800 
    142 H142        0.4468  -19.7881  -48.7192 H         1 UNK         0.0800 
    143 H143        0.6171  -22.3089  -48.5599 H         1 UNK         0.0600 
    144 H144        0.2568  -20.5697  -46.3608 H         1 UNK         0.3000 
    145 H145        1.0270  -22.9782  -43.7978 H         1 UNK         0.0600 
    146 H146        2.6675  -21.2045  -43.2766 H         1 UNK         0.0600 
    147 H147        3.1759  -22.0901  -44.7062 H         1 UNK         0.0600 
    148 H148        2.4589  -20.4931  -44.8750 H         1 UNK         0.0600 
    149 H149        0.3150  -20.2442  -43.5912 H         1 UNK         0.3000 
    150 H150       -3.2508  -20.7156  -43.4258 H         1 UNK         0.0600 
    151 H151       -2.3023  -21.1285  -41.1467 H         1 UNK         0.0600 
    152 H152       -2.8666  -19.4745  -41.3266 H         1 UNK         0.0600 
    153 H153       -1.1413  -19.8285  -41.3891 H         1 UNK         0.0600 
    154 H154       -1.7517  -18.3331  -43.3022 H         1 UNK         0.3000 
    155 H155       -1.6491  -17.6497  -46.8468 H         1 UNK         0.0600 
    156 H156       -2.9615  -16.3592  -44.3945 H         1 UNK         0.0600 
    157 H157       -2.5862  -15.5519  -45.9138 H         1 UNK         0.0600 
    158 H158       -3.7976  -16.8245  -45.8670 H         1 UNK         0.0600 
    159 H159       -0.4722  -16.2449  -44.6878 H         1 UNK         0.3000 
    160 H160        2.6742  -17.9559  -44.6192 H         1 UNK         0.0600 
    161 H161        1.8101  -15.1617  -45.5397 H         1 UNK         0.0600 
    162 H162        2.9003  -16.2603  -46.3748 H         1 UNK         0.0600 
    163 H163        3.3805  -15.5609  -44.8400 H         1 UNK         0.0600 
    164 H164        1.4813  -15.8082  -43.1033 H         1 UNK         0.3000 
    165 H165        0.2636  -17.8509  -40.4430 H         1 UNK         0.0600 
    166 H166        1.7715  -16.3802  -39.1371 H         1 UNK         0.0600 
    167 H167        2.7086  -17.5930  -39.9946 H         1 UNK         0.0600 
    168 H168        2.6588  -15.9404  -40.5968 H         1 UNK         0.0600 
    169 H169        0.3679  -15.0178  -40.8319 H         1 UNK         0.3000 
    170 H170       -2.7091  -14.6718  -42.5836 H         1 UNK         0.0600 
    171 H171       -3.3918  -14.9472  -40.1946 H         1 UNK         0.0600 
    172 H172       -1.9928  -14.0146  -39.6755 H         1 UNK         0.0600 
    173 H173       -3.2629  -13.2517  -40.6331 H         1 UNK         0.0600 
    174 H174       -0.9651  -12.7128  -41.5454 H         1 UNK         0.3000 
    175 H175        0.2109  -11.4200  -42.9267 H         1 UNK         0.0600 
    176 H176        2.4096  -13.3880  -43.7807 H         1 UNK         0.0600 
    177 H177        2.6532  -11.7197  -43.2690 H         1 UNK         0.0600 
    178 H178        2.0606  -12.9111  -42.1235 H         1 UNK         0.0600 
    179 H179        1.3505  -12.0107  -45.4998 H         1 UNK         0.3000 
    180 H180       -0.6103  -11.6840  -47.6009 H         1 UNK         0.0600 
    181 H181       -0.9963   -8.7281  -46.8936 H         1 UNK         0.0600 
    182 H182       -2.2547   -9.8719  -47.3385 H         1 UNK         0.0600 
    183 H183       -1.0522   -9.3957  -48.5246 H         1 UNK         0.0600 
    184 H184        1.4932  -11.1856  -48.0897 H         1 UNK         0.3000 
    185 H185        3.3566   -9.4193  -48.4717 H         1 UNK         0.0600 
    186 H186        5.2998   -8.6620  -47.1228 H         1 UNK         0.0600 
    187 H187        3.9102   -7.6258  -46.8488 H         1 UNK         0.0600 
    188 H188        4.3600   -8.8232  -45.6393 H         1 UNK         0.0600 
    189 H189        4.5488  -11.1334  -46.4241 H         1 UNK         0.3000 
    190 H190       -2.3641  -21.5298  -46.6910 H         1 UNK         0.3000 
    191 H191       -4.1561  -23.1901  -48.0768 H         1 UNK         0.0600 
    192 H192       -4.1331  -22.3297  -45.1339 H         1 UNK         0.0600 
    193 H193       -5.5179  -23.0195  -45.9653 H         1 UNK         0.0600 
    194 H194       -4.8815  -21.4640  -46.4721 H         1 UNK         0.0600 
    195 H195       -2.0960  -23.9720  -45.2401 H         1 UNK         0.3000 
    196 H196       -2.9147  -26.6746  -44.9433 H         1 UNK         0.0600 
    197 H197       -0.8340  -26.8620  -43.5652 H         1 UNK         0.0600 
    198 H198       -1.7521  -25.4194  -43.1601 H         1 UNK         0.0600 
    199 H199       -0.2993  -25.2897  -44.1482 H         1 UNK         0.0600 
    200 H200       -0.1878  -25.2354  -46.8065 H         1 UNK         0.3000 
    201 H201        0.9187  -27.6960  -47.7101 H         1 UNK         0.0600 
    202 H202        2.2007  -25.5858  -47.6942 H         1 UNK         0.0600 
    203 H203        1.1137  -24.8723  -48.8838 H         1 UNK         0.0600 
    204 H204        2.1427  -26.2293  -49.3279 H         1 UNK         0.0600 
    205 H205       -1.4570  -25.4662  -49.2209 H         1 UNK         0.3000 
    206 H206       -1.8086  -27.0050  -51.6275 H         1 UNK         0.0600 
    207 H207       -2.3071  -24.5662  -51.4722 H         1 UNK         0.0600 
    208 H208       -3.7402  -25.4572  -51.9626 H         1 UNK         0.0600 
    209 H209       -3.5902  -24.8825  -50.3067 H         1 UNK         0.0600 
    210 H210       -3.1776  -27.1924  -48.4293 H         1 UNK         0.3000 
    211 H211       -4.6947  -28.3764  -47.3648 H         1 UNK         0.0600 
    212 H212       -4.6902  -30.3681  -49.6975 H         1 UNK         0.0600 
    213 H213       -5.3152  -30.6518  -48.0797 H         1 UNK         0.0600 
    214 H214       -3.5915  -30.4127  -48.3191 H         1 UNK         0.0600 
    215 H215       -5.5087  -26.1407  -48.5648 H         1 UNK         0.3000 
    216 H216       -8.3065  -26.4148  -49.1519 H         1 UNK         0.0600 
    217 H217       -8.2316  -25.6051  -51.5051 H         1 UNK         0.0600 
    218 H218       -7.3259  -27.0952  -51.3989 H         1 UNK         0.0600 
    219 H219       -6.4676  -25.5618  -51.4696 H         1 UNK         0.0600 
    220 H220       -8.1422  -23.8269  -50.7052 H         1 UNK         0.3000 
    221 H221       -8.0594  -21.9708  -48.4669 H         1 UNK         0.0600 
    222 H222       -8.4590  -21.5251  -51.4817 H         1 UNK         0.0600 
    223 H223       -9.7490  -21.7810  -50.3068 H         1 UNK         0.0600 
    224 H224       -8.7581  -20.3359  -50.2201 H         1 UNK         0.0600 
    225 H225       -6.7687  -20.0307  -48.4477 H         1 UNK         0.3000 
    226 H226       -3.9692  -20.3873  -49.0156 H         1 UNK         0.0600 
    227 H227       -4.8551  -19.1145  -47.0415 H         1 UNK         0.0600 
    228 H228       -3.8026  -18.1157  -48.0323 H         1 UNK         0.0600 
    229 H229       -5.5466  -17.9077  -48.1223 H         1 UNK         0.0600 
    230 H230       -6.6070  -19.0645  -50.8435 H         1 UNK         0.3000 
    231 H231       -5.1233  -17.1764  -52.4512 H         1 UNK         0.0600 
    232 H232       -7.3090  -16.8845  -53.5806 H         1 UNK         0.0600 
    233 H233       -7.5137  -16.8535  -51.8391 H         1 UNK         0.0600 
    234 H234       -7.9571  -18.2962  -52.7520 H         1 UNK         0.0600 
    235 H235       -3.7326  -19.5352  -52.6583 H         1 UNK         0.3000 
    236 H236       -4.3997  -21.1717  -54.8978 H         1 UNK         0.0600 
    237 H237       -2.8609  -21.8733  -53.0641 H         1 UNK         0.0600 
    238 H238       -2.0888  -22.0283  -54.6347 H         1 UNK         0.0600 
    239 H239       -1.6750  -20.6799  -53.5879 H         1 UNK         0.0600 
    240 H240       -3.0269  -18.0049  -54.7709 H         1 UNK         0.3000 
    241 H241       -1.9068  -17.9921  -57.4590 H         1 UNK         0.0600 
    242 H242       -5.2273  -18.0167  -56.4189 H         1 UNK         0.3800 
    243 H243       -5.8508  -17.2661  -57.8640 H         1 UNK         0.3800 
    244 H244       -1.6788  -15.5378  -57.1301 H         1 UNK         0.0800 
    245 H245       -2.5586  -15.6280  -55.6291 H         1 UNK         0.0800 
    246 H246       -1.7439  -16.5827  -53.4917 H         1 UNK         0.0800 
    247 H247       -0.7911  -15.1173  -53.5519 H         1 UNK         0.0800 
@<TRIPOS>BOND
     1    1    2 1    
     2    1  127 1    
     3    1  128 1    
     4    1  129 1    
     5    2    3 2    
     6    2    4 am   BACKBONE|DICT|INTERRES
     7    4    5 1    
     8    4  130 1    
     9    5    6 1    
    10    5   65 1    
    11    5  131 1    
    12    6    7 1    
    13    6  132 1    
    14    6  133 1    
    15    7    8 1    
    16    8    9 1    
    17    8  134 1    
    18    8  135 1    
    19    9   10 ar   
    20    9   14 ar   
    21   10   11 ar   
    22   10  136 1    
    23   11   12 ar   
    24   11  126 1    
    25   12   13 ar   
    26   12  137 1    
    27   13   14 ar   
    28   13   15 1    
    29   14  138 1    
    30   15   16 1    
    31   15  139 1    
    32   15  140 1    
    33   16   17 1    
    34   17   18 1    
    35   17  141 1    
    36   17  142 1    
    37   18   19 1    
    38   18   67 1    
    39   18  143 1    
    40   19   20 am   BACKBONE|DICT|INTERRES
    41   19  144 1    
    42   20   21 2    
    43   20   22 1    
    44   22   23 1    
    45   22   24 1    
    46   22  145 1    
    47   23  146 1    
    48   23  147 1    
    49   23  148 1    
    50   24   25 am   BACKBONE|DICT|INTERRES
    51   24  149 1    
    52   25   26 2    
    53   25   27 1    
    54   27   28 1    
    55   27   29 1    
    56   27  150 1    
    57   28  151 1    
    58   28  152 1    
    59   28  153 1    
    60   29   30 am   BACKBONE|DICT|INTERRES
    61   29  154 1    
    62   30   31 2    
    63   30   32 1    
    64   32   33 1    
    65   32   34 1    
    66   32  155 1    
    67   33  156 1    
    68   33  157 1    
    69   33  158 1    
    70   34   35 am   BACKBONE|DICT|INTERRES
    71   34  159 1    
    72   35   36 2    
    73   35   37 1    
    74   37   38 1    
    75   37   39 1    
    76   37  160 1    
    77   38  161 1    
    78   38  162 1    
    79   38  163 1    
    80   39   40 am   BACKBONE|DICT|INTERRES
    81   39  164 1    
    82   40   41 2    
    83   40   42 1    
    84   42   43 1    
    85   42   44 1    
    86   42  165 1    
    87   43  166 1    
    88   43  167 1    
    89   43  168 1    
    90   44   45 am   BACKBONE|DICT|INTERRES
    91   44  169 1    
    92   45   46 2    
    93   45   47 1    
    94   47   48 1    
    95   47   49 1    
    96   47  170 1    
    97   48  171 1    
    98   48  172 1    
    99   48  173 1    
   100   49   50 am   BACKBONE|DICT|INTERRES
   101   49  174 1    
   102   50   51 2    
   103   50   52 1    
   104   52   53 1    
   105   52   54 1    
   106   52  175 1    
   107   53  176 1    
   108   53  177 1    
   109   53  178 1    
   110   54   55 am   BACKBONE|DICT|INTERRES
   111   54  179 1    
   112   55   56 2    
   113   55   57 1    
   114   57   58 1    
   115   57   59 1    
   116   57  180 1    
   117   58  181 1    
   118   58  182 1    
   119   58  183 1    
   120   59   60 am   BACKBONE|DICT|INTERRES
   121   59  184 1    
   122   60   61 2    
   123   60   62 1    
   124   62   63 1    
   125   62   64 1    
   126   62  185 1    
   127   63  186 1    
   128   63  187 1    
   129   63  188 1    
   130   64   65 am   BACKBONE|DICT|INTERRES
   131   64  189 1    
   132   65   66 2    
   133   67   68 2    
   134   67   69 am   BACKBONE|DICT|INTERRES
   135   69   70 1    
   136   69  190 1    
   137   70   71 1    
   138   70   72 1    
   139   70  191 1    
   140   71  192 1    
   141   71  193 1    
   142   71  194 1    
   143   72   73 2    
   144   72   74 am   BACKBONE|DICT|INTERRES
   145   74   75 1    
   146   74  195 1    
   147   75   76 1    
   148   75   77 1    
   149   75  196 1    
   150   76  197 1    
   151   76  198 1    
   152   76  199 1    
   153   77   78 2    
   154   77   79 am   BACKBONE|DICT|INTERRES
   155   79   80 1    
   156   79  200 1    
   157   80   81 1    
   158   80   82 1    
   159   80  201 1    
   160   81  202 1    
   161   81  203 1    
   162   81  204 1    
   163   82   83 2    
   164   82   84 am   BACKBONE|DICT|INTERRES
   165   84   85 1    
   166   84  205 1    
   167   85   86 1    
   168   85   87 1    
   169   85  206 1    
   170   86  207 1    
   171   86  208 1    
   172   86  209 1    
   173   87   88 2    
   174   87   89 am   BACKBONE|DICT|INTERRES
   175   89   90 1    
   176   89  210 1    
   177   90   91 1    
   178   90   92 1    
   179   90  211 1    
   180   91  212 1    
   181   91  213 1    
   182   91  214 1    
   183   92   93 2    
   184   92   94 am   BACKBONE|DICT|INTERRES
   185   94   95 1    
   186   94  215 1    
   187   95   96 1    
   188   95   97 1    
   189   95  216 1    
   190   96  217 1    
   191   96  218 1    
   192   96  219 1    
   193   97   98 2    
   194   97   99 am   BACKBONE|DICT|INTERRES
   195   99  100 1    
   196   99  220 1    
   197  100  101 1    
   198  100  102 1    
   199  100  221 1    
   200  101  222 1    
   201  101  223 1    
   202  101  224 1    
   203  102  103 2    
   204  102  104 am   BACKBONE|DICT|INTERRES
   205  104  105 1    
   206  104  225 1    
   207  105  106 1    
   208  105  107 1    
   209  105  226 1    
   210  106  227 1    
   211  106  228 1    
   212  106  229 1    
   213  107  108 2    
   214  107  109 am   BACKBONE|DICT|INTERRES
   215  109  110 1    
   216  109  230 1    
   217  110  111 1    
   218  110  112 1    
   219  110  231 1    
   220  111  232 1    
   221  111  233 1    
   222  111  234 1    
   223  112  113 2    
   224  112  114 am   BACKBONE|DICT|INTERRES
   225  114  115 1    
   226  114  235 1    
   227  115  116 1    
   228  115  117 1    
   229  115  236 1    
   230  116  237 1    
   231  116  238 1    
   232  116  239 1    
   233  117  118 2    
   234  117  119 am   BACKBONE|DICT|INTERRES
   235  119  120 1    
   236  119  240 1    
   237  120  121 1    
   238  120  124 1    
   239  120  241 1    
   240  121  122 am   BACKBONE|DICT|INTERRES
   241  121  123 2    
   242  122  242 1    
   243  122  243 1    
   244  124  125 1    
   245  124  244 1    
   246  124  245 1    
   247  125  126 1    
   248  126  246 1    
   249  126  247 1    
@<TRIPOS>SUBSTRUCTURE
     1 UNK         1 GROUP             0       ****    0 ROOT    
