@<TRIPOS>MOLECULE
3R540
247   249    1
SMALL
USER_CHARGES


@<TRIPOS>ATOM
      1 CA          4.4334  -15.1981  -46.8893 C.3       0 UNK        -0.1800 
      2 C           3.0328  -15.4579  -47.4224 C.2       0 UNK         0.5000 
      3 O           2.2517  -16.1568  -46.7793 O.2       0 UNK        -0.5000 
      4 N           2.7227  -14.8739  -48.5876 N.am      1 UNK        -0.5000 
      5 CA          1.5289  -15.0808  -49.4258 C.3       1 UNK         0.1400 
      6 C6          1.5211  -14.0991  -50.6249 C.3       23 UNK        -0.0398 
      7 S7          2.9523  -14.3743  -51.7308 S.3       23 UNK        -0.2404 
      8 C8          2.1938  -15.1856  -53.1790 C.3       23 UNK        -0.0205 
      9 C9          1.3260  -16.3736  -52.7903 C.ar      23 UNK        -0.0193 
     10 C10        -0.0653  -16.2716  -52.8578 C.ar      23 UNK        -0.1150 
     11 C11        -0.8782  -17.3299  -52.4473 C.ar      23 UNK        -0.0193 
     12 C12        -0.2896  -18.5060  -51.9741 C.ar      23 UNK        -0.1150 
     13 C13         1.1034  -18.6183  -51.8978 C.ar      23 UNK        -0.0193 
     14 C14         1.9061  -17.5561  -52.3244 C.ar      23 UNK        -0.1150 
     15 C15         1.7431  -19.8689  -51.3139 C.3       23 UNK        -0.0205 
     16 S16         2.4597  -19.5793  -49.6595 S.3       23 UNK        -0.2404 
     17 C17         1.0368  -18.9410  -48.7085 C.3       23 UNK        -0.0398 
     18 CA          0.0478  -20.0435  -48.2696 C.3       11 UNK         0.1400 
     19 N           0.6551  -21.0041  -47.3502 N.am      11 UNK        -0.5000 
     20 C           0.7333  -22.3240  -47.5647 C.2       10 UNK         0.5000 
     21 O           0.3824  -22.8742  -48.6079 O.2       10 UNK        -0.5000 
     22 CA          1.2745  -23.1934  -46.4100 C.3       10 UNK         0.1400 
     23 CB          2.7704  -23.4788  -46.6122 C.3       10 UNK        -0.1800 
     24 N           1.0784  -22.6132  -45.0789 N.am      10 UNK        -0.5000 
     25 C          -0.1029  -22.2634  -44.5507 C.2       9 UNK         0.5000 
     26 O          -1.1808  -22.4305  -45.1163 O.2       9 UNK        -0.5000 
     27 CA         -0.0762  -21.5368  -43.1954 C.3       9 UNK         0.1400 
     28 CB         -0.2832  -22.5323  -42.0452 C.3       9 UNK        -0.1800 
     29 N           1.1408  -20.7602  -42.9438 N.am      9 UNK        -0.5000 
     30 C           1.6424  -19.7794  -43.7068 C.2       8 UNK         0.5000 
     31 O           1.1781  -19.4761  -44.8084 O.2       8 UNK        -0.5000 
     32 CA          2.8527  -19.0149  -43.1274 C.3       8 UNK         0.1400 
     33 CB          3.2670  -17.8275  -44.0113 C.3       8 UNK        -0.1800 
     34 N           2.5974  -18.5311  -41.7659 N.am      8 UNK        -0.5000 
     35 C           2.6365  -19.2845  -40.6555 C.2       7 UNK         0.5000 
     36 O           2.9037  -20.4880  -40.6728 O.2       7 UNK        -0.5000 
     37 CA          2.2754  -18.5979  -39.3222 C.3       7 UNK         0.1400 
     38 CB          2.7778  -19.3700  -38.0843 C.3       7 UNK        -0.1800 
     39 N           2.6830  -17.1931  -39.2706 N.am      7 UNK        -0.5000 
     40 C           3.9289  -16.6953  -39.3166 C.2       6 UNK         0.5000 
     41 O           4.9444  -17.3912  -39.3517 O.2       6 UNK        -0.5000 
     42 CA          4.0707  -15.1595  -39.3515 C.3       6 UNK         0.1400 
     43 CB          4.8245  -14.7195  -40.6174 C.3       6 UNK        -0.1800 
     44 N           2.7701  -14.4856  -39.3198 N.am      6 UNK        -0.5000 
     45 C           2.1460  -14.0695  -38.2088 C.2       5 UNK         0.5000 
     46 O           2.6409  -14.1335  -37.0832 O.2       5 UNK        -0.5000 
     47 CA          0.7184  -13.5081  -38.3753 C.3       5 UNK         0.1400 
     48 CB          0.7510  -11.9738  -38.4450 C.3       5 UNK        -0.1800 
     49 N           0.0191  -14.0218  -39.5566 N.am      5 UNK        -0.5000 
     50 C          -0.3744  -15.2921  -39.7312 C.2       4 UNK         0.5000 
     51 O          -0.2106  -16.1787  -38.8941 O.2       4 UNK        -0.5000 
     52 CA         -0.9914  -15.6420  -41.0999 C.3       4 UNK         0.1400 
     53 CB         -2.5081  -15.4007  -41.0818 C.3       4 UNK        -0.1800 
     54 N          -0.3938  -14.8889  -42.2065 N.am      4 UNK        -0.5000 
     55 C           0.8986  -14.9254  -42.5543 C.2       3 UNK         0.5000 
     56 O           1.7283  -15.6496  -41.9993 O.2       3 UNK        -0.5000 
     57 CA          1.3189  -13.9715  -43.6883 C.3       3 UNK         0.1400 
     58 CB          2.8384  -13.9336  -43.9146 C.3       3 UNK        -0.1800 
     59 N           0.6494  -14.2893  -44.9501 N.am      3 UNK        -0.5000 
     60 C          -0.5839  -13.8786  -45.2811 C.2       2 UNK         0.5000 
     61 O          -1.3186  -13.2697  -44.5010 O.2       2 UNK        -0.5000 
     62 CA         -1.0615  -14.1736  -46.7147 C.3       2 UNK         0.1400 
     63 CB         -2.1008  -13.1574  -47.2243 C.3       2 UNK        -0.1800 
     64 N           0.0760  -14.2204  -47.6321 N.am      2 UNK        -0.5000 
     65 C           0.1738  -15.0407  -48.6835 C.2       1 UNK         0.5000 
     66 O          -0.7422  -15.7706  -49.0625 O.2       1 UNK        -0.5000 
     67 C          -1.2050  -19.4151  -47.6332 C.2       11 UNK         0.5000 
     68 O          -2.2221  -19.2780  -48.3131 O.2       11 UNK        -0.5000 
     69 N          -1.1241  -19.0409  -46.3488 N.am      12 UNK        -0.5000 
     70 CA         -2.1502  -18.2621  -45.6572 C.3       12 UNK         0.1400 
     71 CB         -1.5655  -17.7045  -44.3502 C.3       12 UNK        -0.1800 
     72 C          -3.4700  -19.0126  -45.3944 C.2       12 UNK         0.5000 
     73 O          -4.5076  -18.3568  -45.2897 O.2       12 UNK        -0.5000 
     74 N          -3.4356  -20.3499  -45.2903 N.am      13 UNK        -0.5000 
     75 CA         -4.6278  -21.1707  -45.0740 C.3       13 UNK         0.1400 
     76 CB         -4.2361  -22.5278  -44.4667 C.3       13 UNK        -0.1800 
     77 C          -5.4102  -21.3434  -46.3869 C.2       13 UNK         0.5000 
     78 O          -5.0517  -22.1899  -47.2076 O.2       13 UNK        -0.5000 
     79 N          -6.4553  -20.5222  -46.5623 N.am      14 UNK        -0.5000 
     80 CA         -7.4361  -20.5595  -47.6550 C.3       14 UNK         0.1400 
     81 CB         -8.3625  -21.7821  -47.4849 C.3       14 UNK        -0.1800 
     82 C          -6.8062  -20.4767  -49.0626 C.2       14 UNK         0.5000 
     83 O          -7.2362  -21.1890  -49.9710 O.2       14 UNK        -0.5000 
     84 N          -5.7806  -19.6215  -49.1998 N.am      15 UNK        -0.5000 
     85 CA         -4.9733  -19.4007  -50.4050 C.3       15 UNK         0.1400 
     86 CB         -5.8248  -18.7433  -51.5121 C.3       15 UNK        -0.1800 
     87 C          -4.2698  -20.6952  -50.8654 C.2       15 UNK         0.5000 
     88 O          -4.4691  -21.1498  -51.9925 O.2       15 UNK        -0.5000 
     89 N          -3.5006  -21.2949  -49.9453 N.am      16 UNK        -0.5000 
     90 CA         -2.8234  -22.5941  -50.0574 C.3       16 UNK         0.1400 
     91 CB         -1.7246  -22.5351  -51.1386 C.3       16 UNK        -0.1800 
     92 C          -3.8096  -23.7551  -50.3063 C.2       16 UNK         0.5000 
     93 O          -3.5028  -24.6724  -51.0688 O.2       16 UNK        -0.5000 
     94 N          -5.0144  -23.6515  -49.7255 N.am      17 UNK        -0.5000 
     95 CA         -6.1959  -24.4906  -49.9676 C.3       17 UNK         0.1400 
     96 CB         -5.9943  -25.8828  -49.3362 C.3       17 UNK        -0.1800 
     97 C          -6.6109  -24.5678  -51.4582 C.2       17 UNK         0.5000 
     98 O          -7.2048  -25.5624  -51.8771 O.2       17 UNK        -0.5000 
     99 N          -6.2476  -23.5356  -52.2364 N.am      18 UNK        -0.5000 
    100 CA        -6.3342  -23.4096  -53.6945 C.3       18 UNK         0.1400 
    101 CB        -7.7987  -23.4614  -54.1734 C.3       18 UNK        -0.1800 
    102 C         -5.4283  -24.3870  -54.4791 C.2       18 UNK         0.5000 
    103 O         -5.5023  -24.4111  -55.7085 O.2       18 UNK        -0.5000 
    104 N         -4.5621  -25.1522  -53.7952 N.am      19 UNK        -0.5000 
    105 CA        -3.6858  -26.1626  -54.3992 C.3       19 UNK         0.1400 
    106 CB        -3.1346  -27.0852  -53.3020 C.3       19 UNK        -0.1800 
    107 C         -2.5368  -25.5511  -55.2216 C.2       19 UNK         0.5000 
    108 O         -2.0605  -26.1810  -56.1661 O.2       19 UNK        -0.5000 
    109 N         -2.1422  -24.3193  -54.8733 N.am      20 UNK        -0.5000 
    110 CA        -1.1703  -23.5056  -55.6078 C.3       20 UNK         0.1400 
    111 CB        -0.5367  -22.5015  -54.6285 C.3       20 UNK        -0.1800 
    112 C         -1.7921  -22.7658  -56.8133 C.2       20 UNK         0.5000 
    113 O         -1.0815  -22.0150  -57.4815 O.2       20 UNK        -0.5000 
    114 N         -3.1057  -22.9425  -57.0371 N.am      21 UNK        -0.5000 
    115 CA        -3.9648  -22.2367  -57.9989 C.3       21 UNK         0.1400 
    116 CB        -3.4759  -22.4267  -59.4501 C.3       21 UNK        -0.1800 
    117 C         -4.2048  -20.7538  -57.6365 C.2       21 UNK         0.5000 
    118 O         -4.7139  -19.9951  -58.4632 O.2       21 UNK        -0.5000 
    119 N         -3.8556  -20.3733  -56.4017 N.am      22 UNK        -0.5000 
    120 CA        -4.1376  -19.0693  -55.7954 C.3       22 UNK         0.1400 
    121 C         -5.6360  -18.9359  -55.3903 C.2       22 UNK         0.5000 
    122 N         -6.1776  -17.7257  -55.3763 N.am      22 UNK        -0.7600 
    123 O         -6.3095  -19.9143  -55.0745 O.2       22 UNK        -0.5000 
    124 C124       -3.1711  -18.8174  -54.6085 C.3       23 UNK        -0.0398 
    125 S125       -3.0600  -17.0566  -54.1470 S.3       23 UNK        -0.2404 
    126 C126       -2.3890  -17.1644  -52.4589 C.3       23 UNK        -0.0205 
    127 H127        4.5000  -14.1980  -46.4624 H         1 UNK         0.0600 
    128 H128        5.1729  -15.2831  -47.6857 H         1 UNK         0.0600 
    129 H129        4.6894  -15.9205  -46.1140 H         1 UNK         0.0600 
    130 H130        3.4311  -14.3028  -49.0269 H         1 UNK         0.3000 
    131 H131        1.6178  -16.0930  -49.8227 H         1 UNK         0.0600 
    132 H132        0.5976  -14.1773  -51.1995 H         1 UNK         0.0800 
    133 H133        1.5571  -13.0682  -50.2690 H         1 UNK         0.0800 
    134 H134        2.9834  -15.5198  -53.8533 H         1 UNK         0.0800 
    135 H135        1.6112  -14.4482  -53.7334 H         1 UNK         0.0800 
    136 H136       -0.5227  -15.3564  -53.2070 H         1 UNK         0.1150 
    137 H137       -0.9154  -19.3188  -51.6341 H         1 UNK         0.1150 
    138 H138        2.9821  -17.6333  -52.2522 H         1 UNK         0.1150 
    139 H139        1.0233  -20.6851  -51.2557 H         1 UNK         0.0800 
    140 H140        2.5330  -20.2124  -51.9832 H         1 UNK         0.0800 
    141 H141        0.5285  -18.1779  -49.2974 H         1 UNK         0.0800 
    142 H142        1.4314  -18.4243  -47.8325 H         1 UNK         0.0800 
    143 H143       -0.2968  -20.5520  -49.1697 H         1 UNK         0.0600 
    144 H144        0.9662  -20.6375  -46.4578 H         1 UNK         0.3000 
    145 H145        0.7353  -24.1424  -46.4373 H         1 UNK         0.0600 
    146 H146        3.3629  -22.5641  -46.5664 H         1 UNK         0.0600 
    147 H147        3.1488  -24.1646  -45.8540 H         1 UNK         0.0600 
    148 H148        2.9523  -23.9387  -47.5845 H         1 UNK         0.0600 
    149 H149        1.9112  -22.4208  -44.5426 H         1 UNK         0.3000 
    150 H150       -0.9138  -20.8374  -43.1912 H         1 UNK         0.0600 
    151 H151       -1.1977  -23.1101  -42.1872 H         1 UNK         0.0600 
    152 H152       -0.3710  -22.0171  -41.0885 H         1 UNK         0.0600 
    153 H153        0.5448  -23.2384  -41.9716 H         1 UNK         0.0600 
    154 H154        1.6186  -20.9406  -42.0660 H         1 UNK         0.3000 
    155 H155        3.6920  -19.7125  -43.0982 H         1 UNK         0.0600 
    156 H156        3.5839  -18.1658  -44.9986 H         1 UNK         0.0600 
    157 H157        4.0970  -17.2731  -43.5731 H         1 UNK         0.0600 
    158 H158        2.4379  -17.1356  -44.1589 H         1 UNK         0.0600 
    159 H159        2.3409  -17.5516  -41.6858 H         1 UNK         0.3000 
    160 H160        1.1856  -18.5936  -39.2796 H         1 UNK         0.0600 
    161 H161        2.5018  -18.8584  -37.1623 H         1 UNK         0.0600 
    162 H162        3.8614  -19.4898  -38.0910 H         1 UNK         0.0600 
    163 H163        2.3406  -20.3682  -38.0426 H         1 UNK         0.0600 
    164 H164        1.9166  -16.5333  -39.2341 H         1 UNK         0.3000 
    165 H165        4.6629  -14.8620  -38.4838 H         1 UNK         0.0600 
    166 H166        4.3569  -15.1142  -41.5195 H         1 UNK         0.0600 
    167 H167        4.8644  -13.6334  -40.7015 H         1 UNK         0.0600 
    168 H168        5.8531  -15.0815  -40.6027 H         1 UNK         0.0600 
    169 H169        2.2784  -14.4415  -40.2025 H         1 UNK         0.3000 
    170 H170        0.1465  -13.7991  -37.4916 H         1 UNK         0.0600 
    171 H171        1.2947  -11.6220  -39.3227 H         1 UNK         0.0600 
    172 H172       -0.2564  -11.5588  -38.4840 H         1 UNK         0.0600 
    173 H173        1.2401  -11.5528  -37.5654 H         1 UNK         0.0600 
    174 H174       -0.1570  -13.3620  -40.2999 H         1 UNK         0.3000 
    175 H175       -0.8118  -16.7033  -41.2844 H         1 UNK         0.0600 
    176 H176       -2.7462  -14.3497  -40.9133 H         1 UNK         0.0600 
    177 H177       -2.9708  -15.6999  -42.0217 H         1 UNK         0.0600 
    178 H178       -2.9854  -15.9771  -40.2882 H         1 UNK         0.0600 
    179 H179       -1.0070  -14.2807  -42.7390 H         1 UNK         0.3000 
    180 H180        1.0243  -12.9664  -43.3786 H         1 UNK         0.0600 
    181 H181        3.2360  -14.9096  -44.1882 H         1 UNK         0.0600 
    182 H182        3.3559  -13.6046  -43.0138 H         1 UNK         0.0600 
    183 H183        3.0982  -13.2295  -44.7046 H         1 UNK         0.0600 
    184 H184        1.1585  -14.8872  -45.5940 H         1 UNK         0.3000 
    185 H185       -1.5338  -15.1567  -46.6731 H         1 UNK         0.0600 
    186 H186       -2.4412  -13.4112  -48.2284 H         1 UNK         0.0600 
    187 H187       -2.9820  -13.1379  -46.5819 H         1 UNK         0.0600 
    188 H188       -1.6904  -12.1476  -47.2547 H         1 UNK         0.0600 
    189 H189        0.8749  -13.6549  -47.3804 H         1 UNK         0.3000 
    190 H190       -0.2559  -19.1839  -45.8367 H         1 UNK         0.3000 
    191 H191       -2.3952  -17.4122  -46.2974 H         1 UNK         0.0600 
    192 H192       -1.3177  -18.4985  -43.6461 H         1 UNK         0.0600 
    193 H193       -0.6588  -17.1277  -44.5353 H         1 UNK         0.0600 
    194 H194       -2.2772  -17.0408  -43.8598 H         1 UNK         0.0600 
    195 H195       -2.5624  -20.8477  -45.4215 H         1 UNK         0.3000 
    196 H196       -5.2707  -20.6719  -44.3453 H         1 UNK         0.0600 
    197 H197       -3.6468  -22.4011  -43.5584 H         1 UNK         0.0600 
    198 H198       -3.6567  -23.1353  -45.1621 H         1 UNK         0.0600 
    199 H199       -5.1245  -23.1020  -44.2019 H         1 UNK         0.0600 
    200 H200       -6.6137  -19.8097  -45.8621 H         1 UNK         0.3000 
    201 H201       -8.0510  -19.6646  -47.5499 H         1 UNK         0.0600 
    202 H202       -9.1527  -21.7878  -48.2367 H         1 UNK         0.0600 
    203 H203       -8.8480  -21.7736  -46.5091 H         1 UNK         0.0600 
    204 H204       -7.8146  -22.7200  -47.5752 H         1 UNK         0.0600 
    205 H205       -5.4859  -19.1123  -48.3783 H         1 UNK         0.3000 
    206 H206       -4.1900  -18.6960  -50.1249 H         1 UNK         0.0600 
    207 H207       -6.6048  -19.4106  -51.8802 H         1 UNK         0.0600 
    208 H208       -5.2112  -18.4672  -52.3678 H         1 UNK         0.0600 
    209 H209       -6.3044  -17.8329  -51.1533 H         1 UNK         0.0600 
    210 H210       -3.3756  -20.8131  -49.0618 H         1 UNK         0.3000 
    211 H211       -2.3490  -22.7831  -49.0937 H         1 UNK         0.0600 
    212 H212       -1.0736  -21.6761  -50.9989 H         1 UNK         0.0600 
    213 H213       -1.0969  -23.4264  -51.1067 H         1 UNK         0.0600 
    214 H214       -2.1504  -22.4699  -52.1390 H         1 UNK         0.0600 
    215 H215       -5.1482  -22.8924  -49.0635 H         1 UNK         0.3000 
    216 H216       -7.0247  -24.0071  -49.4505 H         1 UNK         0.0600 
    217 H217       -6.9106  -26.4722  -49.3822 H         1 UNK         0.0600 
    218 H218       -5.2144  -26.4483  -49.8474 H         1 UNK         0.0600 
    219 H219       -5.7158  -25.8010  -48.2855 H         1 UNK         0.0600 
    220 H220       -5.7611  -22.7645  -51.7900 H         1 UNK         0.3000 
    221 H221       -5.9552  -22.4128  -53.9223 H         1 UNK         0.0600 
    222 H222       -8.2310  -24.4555  -54.0588 H         1 UNK         0.0600 
    223 H223       -8.4186  -22.7569  -53.6188 H         1 UNK         0.0600 
    224 H224       -7.8729  -23.1941  -55.2281 H         1 UNK         0.0600 
    225 H225       -4.4917  -25.0419  -52.7884 H         1 UNK         0.3000 
    226 H226       -4.2903  -26.7689  -55.0771 H         1 UNK         0.0600 
    227 H227       -3.9392  -27.5193  -52.7081 H         1 UNK         0.0600 
    228 H228       -2.5680  -27.9097  -53.7362 H         1 UNK         0.0600 
    229 H229       -2.4665  -26.5525  -52.6246 H         1 UNK         0.0600 
    230 H230       -2.5852  -23.8917  -54.0732 H         1 UNK         0.3000 
    231 H231       -0.3795  -24.1532  -55.9922 H         1 UNK         0.0600 
    232 H232        0.2638  -21.9373  -55.1085 H         1 UNK         0.0600 
    233 H233       -0.0993  -23.0087  -53.7683 H         1 UNK         0.0600 
    234 H234       -1.2668  -21.7797  -54.2608 H         1 UNK         0.0600 
    235 H235       -3.6008  -23.5955  -56.4418 H         1 UNK         0.3000 
    236 H236       -4.9413  -22.7171  -57.9237 H         1 UNK         0.0600 
    237 H237       -3.2992  -23.4790  -59.6726 H         1 UNK         0.0600 
    238 H238       -4.2201  -22.0667  -60.1612 H         1 UNK         0.0600 
    239 H239       -2.5530  -21.8806  -59.6456 H         1 UNK         0.0600 
    240 H240       -3.4855  -21.0783  -55.7845 H         1 UNK         0.3000 
    241 H241       -3.9348  -18.3161  -56.5597 H         1 UNK         0.0600 
    242 H242       -7.1449  -17.6253  -55.1123 H         1 UNK         0.3800 
    243 H243       -5.6363  -16.9057  -55.6030 H         1 UNK         0.3800 
    244 H244       -3.4565  -19.4180  -53.7446 H         1 UNK         0.0800 
    245 H245       -2.1612  -19.1347  -54.8738 H         1 UNK         0.0800 
    246 H246       -2.8681  -17.9787  -51.9186 H         1 UNK         0.0800 
    247 H247       -2.6450  -16.2511  -51.9196 H         1 UNK         0.0800 
@<TRIPOS>BOND
     1    1    2 1    
     2    1  127 1    
     3    1  128 1    
     4    1  129 1    
     5    2    3 2    
     6    2    4 am   BACKBONE|DICT|INTERRES
     7    4    5 1    
     8    4  130 1    
     9    5    6 1    
    10    5   65 1    
    11    5  131 1    
    12    6    7 1    
    13    6  132 1    
    14    6  133 1    
    15    7    8 1    
    16    8    9 1    
    17    8  134 1    
    18    8  135 1    
    19    9   10 ar   
    20    9   14 ar   
    21   10   11 ar   
    22   10  136 1    
    23   11   12 ar   
    24   11  126 1    
    25   12   13 ar   
    26   12  137 1    
    27   13   14 ar   
    28   13   15 1    
    29   14  138 1    
    30   15   16 1    
    31   15  139 1    
    32   15  140 1    
    33   16   17 1    
    34   17   18 1    
    35   17  141 1    
    36   17  142 1    
    37   18   19 1    
    38   18   67 1    
    39   18  143 1    
    40   19   20 am   BACKBONE|DICT|INTERRES
    41   19  144 1    
    42   20   21 2    
    43   20   22 1    
    44   22   23 1    
    45   22   24 1    
    46   22  145 1    
    47   23  146 1    
    48   23  147 1    
    49   23  148 1    
    50   24   25 am   BACKBONE|DICT|INTERRES
    51   24  149 1    
    52   25   26 2    
    53   25   27 1    
    54   27   28 1    
    55   27   29 1    
    56   27  150 1    
    57   28  151 1    
    58   28  152 1    
    59   28  153 1    
    60   29   30 am   BACKBONE|DICT|INTERRES
    61   29  154 1    
    62   30   31 2    
    63   30   32 1    
    64   32   33 1    
    65   32   34 1    
    66   32  155 1    
    67   33  156 1    
    68   33  157 1    
    69   33  158 1    
    70   34   35 am   BACKBONE|DICT|INTERRES
    71   34  159 1    
    72   35   36 2    
    73   35   37 1    
    74   37   38 1    
    75   37   39 1    
    76   37  160 1    
    77   38  161 1    
    78   38  162 1    
    79   38  163 1    
    80   39   40 am   BACKBONE|DICT|INTERRES
    81   39  164 1    
    82   40   41 2    
    83   40   42 1    
    84   42   43 1    
    85   42   44 1    
    86   42  165 1    
    87   43  166 1    
    88   43  167 1    
    89   43  168 1    
    90   44   45 am   BACKBONE|DICT|INTERRES
    91   44  169 1    
    92   45   46 2    
    93   45   47 1    
    94   47   48 1    
    95   47   49 1    
    96   47  170 1    
    97   48  171 1    
    98   48  172 1    
    99   48  173 1    
   100   49   50 am   BACKBONE|DICT|INTERRES
   101   49  174 1    
   102   50   51 2    
   103   50   52 1    
   104   52   53 1    
   105   52   54 1    
   106   52  175 1    
   107   53  176 1    
   108   53  177 1    
   109   53  178 1    
   110   54   55 am   BACKBONE|DICT|INTERRES
   111   54  179 1    
   112   55   56 2    
   113   55   57 1    
   114   57   58 1    
   115   57   59 1    
   116   57  180 1    
   117   58  181 1    
   118   58  182 1    
   119   58  183 1    
   120   59   60 am   BACKBONE|DICT|INTERRES
   121   59  184 1    
   122   60   61 2    
   123   60   62 1    
   124   62   63 1    
   125   62   64 1    
   126   62  185 1    
   127   63  186 1    
   128   63  187 1    
   129   63  188 1    
   130   64   65 am   BACKBONE|DICT|INTERRES
   131   64  189 1    
   132   65   66 2    
   133   67   68 2    
   134   67   69 am   BACKBONE|DICT|INTERRES
   135   69   70 1    
   136   69  190 1    
   137   70   71 1    
   138   70   72 1    
   139   70  191 1    
   140   71  192 1    
   141   71  193 1    
   142   71  194 1    
   143   72   73 2    
   144   72   74 am   BACKBONE|DICT|INTERRES
   145   74   75 1    
   146   74  195 1    
   147   75   76 1    
   148   75   77 1    
   149   75  196 1    
   150   76  197 1    
   151   76  198 1    
   152   76  199 1    
   153   77   78 2    
   154   77   79 am   BACKBONE|DICT|INTERRES
   155   79   80 1    
   156   79  200 1    
   157   80   81 1    
   158   80   82 1    
   159   80  201 1    
   160   81  202 1    
   161   81  203 1    
   162   81  204 1    
   163   82   83 2    
   164   82   84 am   BACKBONE|DICT|INTERRES
   165   84   85 1    
   166   84  205 1    
   167   85   86 1    
   168   85   87 1    
   169   85  206 1    
   170   86  207 1    
   171   86  208 1    
   172   86  209 1    
   173   87   88 2    
   174   87   89 am   BACKBONE|DICT|INTERRES
   175   89   90 1    
   176   89  210 1    
   177   90   91 1    
   178   90   92 1    
   179   90  211 1    
   180   91  212 1    
   181   91  213 1    
   182   91  214 1    
   183   92   93 2    
   184   92   94 am   BACKBONE|DICT|INTERRES
   185   94   95 1    
   186   94  215 1    
   187   95   96 1    
   188   95   97 1    
   189   95  216 1    
   190   96  217 1    
   191   96  218 1    
   192   96  219 1    
   193   97   98 2    
   194   97   99 am   BACKBONE|DICT|INTERRES
   195   99  100 1    
   196   99  220 1    
   197  100  101 1    
   198  100  102 1    
   199  100  221 1    
   200  101  222 1    
   201  101  223 1    
   202  101  224 1    
   203  102  103 2    
   204  102  104 am   BACKBONE|DICT|INTERRES
   205  104  105 1    
   206  104  225 1    
   207  105  106 1    
   208  105  107 1    
   209  105  226 1    
   210  106  227 1    
   211  106  228 1    
   212  106  229 1    
   213  107  108 2    
   214  107  109 am   BACKBONE|DICT|INTERRES
   215  109  110 1    
   216  109  230 1    
   217  110  111 1    
   218  110  112 1    
   219  110  231 1    
   220  111  232 1    
   221  111  233 1    
   222  111  234 1    
   223  112  113 2    
   224  112  114 am   BACKBONE|DICT|INTERRES
   225  114  115 1    
   226  114  235 1    
   227  115  116 1    
   228  115  117 1    
   229  115  236 1    
   230  116  237 1    
   231  116  238 1    
   232  116  239 1    
   233  117  118 2    
   234  117  119 am   BACKBONE|DICT|INTERRES
   235  119  120 1    
   236  119  240 1    
   237  120  121 1    
   238  120  124 1    
   239  120  241 1    
   240  121  122 am   BACKBONE|DICT|INTERRES
   241  121  123 2    
   242  122  242 1    
   243  122  243 1    
   244  124  125 1    
   245  124  244 1    
   246  124  245 1    
   247  125  126 1    
   248  126  246 1    
   249  126  247 1    
@<TRIPOS>SUBSTRUCTURE
     1 UNK         1 GROUP             0       ****    0 ROOT    
