@<TRIPOS>MOLECULE
3R540
247   249    1
SMALL
USER_CHARGES


@<TRIPOS>ATOM
      1 CA         -1.1633  -11.3586  -46.3519 C.3       0 UNK        -0.1800 
      2 C          -1.2242  -12.7140  -47.0387 C.2       0 UNK         0.5000 
      3 O          -2.2011  -13.4434  -46.8715 O.2       0 UNK        -0.5000 
      4 N          -0.1981  -13.0530  -47.8289 N.am      1 UNK        -0.5000 
      5 CA         -0.0574  -14.3428  -48.5198 C.3       1 UNK         0.1400 
      6 C6          1.3296  -14.5045  -49.1791 C.3       23 UNK        -0.0398 
      7 S7          2.6559  -14.5094  -47.9284 S.3       23 UNK        -0.2404 
      8 C8          4.0943  -15.0455  -48.9104 C.3       23 UNK        -0.0205 
      9 C9          3.8922  -16.3799  -49.6208 C.ar      23 UNK        -0.0193 
     10 C10         4.2241  -16.4974  -50.9739 C.ar      23 UNK        -0.1150 
     11 C11         4.0662  -17.7129  -51.6437 C.ar      23 UNK        -0.0193 
     12 C12         3.5700  -18.8178  -50.9481 C.ar      23 UNK        -0.1150 
     13 C13         3.2183  -18.7149  -49.5980 C.ar      23 UNK        -0.0193 
     14 C14         3.3939  -17.4956  -48.9370 C.ar      23 UNK        -0.1150 
     15 C15         2.6887  -19.9324  -48.8509 C.3       23 UNK        -0.0205 
     16 S16         1.2456  -20.6717  -49.6837 S.3       23 UNK        -0.2404 
     17 C17        -0.1408  -20.3004  -48.5597 C.3       23 UNK        -0.0398 
     18 CA         -0.5346  -21.5627  -47.7540 C.3       11 UNK         0.1400 
     19 N           0.4206  -21.8610  -46.6801 N.am      11 UNK        -0.5000 
     20 C           0.5484  -23.0695  -46.1175 C.2       10 UNK         0.5000 
     21 O          -0.1636  -24.0328  -46.4002 O.2       10 UNK        -0.5000 
     22 CA          1.6315  -23.2174  -45.0349 C.3       10 UNK         0.1400 
     23 CB          3.0179  -23.3715  -45.6788 C.3       10 UNK        -0.1800 
     24 N           1.6772  -22.1286  -44.0546 N.am      10 UNK        -0.5000 
     25 C           0.6591  -21.7131  -43.2883 C.2       9 UNK         0.5000 
     26 O          -0.5058  -22.0723  -43.4635 O.2       9 UNK        -0.5000 
     27 CA          0.9712  -20.7179  -42.1484 C.3       9 UNK         0.1400 
     28 CB          0.4067  -21.2122  -40.8017 C.3       9 UNK        -0.1800 
     29 N           2.3819  -20.3229  -42.0152 N.am      9 UNK        -0.5000 
     30 C           3.4303  -21.0734  -41.6363 C.2       8 UNK         0.5000 
     31 O           3.3578  -22.2785  -41.3971 O.2       8 UNK        -0.5000 
     32 CA          4.8034  -20.3734  -41.5306 C.3       8 UNK         0.1400 
     33 CB          5.6498  -20.6789  -42.7766 C.3       8 UNK        -0.1800 
     34 N           4.7158  -18.9204  -41.3692 N.am      8 UNK        -0.5000 
     35 C           4.2565  -18.2894  -40.2791 C.2       7 UNK         0.5000 
     36 O           3.9558  -18.8695  -39.2351 O.2       7 UNK        -0.5000 
     37 CA          4.0766  -16.7564  -40.3709 C.3       7 UNK         0.1400 
     38 CB          5.2247  -16.0403  -39.6426 C.3       7 UNK        -0.1800 
     39 N           3.9663  -16.2080  -41.7316 N.am      7 UNK        -0.5000 
     40 C           3.0619  -16.5681  -42.6530 C.2       6 UNK         0.5000 
     41 O           2.2433  -17.4738  -42.4722 O.2       6 UNK        -0.5000 
     42 CA          3.1191  -15.8296  -44.0098 C.3       6 UNK         0.1400 
     43 CB          4.5061  -15.9682  -44.6634 C.3       6 UNK        -0.1800 
     44 N           2.1267  -16.3725  -44.9349 N.am      6 UNK        -0.5000 
     45 C           0.8131  -16.1260  -44.8853 C.2       5 UNK         0.5000 
     46 O           0.2942  -15.2303  -44.2130 O.2       5 UNK        -0.5000 
     47 CA         -0.0617  -17.1024  -45.6819 C.3       5 UNK         0.1400 
     48 CB          0.0227  -18.5103  -45.0581 C.3       5 UNK        -0.1800 
     49 N          -1.4461  -16.6436  -45.6669 N.am      5 UNK        -0.5000 
     50 C          -2.4343  -17.1482  -46.4120 C.2       4 UNK         0.5000 
     51 O          -2.2580  -17.9975  -47.2833 O.2       4 UNK        -0.5000 
     52 CA         -3.8574  -16.6539  -46.1168 C.3       4 UNK         0.1400 
     53 CB         -4.0957  -16.3019  -44.6336 C.3       4 UNK        -0.1800 
     54 N          -4.1501  -15.4917  -46.9426 N.am      4 UNK        -0.5000 
     55 C          -5.3530  -15.1880  -47.4438 C.2       3 UNK         0.5000 
     56 O          -6.3523  -15.8942  -47.3050 O.2       3 UNK        -0.5000 
     57 CA         -5.4651  -13.8720  -48.2297 C.3       3 UNK         0.1400 
     58 CB         -5.6443  -12.6847  -47.2700 C.3       3 UNK        -0.1800 
     59 N          -4.2794  -13.6482  -49.0548 N.am      3 UNK        -0.5000 
     60 C          -4.2166  -13.8676  -50.3754 C.2       2 UNK         0.5000 
     61 O          -5.1858  -14.2133  -51.0522 O.2       2 UNK        -0.5000 
     62 CA         -2.8592  -13.6292  -51.0711 C.3       2 UNK         0.1400 
     63 CB         -2.8956  -12.3278  -51.8879 C.3       2 UNK        -0.1800 
     64 N          -1.7331  -13.5622  -50.1389 N.am      2 UNK        -0.5000 
     65 C          -1.1777  -14.6239  -49.5393 C.2       1 UNK         0.5000 
     66 O          -1.5302  -15.7862  -49.7305 O.2       1 UNK        -0.5000 
     67 C          -2.0003  -21.5189  -47.2695 C.2       11 UNK         0.5000 
     68 O          -2.9042  -21.7726  -48.0680 O.2       11 UNK        -0.5000 
     69 N          -2.2087  -21.2524  -45.9730 N.am      12 UNK        -0.5000 
     70 CA         -3.5134  -21.3059  -45.3216 C.3       12 UNK         0.1400 
     71 CB         -3.5128  -20.3769  -44.0986 C.3       12 UNK        -0.1800 
     72 C          -3.8528  -22.7501  -44.9219 C.2       12 UNK         0.5000 
     73 O          -4.9759  -23.1960  -45.1562 O.2       12 UNK        -0.5000 
     74 N          -2.8608  -23.4638  -44.3659 N.am      13 UNK        -0.5000 
     75 CA         -2.9445  -24.8685  -43.9598 C.3       13 UNK         0.1400 
     76 CB         -1.6377  -25.2751  -43.2629 C.3       13 UNK        -0.1800 
     77 C          -3.2612  -25.8237  -45.1255 C.2       13 UNK         0.5000 
     78 O          -3.9880  -26.7988  -44.9300 O.2       13 UNK        -0.5000 
     79 N          -2.7718  -25.4967  -46.3294 N.am      14 UNK        -0.5000 
     80 CA         -3.0787  -26.1559  -47.6017 C.3       14 UNK         0.1400 
     81 CB         -1.9853  -25.7820  -48.6173 C.3       14 UNK        -0.1800 
     82 C          -4.5003  -25.8280  -48.1191 C.2       14 UNK         0.5000 
     83 O          -4.6613  -25.4054  -49.2666 O.2       14 UNK        -0.5000 
     84 N          -5.5058  -25.9987  -47.2467 N.am      15 UNK        -0.5000 
     85 CA         -6.9507  -25.8243  -47.4581 C.3       15 UNK         0.1400 
     86 CB         -7.4780  -26.9537  -48.3667 C.3       15 UNK        -0.1800 
     87 C          -7.3698  -24.4284  -47.9744 C.2       15 UNK         0.5000 
     88 O          -8.4433  -24.2949  -48.5642 O.2       15 UNK        -0.5000 
     89 N          -6.4983  -23.4263  -47.7847 N.am      16 UNK        -0.5000 
     90 CA         -6.5335  -22.0831  -48.3735 C.3       16 UNK         0.1400 
     91 CB         -7.6895  -21.2545  -47.7792 C.3       16 UNK        -0.1800 
     92 C          -6.5259  -22.0724  -49.9220 C.2       16 UNK         0.5000 
     93 O          -6.8810  -21.0590  -50.5244 O.2       16 UNK        -0.5000 
     94 N          -6.1089  -23.1802  -50.5527 N.am      17 UNK        -0.5000 
     95 CA         -6.0145  -23.3138  -52.0059 C.3       17 UNK         0.1400 
     96 CB         -6.0549  -24.8007  -52.3892 C.3       17 UNK        -0.1800 
     97 C          -4.7362  -22.6440  -52.5276 C.2       17 UNK         0.5000 
     98 O          -4.7789  -21.9077  -53.5134 O.2       17 UNK        -0.5000 
     99 N          -3.6247  -22.8621  -51.8128 N.am      18 UNK        -0.5000 
    100 CA        -2.3337  -22.2374  -52.0948 C.3       18 UNK         0.1400 
    101 CB        -1.2356  -22.9962  -51.3463 C.3       18 UNK        -0.1800 
    102 C         -2.3105  -20.7298  -51.7715 C.2       18 UNK         0.5000 
    103 O         -1.4992  -20.0037  -52.3461 O.2       18 UNK        -0.5000 
    104 N         -3.2306  -20.2683  -50.9108 N.am      19 UNK        -0.5000 
    105 CA        -3.4816  -18.8516  -50.6289 C.3       19 UNK         0.1400 
    106 CB        -4.4927  -18.7232  -49.4798 C.3       19 UNK        -0.1800 
    107 C         -3.9794  -18.0828  -51.8696 C.2       19 UNK         0.5000 
    108 O         -3.6381  -16.9151  -52.0390 O.2       19 UNK        -0.5000 
    109 N         -4.7511  -18.7562  -52.7352 N.am      20 UNK        -0.5000 
    110 CA        -5.2000  -18.2082  -54.0148 C.3       20 UNK         0.1400 
    111 CB        -6.4536  -18.9638  -54.4816 C.3       20 UNK        -0.1800 
    112 C         -4.0966  -18.2628  -55.0886 C.2       20 UNK         0.5000 
    113 O         -4.0389  -17.3750  -55.9402 O.2       20 UNK        -0.5000 
    114 N         -3.2504  -19.3021  -55.0387 N.am      21 UNK        -0.5000 
    115 CA        -2.1566  -19.5264  -55.9861 C.3       21 UNK         0.1400 
    116 CB        -1.6924  -20.9880  -55.8928 C.3       21 UNK        -0.1800 
    117 C         -0.9672  -18.5713  -55.7737 C.2       21 UNK         0.5000 
    118 O         -0.3846  -18.1038  -56.7531 O.2       21 UNK        -0.5000 
    119 N         -0.6264  -18.3055  -54.5086 N.am      22 UNK        -0.5000 
    120 CA         0.4788  -17.4300  -54.0934 C.3       22 UNK         0.1400 
    121 C          0.2073  -16.7545  -52.7230 C.2       22 UNK         0.5000 
    122 N         -0.4092  -17.4404  -51.7707 N.am      22 UNK        -0.7600 
    123 O          0.5139  -15.5799  -52.5381 O.2       22 UNK        -0.5000 
    124 C124        1.8406  -18.1725  -54.1288 C.3       23 UNK        -0.0398 
    125 S125        3.2704  -17.0415  -54.2297 S.3       23 UNK        -0.2404 
    126 C126        4.4635  -17.8386  -53.1078 C.3       23 UNK        -0.0205 
    127 H127       -2.0239  -10.7544  -46.6392 H         1 UNK         0.0600 
    128 H128       -0.2580  -10.8110  -46.6146 H         1 UNK         0.0600 
    129 H129       -1.1820  -11.4882  -45.2699 H         1 UNK         0.0600 
    130 H130        0.5842  -12.4208  -47.9235 H         1 UNK         0.3000 
    131 H131       -0.1535  -15.1144  -47.7567 H         1 UNK         0.0600 
    132 H132        1.5172  -13.7085  -49.9017 H         1 UNK         0.0800 
    133 H133        1.3724  -15.4423  -49.7364 H         1 UNK         0.0800 
    134 H134        4.9583  -15.1292  -48.2502 H         1 UNK         0.0800 
    135 H135        4.3305  -14.2587  -49.6285 H         1 UNK         0.0800 
    136 H136        4.6121  -15.6434  -51.5113 H         1 UNK         0.1150 
    137 H137        3.4534  -19.7639  -51.4577 H         1 UNK         0.1150 
    138 H138        3.1437  -17.4104  -47.8897 H         1 UNK         0.1150 
    139 H139        3.4812  -20.6803  -48.8052 H         1 UNK         0.0800 
    140 H140        2.4457  -19.6846  -47.8174 H         1 UNK         0.0800 
    141 H141       -0.9687  -19.9610  -49.1824 H         1 UNK         0.0800 
    142 H142        0.1004  -19.4592  -47.9108 H         1 UNK         0.0800 
    143 H143       -0.4931  -22.4117  -48.4356 H         1 UNK         0.0600 
    144 H144        1.0419  -21.1223  -46.3903 H         1 UNK         0.3000 
    145 H145        1.4134  -24.1339  -44.4835 H         1 UNK         0.0600 
    146 H146        3.7776  -23.5969  -44.9300 H         1 UNK         0.0600 
    147 H147        3.0248  -24.1881  -46.4022 H         1 UNK         0.0600 
    148 H148        3.3228  -22.4653  -46.2038 H         1 UNK         0.0600 
    149 H149        2.5938  -21.7758  -43.8250 H         1 UNK         0.3000 
    150 H150        0.4376  -19.8014  -42.3948 H         1 UNK         0.0600 
    151 H151       -0.6740  -21.3490  -40.8571 H         1 UNK         0.0600 
    152 H152        0.6008  -20.4932  -40.0056 H         1 UNK         0.0600 
    153 H153        0.8389  -22.1680  -40.5049 H         1 UNK         0.0600 
    154 H154        2.5471  -19.3336  -42.1851 H         1 UNK         0.3000 
    155 H155        5.3149  -20.7841  -40.6576 H         1 UNK         0.0600 
    156 H156        5.1956  -20.2740  -43.6820 H         1 UNK         0.0600 
    157 H157        5.7639  -21.7544  -42.9192 H         1 UNK         0.0600 
    158 H158        6.6513  -20.2578  -42.6860 H         1 UNK         0.0600 
    159 H159        4.9496  -18.3603  -42.1750 H         1 UNK         0.3000 
    160 H160        3.1453  -16.5183  -39.8531 H         1 UNK         0.0600 
    161 H161        6.1814  -16.2098  -40.1382 H         1 UNK         0.0600 
    162 H162        5.3199  -16.3949  -38.6153 H         1 UNK         0.0600 
    163 H163        5.0546  -14.9645  -39.5971 H         1 UNK         0.0600 
    164 H164        4.6169  -15.4701  -41.9595 H         1 UNK         0.3000 
    165 H165        2.9098  -14.7722  -43.8361 H         1 UNK         0.0600 
    166 H166        4.5305  -15.4820  -45.6387 H         1 UNK         0.0600 
    167 H167        5.2834  -15.5005  -44.0586 H         1 UNK         0.0600 
    168 H168        4.7833  -17.0135  -44.8062 H         1 UNK         0.0600 
    169 H169        2.4464  -17.1416  -45.5019 H         1 UNK         0.3000 
    170 H170        0.3007  -17.1337  -46.7112 H         1 UNK         0.0600 
    171 H171        1.0499  -18.8691  -44.9885 H         1 UNK         0.0600 
    172 H172       -0.4004  -18.5121  -44.0539 H         1 UNK         0.0600 
    173 H173       -0.5286  -19.2368  -45.6461 H         1 UNK         0.0600 
    174 H174       -1.6312  -15.9053  -44.9987 H         1 UNK         0.3000 
    175 H175       -4.5266  -17.4749  -46.3839 H         1 UNK         0.0600 
    176 H176       -3.5540  -15.4033  -44.3358 H         1 UNK         0.0600 
    177 H177       -5.1541  -16.1238  -44.4429 H         1 UNK         0.0600 
    178 H178       -3.7828  -17.1120  -43.9748 H         1 UNK         0.0600 
    179 H179       -3.3807  -14.8382  -47.0702 H         1 UNK         0.3000 
    180 H180       -6.3590  -13.9323  -48.8540 H         1 UNK         0.0600 
    181 H181       -5.7685  -11.7512  -47.8191 H         1 UNK         0.0600 
    182 H182       -4.7901  -12.5685  -46.6020 H         1 UNK         0.0600 
    183 H183       -6.5307  -12.8169  -46.6484 H         1 UNK         0.0600 
    184 H184       -3.4330  -13.3915  -48.5622 H         1 UNK         0.3000 
    185 H185       -2.6881  -14.4579  -51.7608 H         1 UNK         0.0600 
    186 H186       -1.9634  -12.1785  -52.4331 H         1 UNK         0.0600 
    187 H187       -3.7000  -12.3513  -52.6242 H         1 UNK         0.0600 
    188 H188       -3.0580  -11.4571  -51.2514 H         1 UNK         0.0600 
    189 H189       -1.3816  -12.6428  -49.9149 H         1 UNK         0.3000 
    190 H190       -1.4089  -21.1368  -45.3668 H         1 UNK         0.3000 
    191 H191       -4.2778  -20.9494  -46.0155 H         1 UNK         0.0600 
    192 H192       -4.5027  -20.3335  -43.6432 H         1 UNK         0.0600 
    193 H193       -3.2369  -19.3624  -44.3809 H         1 UNK         0.0600 
    194 H194       -2.8130  -20.7088  -43.3312 H         1 UNK         0.0600 
    195 H195       -1.9782  -22.9972  -44.1730 H         1 UNK         0.3000 
    196 H196       -3.7578  -24.9519  -43.2362 H         1 UNK         0.0600 
    197 H197       -0.7840  -25.2014  -43.9367 H         1 UNK         0.0600 
    198 H198       -1.4371  -24.6415  -42.3987 H         1 UNK         0.0600 
    199 H199       -1.6881  -26.3050  -42.9076 H         1 UNK         0.0600 
    200 H200       -2.1303  -24.7128  -46.3788 H         1 UNK         0.3000 
    201 H201       -3.0375  -27.2362  -47.4502 H         1 UNK         0.0600 
    202 H202       -1.9575  -24.7059  -48.7860 H         1 UNK         0.0600 
    203 H203       -2.1522  -26.2669  -49.5799 H         1 UNK         0.0600 
    204 H204       -0.9999  -26.0891  -48.2663 H         1 UNK         0.0600 
    205 H205       -5.2398  -26.3212  -46.3205 H         1 UNK         0.3000 
    206 H206       -7.4176  -25.9363  -46.4788 H         1 UNK         0.0600 
    207 H207       -7.1933  -27.9337  -47.9837 H         1 UNK         0.0600 
    208 H208       -8.5668  -26.9370  -48.4277 H         1 UNK         0.0600 
    209 H209       -7.0911  -26.8653  -49.3827 H         1 UNK         0.0600 
    210 H210       -5.6784  -23.6310  -47.2265 H         1 UNK         0.3000 
    211 H211       -5.6025  -21.6028  -48.0720 H         1 UNK         0.0600 
    212 H212       -7.6280  -20.2126  -48.0958 H         1 UNK         0.0600 
    213 H213       -7.6589  -21.2626  -46.6896 H         1 UNK         0.0600 
    214 H214       -8.6624  -21.6343  -48.0918 H         1 UNK         0.0600 
    215 H215       -5.7905  -23.9719  -50.0010 H         1 UNK         0.3000 
    216 H216       -6.8720  -22.8203  -52.4687 H         1 UNK         0.0600 
    217 H217       -5.2137  -25.3527  -51.9683 H         1 UNK         0.0600 
    218 H218       -6.0201  -24.9245  -53.4723 H         1 UNK         0.0600 
    219 H219       -6.9724  -25.2721  -52.0362 H         1 UNK         0.0600 
    220 H220       -3.6765  -23.4716  -51.0082 H         1 UNK         0.3000 
    221 H221       -2.1367  -22.3416  -53.1626 H         1 UNK         0.0600 
    222 H222       -1.1669  -24.0290  -51.6881 H         1 UNK         0.0600 
    223 H223       -1.4374  -23.0127  -50.2795 H         1 UNK         0.0600 
    224 H224       -0.2593  -22.5361  -51.5015 H         1 UNK         0.0600 
    225 H225       -3.8293  -20.9357  -50.4480 H         1 UNK         0.3000 
    226 H226       -2.5436  -18.4025  -50.2993 H         1 UNK         0.0600 
    227 H227       -5.4945  -19.0257  -49.7799 H         1 UNK         0.0600 
    228 H228       -4.2003  -19.3247  -48.6193 H         1 UNK         0.0600 
    229 H229       -4.5554  -17.6873  -49.1450 H         1 UNK         0.0600 
    230 H230       -4.9888  -19.7195  -52.5414 H         1 UNK         0.3000 
    231 H231       -5.4761  -17.1610  -53.8721 H         1 UNK         0.0600 
    232 H232       -6.2454  -20.0160  -54.6755 H         1 UNK         0.0600 
    233 H233       -6.8450  -18.5334  -55.4042 H         1 UNK         0.0600 
    234 H234       -7.2470  -18.9108  -53.7358 H         1 UNK         0.0600 
    235 H235       -3.3860  -19.9981  -54.3198 H         1 UNK         0.3000 
    236 H236       -2.5436  -19.3615  -56.9940 H         1 UNK         0.0600 
    237 H237       -2.5277  -21.6801  -56.0016 H         1 UNK         0.0600 
    238 H238       -0.9749  -21.2159  -56.6819 H         1 UNK         0.0600 
    239 H239       -1.2020  -21.1942  -54.9417 H         1 UNK         0.0600 
    240 H240       -1.1457  -18.7489  -53.7578 H         1 UNK         0.3000 
    241 H241        0.5232  -16.6144  -54.8184 H         1 UNK         0.0600 
    242 H242       -0.6940  -16.9439  -50.9316 H         1 UNK         0.3800 
    243 H243       -0.6754  -18.4111  -51.8984 H         1 UNK         0.3800 
    244 H244        1.8937  -18.8160  -55.0077 H         1 UNK         0.0800 
    245 H245        1.9315  -18.8394  -53.2708 H         1 UNK         0.0800 
    246 H246        4.5814  -18.8860  -53.3903 H         1 UNK         0.0800 
    247 H247        5.4408  -17.3756  -53.2515 H         1 UNK         0.0800 
@<TRIPOS>BOND
     1    1    2 1    
     2    1  127 1    
     3    1  128 1    
     4    1  129 1    
     5    2    3 2    
     6    2    4 am   BACKBONE|DICT|INTERRES
     7    4    5 1    
     8    4  130 1    
     9    5    6 1    
    10    5   65 1    
    11    5  131 1    
    12    6    7 1    
    13    6  132 1    
    14    6  133 1    
    15    7    8 1    
    16    8    9 1    
    17    8  134 1    
    18    8  135 1    
    19    9   10 ar   
    20    9   14 ar   
    21   10   11 ar   
    22   10  136 1    
    23   11   12 ar   
    24   11  126 1    
    25   12   13 ar   
    26   12  137 1    
    27   13   14 ar   
    28   13   15 1    
    29   14  138 1    
    30   15   16 1    
    31   15  139 1    
    32   15  140 1    
    33   16   17 1    
    34   17   18 1    
    35   17  141 1    
    36   17  142 1    
    37   18   19 1    
    38   18   67 1    
    39   18  143 1    
    40   19   20 am   BACKBONE|DICT|INTERRES
    41   19  144 1    
    42   20   21 2    
    43   20   22 1    
    44   22   23 1    
    45   22   24 1    
    46   22  145 1    
    47   23  146 1    
    48   23  147 1    
    49   23  148 1    
    50   24   25 am   BACKBONE|DICT|INTERRES
    51   24  149 1    
    52   25   26 2    
    53   25   27 1    
    54   27   28 1    
    55   27   29 1    
    56   27  150 1    
    57   28  151 1    
    58   28  152 1    
    59   28  153 1    
    60   29   30 am   BACKBONE|DICT|INTERRES
    61   29  154 1    
    62   30   31 2    
    63   30   32 1    
    64   32   33 1    
    65   32   34 1    
    66   32  155 1    
    67   33  156 1    
    68   33  157 1    
    69   33  158 1    
    70   34   35 am   BACKBONE|DICT|INTERRES
    71   34  159 1    
    72   35   36 2    
    73   35   37 1    
    74   37   38 1    
    75   37   39 1    
    76   37  160 1    
    77   38  161 1    
    78   38  162 1    
    79   38  163 1    
    80   39   40 am   BACKBONE|DICT|INTERRES
    81   39  164 1    
    82   40   41 2    
    83   40   42 1    
    84   42   43 1    
    85   42   44 1    
    86   42  165 1    
    87   43  166 1    
    88   43  167 1    
    89   43  168 1    
    90   44   45 am   BACKBONE|DICT|INTERRES
    91   44  169 1    
    92   45   46 2    
    93   45   47 1    
    94   47   48 1    
    95   47   49 1    
    96   47  170 1    
    97   48  171 1    
    98   48  172 1    
    99   48  173 1    
   100   49   50 am   BACKBONE|DICT|INTERRES
   101   49  174 1    
   102   50   51 2    
   103   50   52 1    
   104   52   53 1    
   105   52   54 1    
   106   52  175 1    
   107   53  176 1    
   108   53  177 1    
   109   53  178 1    
   110   54   55 am   BACKBONE|DICT|INTERRES
   111   54  179 1    
   112   55   56 2    
   113   55   57 1    
   114   57   58 1    
   115   57   59 1    
   116   57  180 1    
   117   58  181 1    
   118   58  182 1    
   119   58  183 1    
   120   59   60 am   BACKBONE|DICT|INTERRES
   121   59  184 1    
   122   60   61 2    
   123   60   62 1    
   124   62   63 1    
   125   62   64 1    
   126   62  185 1    
   127   63  186 1    
   128   63  187 1    
   129   63  188 1    
   130   64   65 am   BACKBONE|DICT|INTERRES
   131   64  189 1    
   132   65   66 2    
   133   67   68 2    
   134   67   69 am   BACKBONE|DICT|INTERRES
   135   69   70 1    
   136   69  190 1    
   137   70   71 1    
   138   70   72 1    
   139   70  191 1    
   140   71  192 1    
   141   71  193 1    
   142   71  194 1    
   143   72   73 2    
   144   72   74 am   BACKBONE|DICT|INTERRES
   145   74   75 1    
   146   74  195 1    
   147   75   76 1    
   148   75   77 1    
   149   75  196 1    
   150   76  197 1    
   151   76  198 1    
   152   76  199 1    
   153   77   78 2    
   154   77   79 am   BACKBONE|DICT|INTERRES
   155   79   80 1    
   156   79  200 1    
   157   80   81 1    
   158   80   82 1    
   159   80  201 1    
   160   81  202 1    
   161   81  203 1    
   162   81  204 1    
   163   82   83 2    
   164   82   84 am   BACKBONE|DICT|INTERRES
   165   84   85 1    
   166   84  205 1    
   167   85   86 1    
   168   85   87 1    
   169   85  206 1    
   170   86  207 1    
   171   86  208 1    
   172   86  209 1    
   173   87   88 2    
   174   87   89 am   BACKBONE|DICT|INTERRES
   175   89   90 1    
   176   89  210 1    
   177   90   91 1    
   178   90   92 1    
   179   90  211 1    
   180   91  212 1    
   181   91  213 1    
   182   91  214 1    
   183   92   93 2    
   184   92   94 am   BACKBONE|DICT|INTERRES
   185   94   95 1    
   186   94  215 1    
   187   95   96 1    
   188   95   97 1    
   189   95  216 1    
   190   96  217 1    
   191   96  218 1    
   192   96  219 1    
   193   97   98 2    
   194   97   99 am   BACKBONE|DICT|INTERRES
   195   99  100 1    
   196   99  220 1    
   197  100  101 1    
   198  100  102 1    
   199  100  221 1    
   200  101  222 1    
   201  101  223 1    
   202  101  224 1    
   203  102  103 2    
   204  102  104 am   BACKBONE|DICT|INTERRES
   205  104  105 1    
   206  104  225 1    
   207  105  106 1    
   208  105  107 1    
   209  105  226 1    
   210  106  227 1    
   211  106  228 1    
   212  106  229 1    
   213  107  108 2    
   214  107  109 am   BACKBONE|DICT|INTERRES
   215  109  110 1    
   216  109  230 1    
   217  110  111 1    
   218  110  112 1    
   219  110  231 1    
   220  111  232 1    
   221  111  233 1    
   222  111  234 1    
   223  112  113 2    
   224  112  114 am   BACKBONE|DICT|INTERRES
   225  114  115 1    
   226  114  235 1    
   227  115  116 1    
   228  115  117 1    
   229  115  236 1    
   230  116  237 1    
   231  116  238 1    
   232  116  239 1    
   233  117  118 2    
   234  117  119 am   BACKBONE|DICT|INTERRES
   235  119  120 1    
   236  119  240 1    
   237  120  121 1    
   238  120  124 1    
   239  120  241 1    
   240  121  122 am   BACKBONE|DICT|INTERRES
   241  121  123 2    
   242  122  242 1    
   243  122  243 1    
   244  124  125 1    
   245  124  244 1    
   246  124  245 1    
   247  125  126 1    
   248  126  246 1    
   249  126  247 1    
@<TRIPOS>SUBSTRUCTURE
     1 UNK         1 GROUP             0       ****    0 ROOT    
