@<TRIPOS>MOLECULE
3R540
247   249    1
SMALL
USER_CHARGES


@<TRIPOS>ATOM
      1 CA          2.0412   -8.4270  -50.2435 C.3       0 UNK        -0.1800 
      2 C           2.1425   -9.9204  -49.9658 C.2       0 UNK         0.5000 
      3 O           1.9965  -10.7254  -50.8859 O.2       0 UNK        -0.5000 
      4 N           2.3833  -10.2907  -48.7025 N.am      1 UNK        -0.5000 
      5 CA          2.5531  -11.6731  -48.2477 C.3       1 UNK         0.1400 
      6 C6          2.5643  -11.7738  -46.7034 C.3       23 UNK        -0.0398 
      7 S7          0.9433  -11.3837  -45.9707 S.3       23 UNK        -0.2404 
      8 C8          0.3253  -13.0528  -45.5828 C.3       23 UNK        -0.0205 
      9 C9          0.1498  -13.9085  -46.8295 C.ar      23 UNK        -0.0193 
     10 C10        -0.8184  -13.5669  -47.7759 C.ar      23 UNK        -0.1150 
     11 C11        -0.9924  -14.3361  -48.9286 C.ar      23 UNK        -0.0193 
     12 C12        -0.1869  -15.4613  -49.1311 C.ar      23 UNK        -0.1150 
     13 C13         0.7913  -15.8121  -48.1953 C.ar      23 UNK        -0.0193 
     14 C14         0.9526  -15.0333  -47.0445 C.ar      23 UNK        -0.1150 
     15 C15         1.7047  -17.0039  -48.4461 C.3       23 UNK        -0.0205 
     16 S16         1.3565  -18.3993  -47.3356 S.3       23 UNK        -0.2404 
     17 C17        -0.1138  -19.1381  -48.1201 C.3       23 UNK        -0.0398 
     18 CA         -0.3541  -20.5901  -47.6424 C.3       11 UNK         0.1400 
     19 N          -0.5691  -20.6744  -46.1959 N.am      11 UNK        -0.5000 
     20 C          -0.6331  -21.8179  -45.5008 C.2       10 UNK         0.5000 
     21 O          -0.4662  -22.9320  -45.9955 O.2       10 UNK        -0.5000 
     22 CA         -0.9969  -21.6982  -44.0138 C.3       10 UNK         0.1400 
     23 CB          0.2539  -21.4155  -43.1752 C.3       10 UNK        -0.1800 
     24 N          -1.9960  -20.6532  -43.7895 N.am      10 UNK        -0.5000 
     25 C          -3.2853  -20.7711  -44.1365 C.2       9 UNK         0.5000 
     26 O          -3.7634  -21.7846  -44.6453 O.2       9 UNK        -0.5000 
     27 CA         -4.1818  -19.5393  -43.9194 C.3       9 UNK         0.1400 
     28 CB         -4.6501  -19.4588  -42.4589 C.3       9 UNK        -0.1800 
     29 N          -3.5239  -18.2863  -44.2878 N.am      9 UNK        -0.5000 
     30 C          -3.1590  -17.9562  -45.5341 C.2       8 UNK         0.5000 
     31 O          -3.3553  -18.6682  -46.5186 O.2       8 UNK        -0.5000 
     32 CA         -2.4310  -16.6124  -45.7095 C.3       8 UNK         0.1400 
     33 CB         -3.4577  -15.4904  -45.9188 C.3       8 UNK        -0.1800 
     34 N          -1.5403  -16.2402  -44.6055 N.am      8 UNK        -0.5000 
     35 C          -0.5389  -16.9807  -44.1093 C.2       7 UNK         0.5000 
     36 O          -0.3284  -18.1526  -44.4309 O.2       7 UNK        -0.5000 
     37 CA          0.3638  -16.2581  -43.0908 C.3       7 UNK         0.1400 
     38 CB         -0.3718  -15.9698  -41.7660 C.3       7 UNK        -0.1800 
     39 N           1.6457  -16.9330  -42.8771 N.am      7 UNK        -0.5000 
     40 C           1.8970  -18.0566  -42.1896 C.2       6 UNK         0.5000 
     41 O           1.0672  -18.6750  -41.5228 O.2       6 UNK        -0.5000 
     42 CA          3.3528  -18.5507  -42.2302 C.3       6 UNK         0.1400 
     43 CB          3.6557  -19.2670  -43.5570 C.3       6 UNK        -0.1800 
     44 N           4.2857  -17.4376  -42.0541 N.am      6 UNK        -0.5000 
     45 C           4.6475  -16.9371  -40.8642 C.2       5 UNK         0.5000 
     46 O           4.2883  -17.4110  -39.7856 O.2       5 UNK        -0.5000 
     47 CA          5.5701  -15.7018  -40.8721 C.3       5 UNK         0.1400 
     48 CB          7.0424  -16.1314  -40.7807 C.3       5 UNK        -0.1800 
     49 N           5.3935  -14.8594  -42.0558 N.am      5 UNK        -0.5000 
     50 C           4.3284  -14.0783  -42.2842 C.2       4 UNK         0.5000 
     51 O           3.3981  -13.9379  -41.4907 O.2       4 UNK        -0.5000 
     52 CA          4.2841  -13.3485  -43.6423 C.3       4 UNK         0.1400 
     53 CB          4.8966  -11.9457  -43.5139 C.3       4 UNK        -0.1800 
     54 N           4.9540  -14.0666  -44.7346 N.am      4 UNK        -0.5000 
     55 C           4.6239  -15.2914  -45.1644 C.2       3 UNK         0.5000 
     56 O           3.7032  -15.9534  -44.6830 O.2       3 UNK        -0.5000 
     57 CA          5.4310  -15.8330  -46.3503 C.3       3 UNK         0.1400 
     58 CB          5.3400  -17.3653  -46.4854 C.3       3 UNK        -0.1800 
     59 N           4.9303  -15.1877  -47.5572 N.am      3 UNK        -0.5000 
     60 C           5.6183  -14.9987  -48.6902 C.2       2 UNK         0.5000 
     61 O           6.7864  -15.3544  -48.8483 O.2       2 UNK        -0.5000 
     62 CA          4.8780  -14.2901  -49.8437 C.3       2 UNK         0.1400 
     63 CB          4.3866  -15.3114  -50.8812 C.3       2 UNK        -0.1800 
     64 N           3.7372  -13.4953  -49.3793 N.am      2 UNK        -0.5000 
     65 C           3.8480  -12.2878  -48.8112 C.2       1 UNK         0.5000 
     66 O           4.9161  -11.6866  -48.6764 O.2       1 UNK        -0.5000 
     67 C          -1.5048  -21.2596  -48.4247 C.2       11 UNK         0.5000 
     68 O          -1.2436  -21.9861  -49.3828 O.2       11 UNK        -0.5000 
     69 N          -2.7534  -21.0380  -47.9850 N.am      12 UNK        -0.5000 
     70 CA         -3.9455  -21.7003  -48.5147 C.3       12 UNK         0.1400 
     71 CB         -5.2091  -21.0069  -47.9861 C.3       12 UNK        -0.1800 
     72 C          -3.9703  -23.2065  -48.2030 C.2       12 UNK         0.5000 
     73 O          -4.2970  -23.9940  -49.0880 O.2       12 UNK        -0.5000 
     74 N          -3.5861  -23.5963  -46.9784 N.am      13 UNK        -0.5000 
     75 CA         -3.4770  -24.9977  -46.5595 C.3       13 UNK         0.1400 
     76 CB         -3.1867  -25.0771  -45.0540 C.3       13 UNK        -0.1800 
     77 C          -2.4249  -25.7851  -47.3640 C.2       13 UNK         0.5000 
     78 O          -2.6874  -26.9232  -47.7535 O.2       13 UNK        -0.5000 
     79 N          -1.2821  -25.1482  -47.6576 N.am      14 UNK        -0.5000 
     80 CA         -0.2312  -25.6722  -48.5364 C.3       14 UNK         0.1400 
     81 CB          1.0000  -24.7579  -48.4519 C.3       14 UNK        -0.1800 
     82 C          -0.6882  -25.8357  -50.0017 C.2       14 UNK         0.5000 
     83 O          -0.1814  -26.7101  -50.7045 O.2       14 UNK        -0.5000 
     84 N          -1.6654  -25.0211  -50.4175 N.am      15 UNK        -0.5000 
     85 CA         -2.3483  -25.0729  -51.7108 C.3       15 UNK         0.1400 
     86 CB         -2.6968  -23.6331  -52.1134 C.3       15 UNK        -0.1800 
     87 C          -3.6062  -25.9728  -51.6816 C.2       15 UNK         0.5000 
     88 O          -4.4320  -25.8979  -52.5975 O.2       15 UNK        -0.5000 
     89 N          -3.7488  -26.7813  -50.6174 N.am      16 UNK        -0.5000 
     90 CA         -4.8161  -27.7493  -50.3364 C.3       16 UNK         0.1400 
     91 CB         -4.7902  -28.8872  -51.3781 C.3       16 UNK        -0.1800 
     92 C          -6.2195  -27.1235  -50.1929 C.2       16 UNK         0.5000 
     93 O          -7.2162  -27.8365  -50.3200 O.2       16 UNK        -0.5000 
     94 N          -6.2755  -25.8014  -49.9672 N.am      17 UNK        -0.5000 
     95 CA         -7.4560  -24.9319  -50.0038 C.3       17 UNK         0.1400 
     96 CB         -8.4054  -25.2512  -48.8311 C.3       17 UNK        -0.1800 
     97 C          -8.1731  -24.9328  -51.3752 C.2       17 UNK         0.5000 
     98 O          -9.3564  -24.5947  -51.4435 O.2       17 UNK        -0.5000 
     99 N          -7.4561  -25.3341  -52.4346 N.am      18 UNK        -0.5000 
    100 CA        -7.9907  -25.5747  -53.7709 C.3       18 UNK         0.1400 
    101 CB        -7.7771  -27.0529  -54.1373 C.3       18 UNK        -0.1800 
    102 C         -7.3224  -24.6546  -54.7975 C.2       18 UNK         0.5000 
    103 O         -8.0257  -23.9715  -55.5430 O.2       18 UNK        -0.5000 
    104 N         -5.9819  -24.6375  -54.8165 N.am      19 UNK        -0.5000 
    105 CA        -5.1982  -23.8019  -55.7307 C.3       19 UNK         0.1400 
    106 CB        -3.8299  -24.4593  -55.9735 C.3       19 UNK        -0.1800 
    107 C         -5.0579  -22.3471  -55.2390 C.2       19 UNK         0.5000 
    108 O         -4.7517  -21.4644  -56.0413 O.2       19 UNK        -0.5000 
    109 N         -5.2998  -22.1199  -53.9435 N.am      20 UNK        -0.5000 
    110 CA        -5.3035  -20.8279  -53.2680 C.3       20 UNK         0.1400 
    111 CB        -3.8549  -20.4120  -52.9523 C.3       20 UNK        -0.1800 
    112 C         -6.1458  -21.0141  -51.9889 C.2       20 UNK         0.5000 
    113 O         -6.0724  -22.0998  -51.4126 O.2       20 UNK        -0.5000 
    114 N         -6.9464  -20.0532  -51.5004 N.am      21 UNK        -0.5000 
    115 CA        -7.2270  -18.6801  -51.9385 C.3       21 UNK         0.1400 
    116 CB        -7.9735  -18.6311  -53.2901 C.3       21 UNK        -0.1800 
    117 C         -5.9926  -17.7655  -51.8518 C.2       21 UNK         0.5000 
    118 O         -5.5360  -17.2391  -52.8666 O.2       21 UNK        -0.5000 
    119 N         -5.4797  -17.6140  -50.6230 N.am      22 UNK        -0.5000 
    120 CA        -4.2893  -16.8245  -50.2651 C.3       22 UNK         0.1400 
    121 C         -2.9807  -17.4826  -50.7847 C.2       22 UNK         0.5000 
    122 N         -2.6632  -18.6791  -50.3120 N.am      22 UNK        -0.7600 
    123 O         -2.2702  -16.9503  -51.6321 O.2       22 UNK        -0.5000 
    124 C124       -4.4296  -15.3147  -50.6220 C.3       23 UNK        -0.0398 
    125 S125       -3.7224  -14.2215  -49.3457 S.3       23 UNK        -0.2404 
    126 C126       -2.0337  -13.9241  -49.9583 C.3       23 UNK        -0.0205 
    127 H127        2.1810   -7.8355  -49.3383 H         1 UNK         0.0600 
    128 H128        1.0617   -8.1880  -50.6576 H         1 UNK         0.0600 
    129 H129        2.8005   -8.1275  -50.9660 H         1 UNK         0.0600 
    130 H130        2.4989   -9.5816  -47.9930 H         1 UNK         0.3000 
    131 H131        1.7078  -12.2506  -48.6279 H         1 UNK         0.0600 
    132 H132        3.3034  -11.0903  -46.2831 H         1 UNK         0.0800 
    133 H133        2.8613  -12.7716  -46.3778 H         1 UNK         0.0800 
    134 H134        1.0122  -13.5238  -44.8809 H         1 UNK         0.0800 
    135 H135       -0.6332  -12.9659  -45.0697 H         1 UNK         0.0800 
    136 H136       -1.4369  -12.6945  -47.6170 H         1 UNK         0.1150 
    137 H137       -0.3107  -16.0551  -50.0256 H         1 UNK         0.1150 
    138 H138        1.7022  -15.3095  -46.3170 H         1 UNK         0.1150 
    139 H139        1.6440  -17.3341  -49.4842 H         1 UNK         0.0800 
    140 H140        2.7373  -16.6974  -48.2892 H         1 UNK         0.0800 
    141 H141        0.0316  -19.1182  -49.2012 H         1 UNK         0.0800 
    142 H142       -0.9774  -18.5066  -47.9104 H         1 UNK         0.0800 
    143 H143        0.5486  -21.1639  -47.8639 H         1 UNK         0.0600 
    144 H144       -0.6551  -19.7952  -45.6963 H         1 UNK         0.3000 
    145 H145       -1.4142  -22.6520  -43.6856 H         1 UNK         0.0600 
    146 H146        0.0126  -21.3298  -42.1157 H         1 UNK         0.0600 
    147 H147        0.9864  -22.2164  -43.2822 H         1 UNK         0.0600 
    148 H148        0.7328  -20.4890  -43.4884 H         1 UNK         0.0600 
    149 H149       -1.6513  -19.7605  -43.4613 H         1 UNK         0.3000 
    150 H150       -5.0630  -19.6555  -44.5542 H         1 UNK         0.0600 
    151 H151       -5.1589  -20.3768  -42.1615 H         1 UNK         0.0600 
    152 H152       -5.3528  -18.6380  -42.3148 H         1 UNK         0.0600 
    153 H153       -3.8141  -19.3100  -41.7742 H         1 UNK         0.0600 
    154 H154       -3.3117  -17.6423  -43.5404 H         1 UNK         0.3000 
    155 H155       -1.8177  -16.6850  -46.6094 H         1 UNK         0.0600 
    156 H156       -2.9716  -14.5484  -46.1703 H         1 UNK         0.0600 
    157 H157       -4.0640  -15.3272  -45.0271 H         1 UNK         0.0600 
    158 H158       -4.1379  -15.7313  -46.7365 H         1 UNK         0.0600 
    159 H159       -1.6541  -15.2994  -44.2598 H         1 UNK         0.3000 
    160 H160        0.6299  -15.2986  -43.5307 H         1 UNK         0.0600 
    161 H161       -0.7882  -16.8746  -41.3227 H         1 UNK         0.0600 
    162 H162       -1.2002  -15.2779  -41.9200 H         1 UNK         0.0600 
    163 H163        0.2969  -15.5135  -41.0358 H         1 UNK         0.0600 
    164 H164        2.4106  -16.5602  -43.4331 H         1 UNK         0.3000 
    165 H165        3.4944  -19.2705  -41.4210 H         1 UNK         0.0600 
    166 H166        3.4317  -18.6397  -44.4204 H         1 UNK         0.0600 
    167 H167        4.7035  -19.5611  -43.6182 H         1 UNK         0.0600 
    168 H168        3.0607  -20.1747  -43.6535 H         1 UNK         0.0600 
    169 H169        4.5713  -16.9533  -42.8937 H         1 UNK         0.3000 
    170 H170        5.3334  -15.1063  -39.9877 H         1 UNK         0.0600 
    171 H171        7.2166  -16.7408  -39.8928 H         1 UNK         0.0600 
    172 H172        7.3452  -16.7204  -41.6474 H         1 UNK         0.0600 
    173 H173        7.7026  -15.2665  -40.7139 H         1 UNK         0.0600 
    174 H174        6.1189  -14.8997  -42.7562 H         1 UNK         0.3000 
    175 H175        3.2331  -13.2381  -43.9143 H         1 UNK         0.0600 
    176 H176        5.9520  -11.9917  -43.2424 H         1 UNK         0.0600 
    177 H177        4.8161  -11.3879  -44.4462 H         1 UNK         0.0600 
    178 H178        4.3850  -11.3654  -42.7448 H         1 UNK         0.0600 
    179 H179        5.7143  -13.5812  -45.1895 H         1 UNK         0.3000 
    180 H180        6.4769  -15.5599  -46.1950 H         1 UNK         0.0600 
    181 H181        4.3165  -17.6973  -46.6601 H         1 UNK         0.0600 
    182 H182        5.6946  -17.8575  -45.5792 H         1 UNK         0.0600 
    183 H183        5.9525  -17.7273  -47.3111 H         1 UNK         0.0600 
    184 H184        3.9845  -14.8413  -47.5064 H         1 UNK         0.3000 
    185 H185        5.5933  -13.6276  -50.3361 H         1 UNK         0.0600 
    186 H186        3.9180  -14.8147  -51.7310 H         1 UNK         0.0600 
    187 H187        5.2168  -15.9026  -51.2700 H         1 UNK         0.0600 
    188 H188        3.6615  -16.0056  -50.4576 H         1 UNK         0.0600 
    189 H189        2.8223  -13.9091  -49.4898 H         1 UNK         0.3000 
    190 H190       -2.8986  -20.3815  -47.2223 H         1 UNK         0.3000 
    191 H191       -3.9349  -21.5918  -49.6010 H         1 UNK         0.0600 
    192 H192       -5.2701  -21.0546  -46.8985 H         1 UNK         0.0600 
    193 H193       -6.1071  -21.4777  -48.3886 H         1 UNK         0.0600 
    194 H194       -5.2343  -19.9568  -48.2759 H         1 UNK         0.0600 
    195 H195       -3.3865  -22.8923  -46.2753 H         1 UNK         0.3000 
    196 H196       -4.4460  -25.4683  -46.7393 H         1 UNK         0.0600 
    197 H197       -3.1575  -26.1142  -44.7178 H         1 UNK         0.0600 
    198 H198       -3.9585  -24.5697  -44.4752 H         1 UNK         0.0600 
    199 H199       -2.2272  -24.6260  -44.8038 H         1 UNK         0.0600 
    200 H200       -1.1135  -24.2357  -47.2414 H         1 UNK         0.3000 
    201 H201        0.0512  -26.6604  -48.1677 H         1 UNK         0.0600 
    202 H202        1.3729  -24.6924  -47.4296 H         1 UNK         0.0600 
    203 H203        0.7732  -23.7464  -48.7898 H         1 UNK         0.0600 
    204 H204        1.8131  -25.1375  -49.0717 H         1 UNK         0.0600 
    205 H205       -2.0155  -24.3286  -49.7678 H         1 UNK         0.3000 
    206 H206       -1.6721  -25.4828  -52.4632 H         1 UNK         0.0600 
    207 H207       -1.8204  -22.9859  -52.0737 H         1 UNK         0.0600 
    208 H208       -3.0820  -23.5860  -53.1282 H         1 UNK         0.0600 
    209 H209       -3.4560  -23.2081  -51.4582 H         1 UNK         0.0600 
    210 H210       -3.0503  -26.7117  -49.8877 H         1 UNK         0.3000 
    211 H211       -4.5816  -28.1849  -49.3645 H         1 UNK         0.0600 
    212 H212       -5.0887  -28.5372  -52.3667 H         1 UNK         0.0600 
    213 H213       -5.4700  -29.6927  -51.0982 H         1 UNK         0.0600 
    214 H214       -3.7941  -29.3218  -51.4624 H         1 UNK         0.0600 
    215 H215       -5.3985  -25.3020  -49.8320 H         1 UNK         0.3000 
    216 H216       -7.0858  -23.9181  -49.8531 H         1 UNK         0.0600 
    217 H217       -7.8718  -25.2447  -47.8806 H         1 UNK         0.0600 
    218 H218       -8.8779  -26.2270  -48.9454 H         1 UNK         0.0600 
    219 H219       -9.2016  -24.5095  -48.7593 H         1 UNK         0.0600 
    220 H220       -6.4787  -25.5623  -52.2912 H         1 UNK         0.3000 
    221 H221       -9.0636  -25.3741  -53.8002 H         1 UNK         0.0600 
    222 H222       -6.7224  -27.3301  -54.1123 H         1 UNK         0.0600 
    223 H223       -8.3071  -27.7071  -53.4446 H         1 UNK         0.0600 
    224 H224       -8.1516  -27.2664  -55.1392 H         1 UNK         0.0600 
    225 H225       -5.4598  -25.2082  -54.1582 H         1 UNK         0.3000 
    226 H226       -5.7090  -23.7572  -56.6952 H         1 UNK         0.0600 
    227 H227       -3.9442  -25.4054  -56.5027 H         1 UNK         0.0600 
    228 H228       -3.1890  -23.8230  -56.5853 H         1 UNK         0.0600 
    229 H229       -3.3004  -24.6675  -55.0457 H         1 UNK         0.0600 
    230 H230       -5.5737  -22.8910  -53.3472 H         1 UNK         0.3000 
    231 H231       -5.7482  -20.0993  -53.9379 H         1 UNK         0.0600 
    232 H232       -3.7898  -19.3383  -52.7982 H         1 UNK         0.0600 
    233 H233       -3.1740  -20.6459  -53.7705 H         1 UNK         0.0600 
    234 H234       -3.4726  -20.8973  -52.0548 H         1 UNK         0.0600 
    235 H235       -7.4486  -20.3051  -50.6620 H         1 UNK         0.3000 
    236 H236       -7.9300  -18.2937  -51.1985 H         1 UNK         0.0600 
    237 H237       -8.7409  -19.4031  -53.3492 H         1 UNK         0.0600 
    238 H238       -8.4781  -17.6707  -53.4006 H         1 UNK         0.0600 
    239 H239       -7.3257  -18.7323  -54.1579 H         1 UNK         0.0600 
    240 H240       -5.9209  -18.1037  -49.8585 H         1 UNK         0.3000 
    241 H241       -4.2356  -16.8985  -49.1776 H         1 UNK         0.0600 
    242 H242       -3.2329  -19.1356  -49.6192 H         1 UNK         0.3800 
    243 H243       -1.8508  -19.1390  -50.6876 H         1 UNK         0.3800 
    244 H244       -4.0269  -15.0779  -51.6080 H         1 UNK         0.0800 
    245 H245       -5.4856  -15.0482  -50.6798 H         1 UNK         0.0800 
    246 H246       -1.9215  -12.8611  -50.1761 H         1 UNK         0.0800 
    247 H247       -1.8640  -14.4421  -50.9023 H         1 UNK         0.0800 
@<TRIPOS>BOND
     1    1    2 1    
     2    1  127 1    
     3    1  128 1    
     4    1  129 1    
     5    2    3 2    
     6    2    4 am   BACKBONE|DICT|INTERRES
     7    4    5 1    
     8    4  130 1    
     9    5    6 1    
    10    5   65 1    
    11    5  131 1    
    12    6    7 1    
    13    6  132 1    
    14    6  133 1    
    15    7    8 1    
    16    8    9 1    
    17    8  134 1    
    18    8  135 1    
    19    9   10 ar   
    20    9   14 ar   
    21   10   11 ar   
    22   10  136 1    
    23   11   12 ar   
    24   11  126 1    
    25   12   13 ar   
    26   12  137 1    
    27   13   14 ar   
    28   13   15 1    
    29   14  138 1    
    30   15   16 1    
    31   15  139 1    
    32   15  140 1    
    33   16   17 1    
    34   17   18 1    
    35   17  141 1    
    36   17  142 1    
    37   18   19 1    
    38   18   67 1    
    39   18  143 1    
    40   19   20 am   BACKBONE|DICT|INTERRES
    41   19  144 1    
    42   20   21 2    
    43   20   22 1    
    44   22   23 1    
    45   22   24 1    
    46   22  145 1    
    47   23  146 1    
    48   23  147 1    
    49   23  148 1    
    50   24   25 am   BACKBONE|DICT|INTERRES
    51   24  149 1    
    52   25   26 2    
    53   25   27 1    
    54   27   28 1    
    55   27   29 1    
    56   27  150 1    
    57   28  151 1    
    58   28  152 1    
    59   28  153 1    
    60   29   30 am   BACKBONE|DICT|INTERRES
    61   29  154 1    
    62   30   31 2    
    63   30   32 1    
    64   32   33 1    
    65   32   34 1    
    66   32  155 1    
    67   33  156 1    
    68   33  157 1    
    69   33  158 1    
    70   34   35 am   BACKBONE|DICT|INTERRES
    71   34  159 1    
    72   35   36 2    
    73   35   37 1    
    74   37   38 1    
    75   37   39 1    
    76   37  160 1    
    77   38  161 1    
    78   38  162 1    
    79   38  163 1    
    80   39   40 am   BACKBONE|DICT|INTERRES
    81   39  164 1    
    82   40   41 2    
    83   40   42 1    
    84   42   43 1    
    85   42   44 1    
    86   42  165 1    
    87   43  166 1    
    88   43  167 1    
    89   43  168 1    
    90   44   45 am   BACKBONE|DICT|INTERRES
    91   44  169 1    
    92   45   46 2    
    93   45   47 1    
    94   47   48 1    
    95   47   49 1    
    96   47  170 1    
    97   48  171 1    
    98   48  172 1    
    99   48  173 1    
   100   49   50 am   BACKBONE|DICT|INTERRES
   101   49  174 1    
   102   50   51 2    
   103   50   52 1    
   104   52   53 1    
   105   52   54 1    
   106   52  175 1    
   107   53  176 1    
   108   53  177 1    
   109   53  178 1    
   110   54   55 am   BACKBONE|DICT|INTERRES
   111   54  179 1    
   112   55   56 2    
   113   55   57 1    
   114   57   58 1    
   115   57   59 1    
   116   57  180 1    
   117   58  181 1    
   118   58  182 1    
   119   58  183 1    
   120   59   60 am   BACKBONE|DICT|INTERRES
   121   59  184 1    
   122   60   61 2    
   123   60   62 1    
   124   62   63 1    
   125   62   64 1    
   126   62  185 1    
   127   63  186 1    
   128   63  187 1    
   129   63  188 1    
   130   64   65 am   BACKBONE|DICT|INTERRES
   131   64  189 1    
   132   65   66 2    
   133   67   68 2    
   134   67   69 am   BACKBONE|DICT|INTERRES
   135   69   70 1    
   136   69  190 1    
   137   70   71 1    
   138   70   72 1    
   139   70  191 1    
   140   71  192 1    
   141   71  193 1    
   142   71  194 1    
   143   72   73 2    
   144   72   74 am   BACKBONE|DICT|INTERRES
   145   74   75 1    
   146   74  195 1    
   147   75   76 1    
   148   75   77 1    
   149   75  196 1    
   150   76  197 1    
   151   76  198 1    
   152   76  199 1    
   153   77   78 2    
   154   77   79 am   BACKBONE|DICT|INTERRES
   155   79   80 1    
   156   79  200 1    
   157   80   81 1    
   158   80   82 1    
   159   80  201 1    
   160   81  202 1    
   161   81  203 1    
   162   81  204 1    
   163   82   83 2    
   164   82   84 am   BACKBONE|DICT|INTERRES
   165   84   85 1    
   166   84  205 1    
   167   85   86 1    
   168   85   87 1    
   169   85  206 1    
   170   86  207 1    
   171   86  208 1    
   172   86  209 1    
   173   87   88 2    
   174   87   89 am   BACKBONE|DICT|INTERRES
   175   89   90 1    
   176   89  210 1    
   177   90   91 1    
   178   90   92 1    
   179   90  211 1    
   180   91  212 1    
   181   91  213 1    
   182   91  214 1    
   183   92   93 2    
   184   92   94 am   BACKBONE|DICT|INTERRES
   185   94   95 1    
   186   94  215 1    
   187   95   96 1    
   188   95   97 1    
   189   95  216 1    
   190   96  217 1    
   191   96  218 1    
   192   96  219 1    
   193   97   98 2    
   194   97   99 am   BACKBONE|DICT|INTERRES
   195   99  100 1    
   196   99  220 1    
   197  100  101 1    
   198  100  102 1    
   199  100  221 1    
   200  101  222 1    
   201  101  223 1    
   202  101  224 1    
   203  102  103 2    
   204  102  104 am   BACKBONE|DICT|INTERRES
   205  104  105 1    
   206  104  225 1    
   207  105  106 1    
   208  105  107 1    
   209  105  226 1    
   210  106  227 1    
   211  106  228 1    
   212  106  229 1    
   213  107  108 2    
   214  107  109 am   BACKBONE|DICT|INTERRES
   215  109  110 1    
   216  109  230 1    
   217  110  111 1    
   218  110  112 1    
   219  110  231 1    
   220  111  232 1    
   221  111  233 1    
   222  111  234 1    
   223  112  113 2    
   224  112  114 am   BACKBONE|DICT|INTERRES
   225  114  115 1    
   226  114  235 1    
   227  115  116 1    
   228  115  117 1    
   229  115  236 1    
   230  116  237 1    
   231  116  238 1    
   232  116  239 1    
   233  117  118 2    
   234  117  119 am   BACKBONE|DICT|INTERRES
   235  119  120 1    
   236  119  240 1    
   237  120  121 1    
   238  120  124 1    
   239  120  241 1    
   240  121  122 am   BACKBONE|DICT|INTERRES
   241  121  123 2    
   242  122  242 1    
   243  122  243 1    
   244  124  125 1    
   245  124  244 1    
   246  124  245 1    
   247  125  126 1    
   248  126  246 1    
   249  126  247 1    
@<TRIPOS>SUBSTRUCTURE
     1 UNK         1 GROUP             0       ****    0 ROOT    
