@<TRIPOS>MOLECULE
3R540
247   249    1
SMALL
USER_CHARGES


@<TRIPOS>ATOM
      1 CA         -4.1375  -15.5931  -43.3520 C.3       0 UNK        -0.1800 
      2 C          -4.5985  -14.4492  -44.2436 C.2       0 UNK         0.5000 
      3 O          -5.2868  -13.5414  -43.7780 O.2       0 UNK        -0.5000 
      4 N          -4.2074  -14.4859  -45.5237 N.am      1 UNK        -0.5000 
      5 CA         -4.5051  -13.4522  -46.5282 C.3       1 UNK         0.1400 
      6 C6         -4.4028  -14.0163  -47.9685 C.3       23 UNK        -0.0398 
      7 S7         -5.7562  -15.1803  -48.3628 S.3       23 UNK        -0.2404 
      8 C8         -5.0166  -16.8183  -48.0644 C.3       23 UNK        -0.0205 
      9 C9         -3.9590  -17.1834  -49.0963 C.ar      23 UNK        -0.0193 
     10 C10        -4.3310  -17.6651  -50.3552 C.ar      23 UNK        -0.1150 
     11 C11        -3.3567  -18.0018  -51.3001 C.ar      23 UNK        -0.0193 
     12 C12        -2.0041  -17.8509  -50.9779 C.ar      23 UNK        -0.1150 
     13 C13        -1.6180  -17.3888  -49.7167 C.ar      23 UNK        -0.0193 
     14 C14        -2.6035  -17.0568  -48.7836 C.ar      23 UNK        -0.1150 
     15 C15        -0.1403  -17.2277  -49.3760 C.3       23 UNK        -0.0205 
     16 S16         0.4565  -18.4453  -48.1533 S.3       23 UNK        -0.2404 
     17 C17         0.2099  -20.0211  -49.0491 C.3       23 UNK        -0.0398 
     18 CA         -0.5999  -21.0926  -48.2792 C.3       11 UNK         0.1400 
     19 N           0.1511  -21.6703  -47.1600 N.am      11 UNK        -0.5000 
     20 C          -0.1415  -22.8576  -46.6117 C.2       10 UNK         0.5000 
     21 O          -1.0875  -23.5591  -46.9697 O.2       10 UNK        -0.5000 
     22 CA          0.7436  -23.3231  -45.4430 C.3       10 UNK         0.1400 
     23 CB          2.0931  -23.8461  -45.9572 C.3       10 UNK        -0.1800 
     24 N           0.9775  -22.2958  -44.4269 N.am      10 UNK        -0.5000 
     25 C           0.0315  -21.6532  -43.7317 C.2       9 UNK         0.5000 
     26 O          -1.1726  -21.7821  -43.9475 O.2       9 UNK        -0.5000 
     27 CA          0.4885  -20.7033  -42.6106 C.3       9 UNK         0.1400 
     28 CB          0.6941  -21.4633  -41.2878 C.3       9 UNK        -0.1800 
     29 N           1.6517  -19.8735  -42.9362 N.am      9 UNK        -0.5000 
     30 C           2.9313  -20.2149  -43.1374 C.2       8 UNK         0.5000 
     31 O           3.3460  -21.3745  -43.1437 O.2       8 UNK        -0.5000 
     32 CA          3.9123  -19.0517  -43.3764 C.3       8 UNK         0.1400 
     33 CB          3.9114  -18.6474  -44.8588 C.3       8 UNK        -0.1800 
     34 N           3.6094  -17.8800  -42.5493 N.am      8 UNK        -0.5000 
     35 C           3.7349  -17.8384  -41.2140 C.2       7 UNK         0.5000 
     36 O           4.1957  -18.7618  -40.5416 O.2       7 UNK        -0.5000 
     37 CA          3.2470  -16.5605  -40.5050 C.3       7 UNK         0.1400 
     38 CB          4.3079  -15.4517  -40.5764 C.3       7 UNK        -0.1800 
     39 N           1.9801  -16.0658  -41.0450 N.am      7 UNK        -0.5000 
     40 C           0.8005  -16.6909  -40.9125 C.2       6 UNK         0.5000 
     41 O           0.6395  -17.7222  -40.2599 O.2       6 UNK        -0.5000 
     42 CA         -0.3967  -16.0785  -41.6638 C.3       6 UNK         0.1400 
     43 CB         -1.0389  -14.9502  -40.8428 C.3       6 UNK        -0.1800 
     44 N          -0.0241  -15.5677  -42.9820 N.am      6 UNK        -0.5000 
     45 C           0.4100  -16.3249  -43.9982 C.2       5 UNK         0.5000 
     46 O           0.4702  -17.5515  -43.9588 O.2       5 UNK        -0.5000 
     47 CA          0.8945  -15.5859  -45.2548 C.3       5 UNK         0.1400 
     48 CB         -0.2917  -15.2367  -46.1574 C.3       5 UNK        -0.1800 
     49 N           1.6441  -14.3741  -44.9293 N.am      5 UNK        -0.5000 
     50 C           2.8629  -14.3704  -44.3723 C.2       4 UNK         0.5000 
     51 O           3.4921  -15.3924  -44.1014 O.2       4 UNK        -0.5000 
     52 CA          3.4583  -12.9942  -44.0241 C.3       4 UNK         0.1400 
     53 CB          4.1679  -12.3879  -45.2437 C.3       4 UNK        -0.1800 
     54 N           2.4467  -12.0559  -43.5351 N.am      4 UNK        -0.5000 
     55 C           1.8012  -12.1822  -42.3669 C.2       3 UNK         0.5000 
     56 O           2.0221  -13.0838  -41.5583 O.2       3 UNK        -0.5000 
     57 CA          0.6803  -11.1613  -42.0889 C.3       3 UNK         0.1400 
     58 CB          1.2596   -9.8638  -41.5059 C.3       3 UNK        -0.1800 
     59 N          -0.1210  -10.8501  -43.2790 N.am      3 UNK        -0.5000 
     60 C          -0.8539  -11.7523  -43.9433 C.2       2 UNK         0.5000 
     61 O          -0.9266  -12.9402  -43.6155 O.2       2 UNK        -0.5000 
     62 CA         -1.5890  -11.2724  -45.2032 C.3       2 UNK         0.1400 
     63 CB         -0.6016  -11.0486  -46.3638 C.3       2 UNK        -0.1800 
     64 N          -2.5508  -12.3064  -45.5606 N.am      2 UNK        -0.5000 
     65 C          -3.6151  -12.1956  -46.3614 C.2       1 UNK         0.5000 
     66 O          -3.9131  -11.1573  -46.9532 O.2       1 UNK        -0.5000 
     67 C          -2.0052  -20.6089  -47.8643 C.2       11 UNK         0.5000 
     68 O          -2.9111  -20.6261  -48.6921 O.2       11 UNK        -0.5000 
     69 N          -2.1685  -20.2178  -46.5920 N.am      12 UNK        -0.5000 
     70 CA         -3.4515  -19.8254  -46.0158 C.3       12 UNK         0.1400 
     71 CB         -3.2081  -18.9641  -44.7675 C.3       12 UNK        -0.1800 
     72 C          -4.3319  -21.0470  -45.6974 C.2       12 UNK         0.5000 
     73 O          -5.5448  -20.9888  -45.8973 O.2       12 UNK        -0.5000 
     74 N          -3.7097  -22.1386  -45.2310 N.am      13 UNK        -0.5000 
     75 CA         -4.3604  -23.4228  -44.9739 C.3       13 UNK         0.1400 
     76 CB         -3.4041  -24.3313  -44.1858 C.3       13 UNK        -0.1800 
     77 C          -4.8282  -24.1094  -46.2702 C.2       13 UNK         0.5000 
     78 O          -5.9551  -24.6018  -46.3258 O.2       13 UNK        -0.5000 
     79 N          -3.9679  -24.0979  -47.2957 N.am      14 UNK        -0.5000 
     80 CA         -4.2242  -24.6517  -48.6257 C.3       14 UNK         0.1400 
     81 CB         -2.9884  -25.4553  -49.0693 C.3       14 UNK        -0.1800 
     82 C          -4.6169  -23.5528  -49.6355 C.2       14 UNK         0.5000 
     83 O          -4.2573  -23.6415  -50.8113 O.2       14 UNK        -0.5000 
     84 N          -5.3538  -22.5334  -49.1713 N.am      15 UNK        -0.5000 
     85 CA         -5.8192  -21.4037  -49.9767 C.3       15 UNK         0.1400 
     86 CB         -6.5580  -20.3986  -49.0822 C.3       15 UNK        -0.1800 
     87 C          -6.7096  -21.8621  -51.1439 C.2       15 UNK         0.5000 
     88 O          -7.7234  -22.5252  -50.9148 O.2       15 UNK        -0.5000 
     89 N          -6.2808  -21.5217  -52.3660 N.am      16 UNK        -0.5000 
     90 CA         -6.8627  -21.9031  -53.6572 C.3       16 UNK         0.1400 
     91 CB         -8.3120  -21.3922  -53.7966 C.3       16 UNK        -0.1800 
     92 C          -6.7245  -23.4045  -53.9993 C.2       16 UNK         0.5000 
     93 O          -7.3369  -23.8561  -54.9676 O.2       16 UNK        -0.5000 
     94 N          -5.8897  -24.1427  -53.2537 N.am      17 UNK        -0.5000 
     95 CA         -5.5349  -25.5416  -53.5036 C.3       17 UNK         0.1400 
     96 CB         -5.8056  -26.3718  -52.2357 C.3       17 UNK        -0.1800 
     97 C          -4.0710  -25.6259  -53.9781 C.2       17 UNK         0.5000 
     98 O          -3.3150  -26.4898  -53.5287 O.2       17 UNK        -0.5000 
     99 N          -3.7040  -24.7033  -54.8801 N.am      18 UNK        -0.5000 
    100 CA        -2.3880  -24.4658  -55.4791 C.3       18 UNK         0.1400 
    101 CB        -1.8884  -25.6840  -56.2807 C.3       18 UNK        -0.1800 
    102 C         -1.3426  -23.9713  -54.4653 C.2       18 UNK         0.5000 
    103 O         -0.8943  -22.8305  -54.5741 O.2       18 UNK        -0.5000 
    104 N         -0.9475  -24.8341  -53.5194 N.am      19 UNK        -0.5000 
    105 CA        -0.0148  -24.5902  -52.4057 C.3       19 UNK         0.1400 
    106 CB        -0.6462  -23.5910  -51.4170 C.3       19 UNK        -0.1800 
    107 C          1.4061  -24.1270  -52.8081 C.2       19 UNK         0.5000 
    108 O          2.1735  -23.7177  -51.9359 O.2       19 UNK        -0.5000 
    109 N          1.7158  -24.1584  -54.1138 N.am      20 UNK        -0.5000 
    110 CA         2.8530  -23.5098  -54.7766 C.3       20 UNK         0.1400 
    111 CB         4.1825  -24.1828  -54.3756 C.3       20 UNK        -0.1800 
    112 C          2.8658  -21.9734  -54.5818 C.2       20 UNK         0.5000 
    113 O          3.9411  -21.3714  -54.5499 O.2       20 UNK        -0.5000 
    114 N          1.6764  -21.3670  -54.4442 N.am      21 UNK        -0.5000 
    115 CA         1.5007  -19.9475  -54.1280 C.3       21 UNK         0.1400 
    116 CB         1.4148  -19.7747  -52.6016 C.3       21 UNK        -0.1800 
    117 C          0.2657  -19.3311  -54.8047 C.2       21 UNK         0.5000 
    118 O          0.3111  -18.1579  -55.1767 O.2       21 UNK        -0.5000 
    119 N         -0.8119  -20.1112  -54.9476 N.am      22 UNK        -0.5000 
    120 CA        -2.1051  -19.6747  -55.4994 C.3       22 UNK         0.1400 
    121 C         -2.2283  -19.8572  -57.0398 C.2       22 UNK         0.5000 
    122 N         -1.2490  -20.4366  -57.7236 N.am      22 UNK        -0.7600 
    123 O         -3.2289  -19.4573  -57.6286 O.2       22 UNK        -0.5000 
    124 C124       -3.3057  -20.3374  -54.7663 C.3       23 UNK        -0.0398 
    125 S125       -3.2177  -20.2222  -52.9456 S.3       23 UNK        -0.2404 
    126 C126       -3.7520  -18.5020  -52.6808 C.3       23 UNK        -0.0205 
    127 H127       -4.0135  -15.2484  -42.3257 H         1 UNK         0.0600 
    128 H128       -4.8772  -16.3933  -43.3546 H         1 UNK         0.0600 
    129 H129       -3.1823  -15.9986  -43.6864 H         1 UNK         0.0600 
    130 H130       -3.6519  -15.2626  -45.8466 H         1 UNK         0.3000 
    131 H131       -5.5326  -13.1147  -46.3748 H         1 UNK         0.0600 
    132 H132       -3.4319  -14.4807  -48.1400 H         1 UNK         0.0800 
    133 H133       -4.4758  -13.2091  -48.6997 H         1 UNK         0.0800 
    134 H134       -5.8128  -17.5627  -48.0893 H         1 UNK         0.0800 
    135 H135       -4.6053  -16.8561  -47.0557 H         1 UNK         0.0800 
    136 H136       -5.3788  -17.7689  -50.5985 H         1 UNK         0.1150 
    137 H137       -1.2533  -18.1053  -51.7128 H         1 UNK         0.1150 
    138 H138       -2.3201  -16.7028  -47.8077 H         1 UNK         0.1150 
    139 H139        0.4719  -17.3036  -50.2758 H         1 UNK         0.0800 
    140 H140        0.0264  -16.2238  -48.9859 H         1 UNK         0.0800 
    141 H141        1.1906  -20.4191  -49.3128 H         1 UNK         0.0800 
    142 H142       -0.2823  -19.8258  -50.0013 H         1 UNK         0.0800 
    143 H143       -0.7733  -21.9038  -48.9884 H         1 UNK         0.0600 
    144 H144        0.9243  -21.1313  -46.7979 H         1 UNK         0.3000 
    145 H145        0.2253  -24.1497  -44.9527 H         1 UNK         0.0600 
    146 H146        2.6799  -24.2822  -45.1485 H         1 UNK         0.0600 
    147 H147        1.9510  -24.6226  -46.7102 H         1 UNK         0.0600 
    148 H148        2.6876  -23.0521  -46.4107 H         1 UNK         0.0600 
    149 H149        1.9414  -22.1291  -44.1509 H         1 UNK         0.3000 
    150 H150       -0.3288  -19.9971  -42.4546 H         1 UNK         0.0600 
    151 H151       -0.2150  -21.9920  -40.9986 H         1 UNK         0.0600 
    152 H152        0.9440  -20.7778  -40.4776 H         1 UNK         0.0600 
    153 H153        1.4918  -22.2028  -41.3606 H         1 UNK         0.0600 
    154 H154        1.4149  -18.8949  -43.0819 H         1 UNK         0.3000 
    155 H155        4.9141  -19.4004  -43.1176 H         1 UNK         0.0600 
    156 H156        2.9360  -18.2767  -45.1757 H         1 UNK         0.0600 
    157 H157        4.1626  -19.4963  -45.4959 H         1 UNK         0.0600 
    158 H158        4.6452  -17.8653  -45.0544 H         1 UNK         0.0600 
    159 H159        3.2959  -17.0467  -43.0375 H         1 UNK         0.3000 
    160 H160        3.0891  -16.8053  -39.4525 H         1 UNK         0.0600 
    161 H161        3.9924  -14.5685  -40.0207 H         1 UNK         0.0600 
    162 H162        4.5065  -15.1461  -41.6035 H         1 UNK         0.0600 
    163 H163        5.2521  -15.7873  -40.1458 H         1 UNK         0.0600 
    164 H164        2.0097  -15.1834  -41.5432 H         1 UNK         0.3000 
    165 H165       -1.1415  -16.8642  -41.8075 H         1 UNK         0.0600 
    166 H166       -1.8978  -14.5233  -41.3599 H         1 UNK         0.0600 
    167 H167       -1.3879  -15.3201  -39.8781 H         1 UNK         0.0600 
    168 H168       -0.3342  -14.1413  -40.6491 H         1 UNK         0.0600 
    169 H169       -0.1123  -14.5650  -43.1230 H         1 UNK         0.3000 
    170 H170        1.5538  -16.2585  -45.8078 H         1 UNK         0.0600 
    171 H171        0.0315  -14.7387  -47.0713 H         1 UNK         0.0600 
    172 H172       -0.8091  -16.1503  -46.4383 H         1 UNK         0.0600 
    173 H173       -1.0132  -14.5950  -45.6571 H         1 UNK         0.0600 
    174 H174        1.1766  -13.4935  -45.0770 H         1 UNK         0.3000 
    175 H175        4.1990  -13.1409  -43.2351 H         1 UNK         0.0600 
    176 H176        4.6551  -11.4467  -44.9885 H         1 UNK         0.0600 
    177 H177        4.9399  -13.0607  -45.6196 H         1 UNK         0.0600 
    178 H178        3.4728  -12.1957  -46.0621 H         1 UNK         0.0600 
    179 H179        2.2056  -11.2844  -44.1394 H         1 UNK         0.3000 
    180 H180        0.0141  -11.6011  -41.3435 H         1 UNK         0.0600 
    181 H181        1.9114   -9.3561  -42.2178 H         1 UNK         0.0600 
    182 H182        1.8473  -10.0673  -40.6096 H         1 UNK         0.0600 
    183 H183        0.4671   -9.1710  -41.2224 H         1 UNK         0.0600 
    184 H184       -0.1017   -9.8932  -43.6016 H         1 UNK         0.3000 
    185 H185       -2.1187  -10.3464  -44.9714 H         1 UNK         0.0600 
    186 H186       -0.0663  -11.9641  -46.6187 H         1 UNK         0.0600 
    187 H187       -1.1165  -10.7050  -47.2610 H         1 UNK         0.0600 
    188 H188        0.1410  -10.2910  -46.1114 H         1 UNK         0.0600 
    189 H189       -2.4120  -13.1683  -45.0480 H         1 UNK         0.3000 
    190 H190       -1.3799  -20.2661  -45.9640 H         1 UNK         0.3000 
    191 H191       -3.9859  -19.2162  -46.7463 H         1 UNK         0.0600 
    192 H192       -2.6165  -18.0808  -45.0090 H         1 UNK         0.0600 
    193 H193       -2.6800  -19.5159  -43.9895 H         1 UNK         0.0600 
    194 H194       -4.1522  -18.6217  -44.3430 H         1 UNK         0.0600 
    195 H195       -2.7182  -22.0801  -45.0154 H         1 UNK         0.3000 
    196 H196       -5.2410  -23.2388  -44.3549 H         1 UNK         0.0600 
    197 H197       -3.8703  -25.2924  -43.9656 H         1 UNK         0.0600 
    198 H198       -3.1261  -23.8779  -43.2341 H         1 UNK         0.0600 
    199 H199       -2.4863  -24.5296  -44.7403 H         1 UNK         0.0600 
    200 H200       -3.0480  -23.6886  -47.1570 H         1 UNK         0.3000 
    201 H201       -5.0653  -25.3465  -48.5867 H         1 UNK         0.0600 
    202 H202       -2.7839  -26.2712  -48.3762 H         1 UNK         0.0600 
    203 H203       -2.0988  -24.8280  -49.1111 H         1 UNK         0.0600 
    204 H204       -3.1283  -25.8979  -50.0561 H         1 UNK         0.0600 
    205 H205       -5.6103  -22.5279  -48.1952 H         1 UNK         0.3000 
    206 H206       -4.9376  -20.9040  -50.3833 H         1 UNK         0.0600 
    207 H207       -5.8806  -19.9685  -48.3460 H         1 UNK         0.0600 
    208 H208       -6.9627  -19.5735  -49.6693 H         1 UNK         0.0600 
    209 H209       -7.3875  -20.8643  -48.5489 H         1 UNK         0.0600 
    210 H210       -5.4046  -21.0179  -52.4281 H         1 UNK         0.3000 
    211 H211       -6.2679  -21.3803  -54.4070 H         1 UNK         0.0600 
    212 H212       -8.9999  -21.9342  -53.1476 H         1 UNK         0.0600 
    213 H213       -8.6715  -21.5116  -54.8193 H         1 UNK         0.0600 
    214 H214       -8.3824  -20.3324  -53.5521 H         1 UNK         0.0600 
    215 H215       -5.3944  -23.7051  -52.4816 H         1 UNK         0.3000 
    216 H216       -6.1480  -25.9572  -54.3053 H         1 UNK         0.0600 
    217 H217       -5.6315  -27.4325  -52.4197 H         1 UNK         0.0600 
    218 H218       -6.8397  -26.2642  -51.9084 H         1 UNK         0.0600 
    219 H219       -5.1609  -26.0739  -51.4102 H         1 UNK         0.0600 
    220 H220       -4.4175  -24.0452  -55.1572 H         1 UNK         0.3000 
    221 H221       -2.5325  -23.6533  -56.1932 H         1 UNK         0.0600 
    222 H222       -1.7214  -26.5584  -55.6517 H         1 UNK         0.0600 
    223 H223       -2.6047  -25.9634  -57.0533 H         1 UNK         0.0600 
    224 H224       -0.9455  -25.4589  -56.7805 H         1 UNK         0.0600 
    225 H225       -1.4308  -25.7268  -53.4980 H         1 UNK         0.3000 
    226 H226        0.1027  -25.5453  -51.8923 H         1 UNK         0.0600 
    227 H227       -1.6738  -23.8637  -51.1868 H         1 UNK         0.0600 
    228 H228       -0.0931  -23.5721  -50.4779 H         1 UNK         0.0600 
    229 H229       -0.6587  -22.5759  -51.8162 H         1 UNK         0.0600 
    230 H230        1.0053  -24.5200  -54.7333 H         1 UNK         0.3000 
    231 H231        2.7131  -23.6734  -55.8460 H         1 UNK         0.0600 
    232 H232        4.1376  -25.2621  -54.5209 H         1 UNK         0.0600 
    233 H233        4.4348  -23.9947  -53.3318 H         1 UNK         0.0600 
    234 H234        5.0082  -23.8094  -54.9824 H         1 UNK         0.0600 
    235 H235        0.8348  -21.9321  -54.4955 H         1 UNK         0.3000 
    236 H236        2.3632  -19.3840  -54.4901 H         1 UNK         0.0600 
    237 H237        1.2783  -18.7273  -52.3302 H         1 UNK         0.0600 
    238 H238        0.5765  -20.3363  -52.1885 H         1 UNK         0.0600 
    239 H239        2.3241  -20.1228  -52.1115 H         1 UNK         0.0600 
    240 H240       -0.7895  -21.0811  -54.6416 H         1 UNK         0.3000 
    241 H241       -2.1925  -18.5994  -55.3388 H         1 UNK         0.0600 
    242 H242       -1.3342  -20.5445  -58.7221 H         1 UNK         0.3800 
    243 H243       -0.4210  -20.7604  -57.2505 H         1 UNK         0.3800 
    244 H244       -4.2472  -19.8955  -55.0970 H         1 UNK         0.0800 
    245 H245       -3.3614  -21.3962  -55.0221 H         1 UNK         0.0800 
    246 H246       -4.8305  -18.4329  -52.8298 H         1 UNK         0.0800 
    247 H247       -3.2936  -17.8498  -53.4243 H         1 UNK         0.0800 
@<TRIPOS>BOND
     1    1    2 1    
     2    1  127 1    
     3    1  128 1    
     4    1  129 1    
     5    2    3 2    
     6    2    4 am   BACKBONE|DICT|INTERRES
     7    4    5 1    
     8    4  130 1    
     9    5    6 1    
    10    5   65 1    
    11    5  131 1    
    12    6    7 1    
    13    6  132 1    
    14    6  133 1    
    15    7    8 1    
    16    8    9 1    
    17    8  134 1    
    18    8  135 1    
    19    9   10 ar   
    20    9   14 ar   
    21   10   11 ar   
    22   10  136 1    
    23   11   12 ar   
    24   11  126 1    
    25   12   13 ar   
    26   12  137 1    
    27   13   14 ar   
    28   13   15 1    
    29   14  138 1    
    30   15   16 1    
    31   15  139 1    
    32   15  140 1    
    33   16   17 1    
    34   17   18 1    
    35   17  141 1    
    36   17  142 1    
    37   18   19 1    
    38   18   67 1    
    39   18  143 1    
    40   19   20 am   BACKBONE|DICT|INTERRES
    41   19  144 1    
    42   20   21 2    
    43   20   22 1    
    44   22   23 1    
    45   22   24 1    
    46   22  145 1    
    47   23  146 1    
    48   23  147 1    
    49   23  148 1    
    50   24   25 am   BACKBONE|DICT|INTERRES
    51   24  149 1    
    52   25   26 2    
    53   25   27 1    
    54   27   28 1    
    55   27   29 1    
    56   27  150 1    
    57   28  151 1    
    58   28  152 1    
    59   28  153 1    
    60   29   30 am   BACKBONE|DICT|INTERRES
    61   29  154 1    
    62   30   31 2    
    63   30   32 1    
    64   32   33 1    
    65   32   34 1    
    66   32  155 1    
    67   33  156 1    
    68   33  157 1    
    69   33  158 1    
    70   34   35 am   BACKBONE|DICT|INTERRES
    71   34  159 1    
    72   35   36 2    
    73   35   37 1    
    74   37   38 1    
    75   37   39 1    
    76   37  160 1    
    77   38  161 1    
    78   38  162 1    
    79   38  163 1    
    80   39   40 am   BACKBONE|DICT|INTERRES
    81   39  164 1    
    82   40   41 2    
    83   40   42 1    
    84   42   43 1    
    85   42   44 1    
    86   42  165 1    
    87   43  166 1    
    88   43  167 1    
    89   43  168 1    
    90   44   45 am   BACKBONE|DICT|INTERRES
    91   44  169 1    
    92   45   46 2    
    93   45   47 1    
    94   47   48 1    
    95   47   49 1    
    96   47  170 1    
    97   48  171 1    
    98   48  172 1    
    99   48  173 1    
   100   49   50 am   BACKBONE|DICT|INTERRES
   101   49  174 1    
   102   50   51 2    
   103   50   52 1    
   104   52   53 1    
   105   52   54 1    
   106   52  175 1    
   107   53  176 1    
   108   53  177 1    
   109   53  178 1    
   110   54   55 am   BACKBONE|DICT|INTERRES
   111   54  179 1    
   112   55   56 2    
   113   55   57 1    
   114   57   58 1    
   115   57   59 1    
   116   57  180 1    
   117   58  181 1    
   118   58  182 1    
   119   58  183 1    
   120   59   60 am   BACKBONE|DICT|INTERRES
   121   59  184 1    
   122   60   61 2    
   123   60   62 1    
   124   62   63 1    
   125   62   64 1    
   126   62  185 1    
   127   63  186 1    
   128   63  187 1    
   129   63  188 1    
   130   64   65 am   BACKBONE|DICT|INTERRES
   131   64  189 1    
   132   65   66 2    
   133   67   68 2    
   134   67   69 am   BACKBONE|DICT|INTERRES
   135   69   70 1    
   136   69  190 1    
   137   70   71 1    
   138   70   72 1    
   139   70  191 1    
   140   71  192 1    
   141   71  193 1    
   142   71  194 1    
   143   72   73 2    
   144   72   74 am   BACKBONE|DICT|INTERRES
   145   74   75 1    
   146   74  195 1    
   147   75   76 1    
   148   75   77 1    
   149   75  196 1    
   150   76  197 1    
   151   76  198 1    
   152   76  199 1    
   153   77   78 2    
   154   77   79 am   BACKBONE|DICT|INTERRES
   155   79   80 1    
   156   79  200 1    
   157   80   81 1    
   158   80   82 1    
   159   80  201 1    
   160   81  202 1    
   161   81  203 1    
   162   81  204 1    
   163   82   83 2    
   164   82   84 am   BACKBONE|DICT|INTERRES
   165   84   85 1    
   166   84  205 1    
   167   85   86 1    
   168   85   87 1    
   169   85  206 1    
   170   86  207 1    
   171   86  208 1    
   172   86  209 1    
   173   87   88 2    
   174   87   89 am   BACKBONE|DICT|INTERRES
   175   89   90 1    
   176   89  210 1    
   177   90   91 1    
   178   90   92 1    
   179   90  211 1    
   180   91  212 1    
   181   91  213 1    
   182   91  214 1    
   183   92   93 2    
   184   92   94 am   BACKBONE|DICT|INTERRES
   185   94   95 1    
   186   94  215 1    
   187   95   96 1    
   188   95   97 1    
   189   95  216 1    
   190   96  217 1    
   191   96  218 1    
   192   96  219 1    
   193   97   98 2    
   194   97   99 am   BACKBONE|DICT|INTERRES
   195   99  100 1    
   196   99  220 1    
   197  100  101 1    
   198  100  102 1    
   199  100  221 1    
   200  101  222 1    
   201  101  223 1    
   202  101  224 1    
   203  102  103 2    
   204  102  104 am   BACKBONE|DICT|INTERRES
   205  104  105 1    
   206  104  225 1    
   207  105  106 1    
   208  105  107 1    
   209  105  226 1    
   210  106  227 1    
   211  106  228 1    
   212  106  229 1    
   213  107  108 2    
   214  107  109 am   BACKBONE|DICT|INTERRES
   215  109  110 1    
   216  109  230 1    
   217  110  111 1    
   218  110  112 1    
   219  110  231 1    
   220  111  232 1    
   221  111  233 1    
   222  111  234 1    
   223  112  113 2    
   224  112  114 am   BACKBONE|DICT|INTERRES
   225  114  115 1    
   226  114  235 1    
   227  115  116 1    
   228  115  117 1    
   229  115  236 1    
   230  116  237 1    
   231  116  238 1    
   232  116  239 1    
   233  117  118 2    
   234  117  119 am   BACKBONE|DICT|INTERRES
   235  119  120 1    
   236  119  240 1    
   237  120  121 1    
   238  120  124 1    
   239  120  241 1    
   240  121  122 am   BACKBONE|DICT|INTERRES
   241  121  123 2    
   242  122  242 1    
   243  122  243 1    
   244  124  125 1    
   245  124  244 1    
   246  124  245 1    
   247  125  126 1    
   248  126  246 1    
   249  126  247 1    
@<TRIPOS>SUBSTRUCTURE
     1 UNK         1 GROUP             0       ****    0 ROOT    
