@<TRIPOS>MOLECULE
3R540
247   249    1
SMALL
USER_CHARGES


@<TRIPOS>ATOM
      1 CA          2.6066  -16.2514  -48.7937 C.3       0 UNK        -0.1800 
      2 C           1.9630  -14.9724  -48.2813 C.2       0 UNK         0.5000 
      3 O           1.9123  -13.9834  -49.0120 O.2       0 UNK        -0.5000 
      4 N           1.4871  -14.9892  -47.0281 N.am      1 UNK        -0.5000 
      5 CA          0.8747  -13.8563  -46.3107 C.3       1 UNK         0.1400 
      6 C6         -0.4680  -13.3669  -46.9274 C.3       23 UNK        -0.0398 
      7 S7         -1.7130  -14.6925  -47.0628 S.3       23 UNK        -0.2404 
      8 C8         -1.8798  -14.8825  -48.8639 C.3       23 UNK        -0.0205 
      9 C9         -2.2355  -16.3164  -49.2185 C.ar      23 UNK        -0.0193 
     10 C10        -3.5367  -16.7936  -49.0298 C.ar      23 UNK        -0.1150 
     11 C11        -3.8506  -18.1236  -49.3244 C.ar      23 UNK        -0.0193 
     12 C12        -2.8506  -18.9787  -49.7937 C.ar      23 UNK        -0.1150 
     13 C13        -1.5571  -18.5040  -50.0229 C.ar      23 UNK        -0.0193 
     14 C14        -1.2567  -17.1700  -49.7341 C.ar      23 UNK        -0.1150 
     15 C15        -0.5054  -19.4350  -50.6113 C.3       23 UNK        -0.0205 
     16 S16         1.0768  -19.4478  -49.7040 S.3       23 UNK        -0.2404 
     17 C17         0.5650  -19.6417  -47.9642 C.3       23 UNK        -0.0398 
     18 CA          0.4074  -21.1171  -47.5312 C.3       11 UNK         0.1400 
     19 N           0.7267  -21.2860  -46.1135 N.am      11 UNK        -0.5000 
     20 C           0.9368  -22.4613  -45.5087 C.2       10 UNK         0.5000 
     21 O           0.8999  -23.5466  -46.0873 O.2       10 UNK        -0.5000 
     22 CA          1.1915  -22.4108  -43.9917 C.3       10 UNK         0.1400 
     23 CB          2.6749  -22.1376  -43.7040 C.3       10 UNK        -0.1800 
     24 N           0.3657  -21.4072  -43.3150 N.am      10 UNK        -0.5000 
     25 C          -0.9709  -21.4763  -43.2327 C.2       9 UNK         0.5000 
     26 O          -1.6338  -22.3977  -43.7058 O.2       9 UNK        -0.5000 
     27 CA         -1.6993  -20.3101  -42.5463 C.3       9 UNK         0.1400 
     28 CB         -1.6207  -20.4479  -41.0191 C.3       9 UNK        -0.1800 
     29 N          -1.2129  -18.9895  -42.9452 N.am      9 UNK        -0.5000 
     30 C          -1.2105  -18.5041  -44.1954 C.2       8 UNK         0.5000 
     31 O          -1.5393  -19.1546  -45.1869 O.2       8 UNK        -0.5000 
     32 CA         -0.7228  -17.0571  -44.3631 C.3       8 UNK         0.1400 
     33 CB         -1.7456  -16.0543  -43.8049 C.3       8 UNK        -0.1800 
     34 N           0.5616  -16.8775  -43.6928 N.am      8 UNK        -0.5000 
     35 C           1.7420  -17.1773  -44.2485 C.2       7 UNK         0.5000 
     36 O           1.8783  -17.4506  -45.4404 O.2       7 UNK        -0.5000 
     37 CA          2.9817  -17.1645  -43.3355 C.3       7 UNK         0.1400 
     38 CB          3.8038  -15.8849  -43.5584 C.3       7 UNK        -0.1800 
     39 N           2.6487  -17.2918  -41.9153 N.am      7 UNK        -0.5000 
     40 C           2.2199  -18.4225  -41.3342 C.2       6 UNK         0.5000 
     41 O           2.0596  -19.4831  -41.9371 O.2       6 UNK        -0.5000 
     42 CA          1.8578  -18.3385  -39.8393 C.3       6 UNK         0.1400 
     43 CB          3.1073  -18.5460  -38.9711 C.3       6 UNK        -0.1800 
     44 N           1.2227  -17.0706  -39.4759 N.am      6 UNK        -0.5000 
     45 C           0.0565  -16.6266  -39.9672 C.2       5 UNK         0.5000 
     46 O          -0.6360  -17.2663  -40.7571 O.2       5 UNK        -0.5000 
     47 CA         -0.3726  -15.2045  -39.5605 C.3       5 UNK         0.1400 
     48 CB         -1.2383  -15.2443  -38.2930 C.3       5 UNK        -0.1800 
     49 N           0.7682  -14.3089  -39.3459 N.am      5 UNK        -0.5000 
     50 C           1.6307  -13.9424  -40.3028 C.2       4 UNK         0.5000 
     51 O           1.5375  -14.2936  -41.4817 O.2       4 UNK        -0.5000 
     52 CA          2.8454  -13.1206  -39.8424 C.3       4 UNK         0.1400 
     53 CB          3.9744  -14.0621  -39.3925 C.3       4 UNK        -0.1800 
     54 N           3.3548  -12.2578  -40.9055 N.am      4 UNK        -0.5000 
     55 C           2.7523  -11.1422  -41.3374 C.2       3 UNK         0.5000 
     56 O           1.6966  -10.7038  -40.8791 O.2       3 UNK        -0.5000 
     57 CA          3.4576  -10.4017  -42.4785 C.3       3 UNK         0.1400 
     58 CB          4.7607   -9.7493  -41.9668 C.3       3 UNK        -0.1800 
     59 N           3.7042  -11.3323  -43.5807 N.am      3 UNK        -0.5000 
     60 C           4.1993  -11.0085  -44.7812 C.2       2 UNK         0.5000 
     61 O           4.5522   -9.8727  -45.1013 O.2       2 UNK        -0.5000 
     62 CA          4.3015  -12.1462  -45.8143 C.3       2 UNK         0.1400 
     63 CB          5.5795  -12.9686  -45.5861 C.3       2 UNK        -0.1800 
     64 N           3.1492  -13.0516  -45.8444 N.am      2 UNK        -0.5000 
     65 C           1.8823  -12.6969  -46.1123 C.2       1 UNK         0.5000 
     66 O           1.5144  -11.5276  -46.2389 O.2       1 UNK        -0.5000 
     67 C          -0.9970  -21.6652  -47.8571 C.2       11 UNK         0.5000 
     68 O          -1.1646  -22.3658  -48.8570 O.2       11 UNK        -0.5000 
     69 N          -1.9683  -21.3712  -46.9816 N.am      12 UNK        -0.5000 
     70 CA         -3.3388  -21.8735  -47.0474 C.3       12 UNK         0.1400 
     71 CB         -4.2006  -21.1288  -46.0181 C.3       12 UNK        -0.1800 
     72 C          -3.4244  -23.3974  -46.8414 C.2       12 UNK         0.5000 
     73 O          -4.1868  -24.0573  -47.5475 O.2       12 UNK        -0.5000 
     74 N          -2.6206  -23.9362  -45.9132 N.am      13 UNK        -0.5000 
     75 CA         -2.4936  -25.3725  -45.6549 C.3       13 UNK         0.1400 
     76 CB         -1.6924  -25.5994  -44.3642 C.3       13 UNK        -0.1800 
     77 C          -1.8567  -26.1338  -46.8319 C.2       13 UNK         0.5000 
     78 O          -2.3097  -27.2311  -47.1598 O.2       13 UNK        -0.5000 
     79 N          -0.8394  -25.5292  -47.4626 N.am      14 UNK        -0.5000 
     80 CA         -0.2083  -26.0304  -48.6859 C.3       14 UNK         0.1400 
     81 CB          1.1092  -25.2741  -48.9185 C.3       14 UNK        -0.1800 
     82 C          -1.1168  -25.9085  -49.9255 C.2       14 UNK         0.5000 
     83 O          -0.9489  -26.6764  -50.8733 O.2       14 UNK        -0.5000 
     84 N          -2.0441  -24.9395  -49.8918 N.am      15 UNK        -0.5000 
     85 CA         -2.9788  -24.5444  -50.9482 C.3       15 UNK         0.1400 
     86 CB         -4.0015  -25.6637  -51.2277 C.3       15 UNK        -0.1800 
     87 C          -2.2512  -24.0446  -52.2111 C.2       15 UNK         0.5000 
     88 O          -2.6656  -24.3395  -53.3323 O.2       15 UNK        -0.5000 
     89 N          -1.1626  -23.2945  -51.9949 N.am      16 UNK        -0.5000 
     90 CA         -0.2186  -22.8651  -53.0293 C.3       16 UNK         0.1400 
     91 CB          1.1243  -22.5402  -52.3558 C.3       16 UNK        -0.1800 
     92 C          -0.7064  -21.6887  -53.9015 C.2       16 UNK         0.5000 
     93 O          -0.0083  -21.3139  -54.8450 O.2       16 UNK        -0.5000 
     94 N          -1.8788  -21.1198  -53.5890 N.am      17 UNK        -0.5000 
     95 CA         -2.5014  -19.9840  -54.2758 C.3       17 UNK         0.1400 
     96 CB         -3.5459  -19.3535  -53.3409 C.3       17 UNK        -0.1800 
     97 C          -3.0977  -20.3376  -55.6563 C.2       17 UNK         0.5000 
     98 O          -4.2871  -20.1098  -55.8866 O.2       17 UNK        -0.5000 
     99 N          -2.2585  -20.8752  -56.5506 N.am      18 UNK        -0.5000 
    100 CA        -2.5146  -21.1581  -57.9663 C.3       18 UNK         0.1400 
    101 CB        -2.3953  -19.8455  -58.7736 C.3       18 UNK        -0.1800 
    102 C         -3.8340  -21.9276  -58.2090 C.2       18 UNK         0.5000 
    103 O         -4.0133  -23.0103  -57.6492 O.2       18 UNK        -0.5000 
    104 N         -4.7268  -21.3598  -59.0301 N.am      19 UNK        -0.5000 
    105 CA        -6.0372  -21.9167  -59.3630 C.3       19 UNK         0.1400 
    106 CB        -6.4832  -21.3438  -60.7178 C.3       19 UNK        -0.1800 
    107 C         -7.1107  -21.6506  -58.2891 C.2       19 UNK         0.5000 
    108 O         -8.1326  -22.3386  -58.2927 O.2       19 UNK        -0.5000 
    109 N         -6.8883  -20.6649  -57.4050 N.am      20 UNK        -0.5000 
    110 CA        -7.7942  -20.3431  -56.2987 C.3       20 UNK         0.1400 
    111 CB        -7.5053  -18.9293  -55.7682 C.3       20 UNK        -0.1800 
    112 C         -7.6927  -21.3921  -55.1794 C.2       20 UNK         0.5000 
    113 O         -8.7211  -21.8828  -54.7123 O.2       20 UNK        -0.5000 
    114 N         -6.4471  -21.7397  -54.8206 N.am      21 UNK        -0.5000 
    115 CA        -6.0451  -22.8439  -53.9436 C.3       21 UNK         0.1400 
    116 CB        -6.2320  -24.1849  -54.6818 C.3       21 UNK        -0.1800 
    117 C         -6.7200  -22.8255  -52.5538 C.2       21 UNK         0.5000 
    118 O         -7.1441  -23.8698  -52.0575 O.2       21 UNK        -0.5000 
    119 N         -6.7889  -21.6374  -51.9410 N.am      22 UNK        -0.5000 
    120 CA        -7.3721  -21.3368  -50.6154 C.3       22 UNK         0.1400 
    121 C         -6.7179  -22.0356  -49.3779 C.2       22 UNK         0.5000 
    122 N         -5.9745  -23.1180  -49.5434 N.am      22 UNK        -0.7600 
    123 O         -6.8984  -21.6002  -48.2447 O.2       22 UNK        -0.5000 
    124 C124       -7.5490  -19.8021  -50.4179 C.3       23 UNK        -0.0398 
    125 S125       -6.0584  -18.8173  -50.8009 S.3       23 UNK        -0.2404 
    126 C126       -5.2692  -18.6444  -49.1693 C.3       23 UNK        -0.0205 
    127 H127        3.6761  -16.1003  -48.9383 H         1 UNK         0.0600 
    128 H128        2.1707  -16.5357  -49.7510 H         1 UNK         0.0600 
    129 H129        2.4713  -17.0795  -48.0986 H         1 UNK         0.0600 
    130 H130        1.5558  -15.8552  -46.5004 H         1 UNK         0.3000 
    131 H131        0.6552  -14.2243  -45.3074 H         1 UNK         0.0600 
    132 H132       -0.9056  -12.5880  -46.3008 H         1 UNK         0.0800 
    133 H133       -0.3043  -12.9054  -47.9022 H         1 UNK         0.0800 
    134 H134       -2.6493  -14.2026  -49.2319 H         1 UNK         0.0800 
    135 H135       -0.9509  -14.5974  -49.3599 H         1 UNK         0.0800 
    136 H136       -4.3009  -16.1292  -48.6519 H         1 UNK         0.1150 
    137 H137       -3.0963  -20.0065  -50.0217 H         1 UNK         0.1150 
    138 H138       -0.2556  -16.8002  -49.9015 H         1 UNK         0.1150 
    139 H139       -0.8849  -20.4550  -50.6651 H         1 UNK         0.0800 
    140 H140       -0.3123  -19.1327  -51.6413 H         1 UNK         0.0800 
    141 H141       -0.3207  -19.0476  -47.7345 H         1 UNK         0.0800 
    142 H142        1.3651  -19.1812  -47.3844 H         1 UNK         0.0800 
    143 H143        1.1292  -21.7196  -48.0873 H         1 UNK         0.0600 
    144 H144        0.7238  -20.4502  -45.5470 H         1 UNK         0.3000 
    145 H145        0.9396  -23.3899  -43.5791 H         1 UNK         0.0600 
    146 H146        2.8812  -22.1741  -42.6342 H         1 UNK         0.0600 
    147 H147        2.9822  -21.1569  -44.0699 H         1 UNK         0.0600 
    148 H148        3.3105  -22.8829  -44.1838 H         1 UNK         0.0600 
    149 H149        0.8553  -20.6306  -42.8769 H         1 UNK         0.3000 
    150 H150       -2.7506  -20.3658  -42.8355 H         1 UNK         0.0600 
    151 H151       -2.0186  -21.4095  -40.6923 H         1 UNK         0.0600 
    152 H152       -2.2002  -19.6700  -40.5216 H         1 UNK         0.0600 
    153 H153       -0.5929  -20.3796  -40.6634 H         1 UNK         0.0600 
    154 H154       -0.9368  -18.3723  -42.1848 H         1 UNK         0.3000 
    155 H155       -0.6084  -16.8647  -45.4315 H         1 UNK         0.0600 
    156 H156       -2.6948  -16.1372  -44.3357 H         1 UNK         0.0600 
    157 H157       -1.3960  -15.0289  -43.9238 H         1 UNK         0.0600 
    158 H158       -1.9499  -16.2141  -42.7469 H         1 UNK         0.0600 
    159 H159        0.5343  -16.6518  -42.7081 H         1 UNK         0.3000 
    160 H160        3.6017  -18.0184  -43.6167 H         1 UNK         0.0600 
    161 H161        3.2210  -14.9863  -43.3578 H         1 UNK         0.0600 
    162 H162        4.1539  -15.8257  -44.5895 H         1 UNK         0.0600 
    163 H163        4.6853  -15.8640  -42.9174 H         1 UNK         0.0600 
    164 H164        2.6920  -16.4462  -41.3653 H         1 UNK         0.3000 
    165 H165        1.1527  -19.1420  -39.6202 H         1 UNK         0.0600 
    166 H166        2.8519  -18.5700  -37.9116 H         1 UNK         0.0600 
    167 H167        3.5940  -19.4931  -39.2080 H         1 UNK         0.0600 
    168 H168        3.8408  -17.7527  -39.1223 H         1 UNK         0.0600 
    169 H169        1.7228  -16.4819  -38.8268 H         1 UNK         0.3000 
    170 H170       -0.9746  -14.7965  -40.3754 H         1 UNK         0.0600 
    171 H171       -0.6820  -15.6249  -37.4354 H         1 UNK         0.0600 
    172 H172       -1.6112  -14.2520  -38.0387 H         1 UNK         0.0600 
    173 H173       -2.1063  -15.8898  -38.4340 H         1 UNK         0.0600 
    174 H174        0.9146  -13.9850  -38.4004 H         1 UNK         0.3000 
    175 H175        2.5498  -12.4948  -38.9975 H         1 UNK         0.0600 
    176 H176        4.3084  -14.7095  -40.2047 H         1 UNK         0.0600 
    177 H177        4.8377  -13.4994  -39.0367 H         1 UNK         0.0600 
    178 H178        3.6497  -14.7044  -38.5730 H         1 UNK         0.0600 
    179 H179        4.2207  -12.5423  -41.3381 H         1 UNK         0.3000 
    180 H180        2.7859   -9.6179  -42.8345 H         1 UNK         0.0600 
    181 H181        5.1847   -9.0638  -42.6997 H         1 UNK         0.0600 
    182 H182        5.5204  -10.4945  -41.7292 H         1 UNK         0.0600 
    183 H183        4.5773   -9.1675  -41.0624 H         1 UNK         0.0600 
    184 H184        3.3848  -12.2797  -43.4328 H         1 UNK         0.3000 
    185 H185        4.3712  -11.6829  -46.8007 H         1 UNK         0.0600 
    186 H186        5.7180  -13.7107  -46.3726 H         1 UNK         0.0600 
    187 H187        6.4620  -12.3273  -45.5881 H         1 UNK         0.0600 
    188 H188        5.5576  -13.4923  -44.6296 H         1 UNK         0.0600 
    189 H189        3.3570  -14.0369  -45.7910 H         1 UNK         0.3000 
    190 H190       -1.7573  -20.7386  -46.2138 H         1 UNK         0.3000 
    191 H191       -3.7288  -21.6508  -48.0426 H         1 UNK         0.0600 
    192 H192       -3.8367  -21.2809  -45.0019 H         1 UNK         0.0600 
    193 H193       -5.2349  -21.4725  -46.0521 H         1 UNK         0.0600 
    194 H194       -4.2067  -20.0563  -46.2142 H         1 UNK         0.0600 
    195 H195       -2.0810  -23.3182  -45.3130 H         1 UNK         0.3000 
    196 H196       -3.4976  -25.7749  -45.5047 H         1 UNK         0.0600 
    197 H197       -2.1846  -25.1365  -43.5088 H         1 UNK         0.0600 
    198 H198       -0.6866  -25.1849  -44.4364 H         1 UNK         0.0600 
    199 H199       -1.5950  -26.6635  -44.1462 H         1 UNK         0.0600 
    200 H200       -0.4710  -24.6628  -47.0834 H         1 UNK         0.3000 
    201 H201        0.0236  -27.0882  -48.5456 H         1 UNK         0.0600 
    202 H202        1.7935  -25.4078  -48.0806 H         1 UNK         0.0600 
    203 H203        0.9421  -24.2040  -49.0460 H         1 UNK         0.0600 
    204 H204        1.6164  -25.6360  -49.8138 H         1 UNK         0.0600 
    205 H205       -2.0374  -24.3318  -49.0818 H         1 UNK         0.3000 
    206 H206       -3.5215  -23.6834  -50.5591 H         1 UNK         0.0600 
    207 H207       -4.5082  -25.9687  -50.3119 H         1 UNK         0.0600 
    208 H208       -4.7680  -25.3292  -51.9257 H         1 UNK         0.0600 
    209 H209       -3.5304  -26.5461  -51.6612 H         1 UNK         0.0600 
    210 H210       -0.9169  -23.0813  -51.0354 H         1 UNK         0.3000 
    211 H211       -0.0539  -23.7059  -53.7064 H         1 UNK         0.0600 
    212 H212        1.0324  -21.7180  -51.6480 H         1 UNK         0.0600 
    213 H213        1.8774  -22.2563  -53.0920 H         1 UNK         0.0600 
    214 H214        1.5123  -23.4037  -51.8149 H         1 UNK         0.0600 
    215 H215       -2.3953  -21.5173  -52.8202 H         1 UNK         0.3000 
    216 H216       -1.7315  -19.2311  -54.4564 H         1 UNK         0.0600 
    217 H217       -4.0668  -18.5246  -53.8222 H         1 UNK         0.0600 
    218 H218       -3.0720  -18.9452  -52.4523 H         1 UNK         0.0600 
    219 H219       -4.2969  -20.0780  -53.0265 H         1 UNK         0.0600 
    220 H220       -1.3166  -21.0707  -56.2232 H         1 UNK         0.3000 
    221 H221       -1.7149  -21.8225  -58.2963 H         1 UNK         0.0600 
    222 H222       -3.1540  -19.1170  -58.4845 H         1 UNK         0.0600 
    223 H223       -1.4214  -19.3817  -58.6158 H         1 UNK         0.0600 
    224 H224       -2.4877  -20.0256  -59.8454 H         1 UNK         0.0600 
    225 H225       -4.5001  -20.4659  -59.4412 H         1 UNK         0.3000 
    226 H226       -5.9423  -22.9996  -59.4686 H         1 UNK         0.0600 
    227 H227       -5.7648  -21.5815  -61.5026 H         1 UNK         0.0600 
    228 H228       -7.4440  -21.7611  -61.0222 H         1 UNK         0.0600 
    229 H229       -6.5939  -20.2594  -60.6797 H         1 UNK         0.0600 
    230 H230       -5.9950  -20.1902  -57.4145 H         1 UNK         0.3000 
    231 H231       -8.8190  -20.3519  -56.6764 H         1 UNK         0.0600 
    232 H232       -8.2067  -18.6628  -54.9766 H         1 UNK         0.0600 
    233 H233       -7.6080  -18.1845  -56.5574 H         1 UNK         0.0600 
    234 H234       -6.5011  -18.8412  -55.3540 H         1 UNK         0.0600 
    235 H235       -5.6848  -21.2335  -55.2649 H         1 UNK         0.3000 
    236 H236       -4.9768  -22.7156  -53.7643 H         1 UNK         0.0600 
    237 H237       -7.2847  -24.3978  -54.8707 H         1 UNK         0.0600 
    238 H238       -5.7140  -24.1794  -55.6411 H         1 UNK         0.0600 
    239 H239       -5.8256  -25.0147  -54.1030 H         1 UNK         0.0600 
    240 H240       -6.4055  -20.8360  -52.4201 H         1 UNK         0.3000 
    241 H241       -8.3793  -21.7562  -50.6375 H         1 UNK         0.0600 
    242 H242       -5.5199  -23.5544  -48.7460 H         1 UNK         0.3800 
    243 H243       -6.0021  -23.5868  -50.4385 H         1 UNK         0.3800 
    244 H244       -7.9101  -19.5557  -49.4180 H         1 UNK         0.0800 
    245 H245       -8.3331  -19.4548  -51.0918 H         1 UNK         0.0800 
    246 H246       -5.2366  -19.6071  -48.6608 H         1 UNK         0.0800 
    247 H247       -5.8649  -17.9790  -48.5429 H         1 UNK         0.0800 
@<TRIPOS>BOND
     1    1    2 1    
     2    1  127 1    
     3    1  128 1    
     4    1  129 1    
     5    2    3 2    
     6    2    4 am   BACKBONE|DICT|INTERRES
     7    4    5 1    
     8    4  130 1    
     9    5    6 1    
    10    5   65 1    
    11    5  131 1    
    12    6    7 1    
    13    6  132 1    
    14    6  133 1    
    15    7    8 1    
    16    8    9 1    
    17    8  134 1    
    18    8  135 1    
    19    9   10 ar   
    20    9   14 ar   
    21   10   11 ar   
    22   10  136 1    
    23   11   12 ar   
    24   11  126 1    
    25   12   13 ar   
    26   12  137 1    
    27   13   14 ar   
    28   13   15 1    
    29   14  138 1    
    30   15   16 1    
    31   15  139 1    
    32   15  140 1    
    33   16   17 1    
    34   17   18 1    
    35   17  141 1    
    36   17  142 1    
    37   18   19 1    
    38   18   67 1    
    39   18  143 1    
    40   19   20 am   BACKBONE|DICT|INTERRES
    41   19  144 1    
    42   20   21 2    
    43   20   22 1    
    44   22   23 1    
    45   22   24 1    
    46   22  145 1    
    47   23  146 1    
    48   23  147 1    
    49   23  148 1    
    50   24   25 am   BACKBONE|DICT|INTERRES
    51   24  149 1    
    52   25   26 2    
    53   25   27 1    
    54   27   28 1    
    55   27   29 1    
    56   27  150 1    
    57   28  151 1    
    58   28  152 1    
    59   28  153 1    
    60   29   30 am   BACKBONE|DICT|INTERRES
    61   29  154 1    
    62   30   31 2    
    63   30   32 1    
    64   32   33 1    
    65   32   34 1    
    66   32  155 1    
    67   33  156 1    
    68   33  157 1    
    69   33  158 1    
    70   34   35 am   BACKBONE|DICT|INTERRES
    71   34  159 1    
    72   35   36 2    
    73   35   37 1    
    74   37   38 1    
    75   37   39 1    
    76   37  160 1    
    77   38  161 1    
    78   38  162 1    
    79   38  163 1    
    80   39   40 am   BACKBONE|DICT|INTERRES
    81   39  164 1    
    82   40   41 2    
    83   40   42 1    
    84   42   43 1    
    85   42   44 1    
    86   42  165 1    
    87   43  166 1    
    88   43  167 1    
    89   43  168 1    
    90   44   45 am   BACKBONE|DICT|INTERRES
    91   44  169 1    
    92   45   46 2    
    93   45   47 1    
    94   47   48 1    
    95   47   49 1    
    96   47  170 1    
    97   48  171 1    
    98   48  172 1    
    99   48  173 1    
   100   49   50 am   BACKBONE|DICT|INTERRES
   101   49  174 1    
   102   50   51 2    
   103   50   52 1    
   104   52   53 1    
   105   52   54 1    
   106   52  175 1    
   107   53  176 1    
   108   53  177 1    
   109   53  178 1    
   110   54   55 am   BACKBONE|DICT|INTERRES
   111   54  179 1    
   112   55   56 2    
   113   55   57 1    
   114   57   58 1    
   115   57   59 1    
   116   57  180 1    
   117   58  181 1    
   118   58  182 1    
   119   58  183 1    
   120   59   60 am   BACKBONE|DICT|INTERRES
   121   59  184 1    
   122   60   61 2    
   123   60   62 1    
   124   62   63 1    
   125   62   64 1    
   126   62  185 1    
   127   63  186 1    
   128   63  187 1    
   129   63  188 1    
   130   64   65 am   BACKBONE|DICT|INTERRES
   131   64  189 1    
   132   65   66 2    
   133   67   68 2    
   134   67   69 am   BACKBONE|DICT|INTERRES
   135   69   70 1    
   136   69  190 1    
   137   70   71 1    
   138   70   72 1    
   139   70  191 1    
   140   71  192 1    
   141   71  193 1    
   142   71  194 1    
   143   72   73 2    
   144   72   74 am   BACKBONE|DICT|INTERRES
   145   74   75 1    
   146   74  195 1    
   147   75   76 1    
   148   75   77 1    
   149   75  196 1    
   150   76  197 1    
   151   76  198 1    
   152   76  199 1    
   153   77   78 2    
   154   77   79 am   BACKBONE|DICT|INTERRES
   155   79   80 1    
   156   79  200 1    
   157   80   81 1    
   158   80   82 1    
   159   80  201 1    
   160   81  202 1    
   161   81  203 1    
   162   81  204 1    
   163   82   83 2    
   164   82   84 am   BACKBONE|DICT|INTERRES
   165   84   85 1    
   166   84  205 1    
   167   85   86 1    
   168   85   87 1    
   169   85  206 1    
   170   86  207 1    
   171   86  208 1    
   172   86  209 1    
   173   87   88 2    
   174   87   89 am   BACKBONE|DICT|INTERRES
   175   89   90 1    
   176   89  210 1    
   177   90   91 1    
   178   90   92 1    
   179   90  211 1    
   180   91  212 1    
   181   91  213 1    
   182   91  214 1    
   183   92   93 2    
   184   92   94 am   BACKBONE|DICT|INTERRES
   185   94   95 1    
   186   94  215 1    
   187   95   96 1    
   188   95   97 1    
   189   95  216 1    
   190   96  217 1    
   191   96  218 1    
   192   96  219 1    
   193   97   98 2    
   194   97   99 am   BACKBONE|DICT|INTERRES
   195   99  100 1    
   196   99  220 1    
   197  100  101 1    
   198  100  102 1    
   199  100  221 1    
   200  101  222 1    
   201  101  223 1    
   202  101  224 1    
   203  102  103 2    
   204  102  104 am   BACKBONE|DICT|INTERRES
   205  104  105 1    
   206  104  225 1    
   207  105  106 1    
   208  105  107 1    
   209  105  226 1    
   210  106  227 1    
   211  106  228 1    
   212  106  229 1    
   213  107  108 2    
   214  107  109 am   BACKBONE|DICT|INTERRES
   215  109  110 1    
   216  109  230 1    
   217  110  111 1    
   218  110  112 1    
   219  110  231 1    
   220  111  232 1    
   221  111  233 1    
   222  111  234 1    
   223  112  113 2    
   224  112  114 am   BACKBONE|DICT|INTERRES
   225  114  115 1    
   226  114  235 1    
   227  115  116 1    
   228  115  117 1    
   229  115  236 1    
   230  116  237 1    
   231  116  238 1    
   232  116  239 1    
   233  117  118 2    
   234  117  119 am   BACKBONE|DICT|INTERRES
   235  119  120 1    
   236  119  240 1    
   237  120  121 1    
   238  120  124 1    
   239  120  241 1    
   240  121  122 am   BACKBONE|DICT|INTERRES
   241  121  123 2    
   242  122  242 1    
   243  122  243 1    
   244  124  125 1    
   245  124  244 1    
   246  124  245 1    
   247  125  126 1    
   248  126  246 1    
   249  126  247 1    
@<TRIPOS>SUBSTRUCTURE
     1 UNK         1 GROUP             0       ****    0 ROOT    
