@<TRIPOS>MOLECULE
3R540
247   249    1
SMALL
USER_CHARGES


@<TRIPOS>ATOM
      1 CA          2.5623  -14.1156  -47.4679 C.3       0 UNK        -0.1800 
      2 C           1.2252  -14.4611  -46.8185 C.2       0 UNK         0.5000 
      3 O           1.2221  -15.1412  -45.7958 O.2       0 UNK        -0.5000 
      4 N           0.0643  -14.0524  -47.3504 N.am      1 UNK        -0.5000 
      5 CA         -0.1874  -13.2795  -48.5785 C.3       1 UNK         0.1400 
      6 C6          0.3422  -13.9322  -49.8885 C.3       23 UNK        -0.0398 
      7 S7         -0.1117  -15.6921  -50.0694 S.3       23 UNK        -0.2404 
      8 C8          1.2881  -16.2907  -51.0619 C.3       23 UNK        -0.0205 
      9 C9          1.1794  -17.7804  -51.3457 C.ar      23 UNK        -0.0193 
     10 C10         0.3320  -18.2444  -52.3554 C.ar      23 UNK        -0.1150 
     11 C11         0.2550  -19.6099  -52.6487 C.ar      23 UNK        -0.0193 
     12 C12         1.0237  -20.5140  -51.9105 C.ar      23 UNK        -0.1150 
     13 C13         1.8689  -20.0635  -50.8922 C.ar      23 UNK        -0.0193 
     14 C14         1.9439  -18.6949  -50.6162 C.ar      23 UNK        -0.1150 
     15 C15         2.7161  -21.0526  -50.1039 C.3       23 UNK        -0.0205 
     16 S16         2.2488  -21.1121  -48.3462 S.3       23 UNK        -0.2404 
     17 C17         0.5576  -21.7927  -48.4191 C.3       23 UNK        -0.0398 
     18 CA          0.3531  -22.9835  -47.4544 C.3       11 UNK         0.1400 
     19 N           0.6287  -22.6474  -46.0530 N.am      11 UNK        -0.5000 
     20 C           0.6429  -23.5333  -45.0460 C.2       10 UNK         0.5000 
     21 O           0.4532  -24.7407  -45.1941 O.2       10 UNK        -0.5000 
     22 CA          0.8496  -22.9703  -43.6313 C.3       10 UNK         0.1400 
     23 CB          2.3395  -22.7335  -43.3416 C.3       10 UNK        -0.1800 
     24 N           0.1003  -21.7293  -43.4406 N.am      10 UNK        -0.5000 
     25 C          -1.2249  -21.6758  -43.2457 C.2       9 UNK         0.5000 
     26 O          -1.9408  -22.6736  -43.1507 O.2       9 UNK        -0.5000 
     27 CA         -1.8637  -20.2739  -43.1829 C.3       9 UNK         0.1400 
     28 CB         -1.7994  -19.7128  -41.7553 C.3       9 UNK        -0.1800 
     29 N          -1.2508  -19.3213  -44.1121 N.am      9 UNK        -0.5000 
     30 C          -1.3045  -19.4484  -45.4458 C.2       8 UNK         0.5000 
     31 O          -1.9041  -20.3565  -46.0155 O.2       8 UNK        -0.5000 
     32 CA         -0.5273  -18.4360  -46.3016 C.3       8 UNK         0.1400 
     33 CB         -1.4221  -17.2514  -46.6854 C.3       8 UNK        -0.1800 
     34 N           0.7207  -17.9547  -45.7089 N.am      8 UNK        -0.5000 
     35 C           1.7421  -18.7313  -45.3149 C.2       7 UNK         0.5000 
     36 O           1.6921  -19.9603  -45.2750 O.2       7 UNK        -0.5000 
     37 CA          3.0270  -18.0154  -44.8767 C.3       7 UNK         0.1400 
     38 CB          3.8485  -17.5955  -46.1057 C.3       7 UNK        -0.1800 
     39 N           2.6997  -16.8362  -44.0796 N.am      7 UNK        -0.5000 
     40 C           2.7994  -16.7678  -42.7479 C.2       6 UNK         0.5000 
     41 O           3.3140  -17.6412  -42.0481 O.2       6 UNK        -0.5000 
     42 CA          2.1973  -15.5197  -42.0757 C.3       6 UNK         0.1400 
     43 CB          3.2155  -14.3695  -42.0596 C.3       6 UNK        -0.1800 
     44 N           0.9551  -15.0421  -42.6874 N.am      6 UNK        -0.5000 
     45 C          -0.1784  -15.7402  -42.8389 C.2       5 UNK         0.5000 
     46 O          -0.2878  -16.9335  -42.5532 O.2       5 UNK        -0.5000 
     47 CA         -1.3968  -14.9620  -43.3833 C.3       5 UNK         0.1400 
     48 CB         -2.7119  -15.7520  -43.2383 C.3       5 UNK        -0.1800 
     49 N          -1.5613  -13.6642  -42.7238 N.am      5 UNK        -0.5000 
     50 C          -0.9163  -12.5387  -43.0483 C.2       4 UNK         0.5000 
     51 O          -0.0928  -12.4608  -43.9664 O.2       4 UNK        -0.5000 
     52 CA         -1.2081  -11.3140  -42.1695 C.3       4 UNK         0.1400 
     53 CB         -0.4454  -11.3993  -40.8370 C.3       4 UNK        -0.1800 
     54 N          -0.7772  -10.1275  -42.8929 N.am      4 UNK        -0.5000 
     55 C          -1.4294   -8.9635  -42.9734 C.2       3 UNK         0.5000 
     56 O          -2.4397   -8.6969  -42.3211 O.2       3 UNK        -0.5000 
     57 CA         -0.8639   -7.9226  -43.9640 C.3       3 UNK         0.1400 
     58 CB         -0.0945   -6.8259  -43.2113 C.3       3 UNK        -0.1800 
     59 N           0.0183   -8.5072  -44.9812 N.am      3 UNK        -0.5000 
     60 C          -0.3798   -9.3280  -45.9633 C.2       2 UNK         0.5000 
     61 O          -1.5620   -9.6159  -46.1654 O.2       2 UNK        -0.5000 
     62 CA          0.7163   -9.9424  -46.8540 C.3       2 UNK         0.1400 
     63 CB          2.1079   -9.9840  -46.1892 C.3       2 UNK        -0.1800 
     64 N           0.3319  -11.3066  -47.2049 N.am      2 UNK        -0.5000 
     65 C           0.2205  -11.7927  -48.4470 C.2       1 UNK         0.5000 
     66 O           0.4381  -11.1259  -49.4600 O.2       1 UNK        -0.5000 
     67 C          -1.0588  -23.5762  -47.6269 C.2       11 UNK         0.5000 
     68 O          -1.2080  -24.5816  -48.3172 O.2       11 UNK        -0.5000 
     69 N          -2.0599  -22.9797  -46.9642 N.am      12 UNK        -0.5000 
     70 CA         -3.4452  -23.4454  -46.9520 C.3       12 UNK         0.1400 
     71 CB         -4.3352  -22.4183  -46.2372 C.3       12 UNK        -0.1800 
     72 C          -3.6075  -24.8328  -46.3119 C.2       12 UNK         0.5000 
     73 O          -4.3933  -25.6336  -46.8167 O.2       12 UNK        -0.5000 
     74 N          -2.8508  -25.1056  -45.2416 N.am      13 UNK        -0.5000 
     75 CA         -2.8139  -26.4121  -44.5865 C.3       13 UNK         0.1400 
     76 CB         -2.1036  -26.2879  -43.2298 C.3       13 UNK        -0.1800 
     77 C          -2.1456  -27.4857  -45.4660 C.2       13 UNK         0.5000 
     78 O          -2.6482  -28.6072  -45.5423 O.2       13 UNK        -0.5000 
     79 N          -1.0352  -27.1193  -46.1194 N.am      14 UNK        -0.5000 
     80 CA         -0.2491  -28.0017  -46.9793 C.3       14 UNK         0.1400 
     81 CB          1.1334  -27.3734  -47.2158 C.3       14 UNK        -0.1800 
     82 C          -0.9350  -28.3190  -48.3209 C.2       14 UNK         0.5000 
     83 O          -0.9739  -29.4832  -48.7209 O.2       14 UNK        -0.5000 
     84 N          -1.4398  -27.2814  -49.0001 N.am      15 UNK        -0.5000 
     85 CA         -1.9488  -27.3505  -50.3724 C.3       15 UNK         0.1400 
     86 CB         -1.4414  -26.1208  -51.1439 C.3       15 UNK        -0.1800 
     87 C          -3.4833  -27.4647  -50.4577 C.2       15 UNK         0.5000 
     88 O          -4.0161  -27.4457  -51.5672 O.2       15 UNK        -0.5000 
     89 N          -4.1632  -27.5839  -49.3077 N.am      16 UNK        -0.5000 
     90 CA         -5.6144  -27.7337  -49.1444 C.3       16 UNK         0.1400 
     91 CB         -6.1109  -29.0562  -49.7666 C.3       16 UNK        -0.1800 
     92 C          -6.3913  -26.4967  -49.6413 C.2       16 UNK         0.5000 
     93 O          -7.1709  -26.5793  -50.5920 O.2       16 UNK        -0.5000 
     94 N          -6.1444  -25.3675  -48.9642 N.am      17 UNK        -0.5000 
     95 CA         -6.7865  -24.0563  -49.1264 C.3       17 UNK         0.1400 
     96 CB         -8.2936  -24.1390  -48.8057 C.3       17 UNK        -0.1800 
     97 C          -6.4996  -23.3608  -50.4749 C.2       17 UNK         0.5000 
     98 O          -7.2654  -22.4892  -50.8877 O.2       17 UNK        -0.5000 
     99 N          -5.3867  -23.7262  -51.1248 N.am      18 UNK        -0.5000 
    100 CA        -4.9509  -23.1704  -52.4105 C.3       18 UNK         0.1400 
    101 CB        -4.1644  -24.2485  -53.1716 C.3       18 UNK        -0.1800 
    102 C         -4.1160  -21.8785  -52.2772 C.2       18 UNK         0.5000 
    103 O         -3.6829  -21.3419  -53.2968 O.2       18 UNK        -0.5000 
    104 N         -3.8789  -21.4099  -51.0427 N.am      19 UNK        -0.5000 
    105 CA        -3.1224  -20.1961  -50.7228 C.3       19 UNK         0.1400 
    106 CB        -3.0032  -20.0705  -49.1984 C.3       19 UNK        -0.1800 
    107 C         -3.7409  -18.9154  -51.3201 C.2       19 UNK         0.5000 
    108 O         -4.9458  -18.8697  -51.5757 O.2       19 UNK        -0.5000 
    109 N         -2.8917  -17.9021  -51.5401 N.am      20 UNK        -0.5000 
    110 CA        -3.1675  -16.5765  -52.1200 C.3       20 UNK         0.1400 
    111 CB        -4.1976  -15.7957  -51.2831 C.3       20 UNK        -0.1800 
    112 C         -3.5387  -16.5744  -53.6187 C.2       20 UNK         0.5000 
    113 O         -3.2157  -15.6081  -54.3115 O.2       20 UNK        -0.5000 
    114 N         -4.1455  -17.6600  -54.1186 N.am      21 UNK        -0.5000 
    115 CA        -4.5394  -17.8653  -55.5189 C.3       21 UNK         0.1400 
    116 CB        -5.3481  -19.1673  -55.6208 C.3       21 UNK        -0.1800 
    117 C         -3.3609  -17.8814  -56.5167 C.2       21 UNK         0.5000 
    118 O         -3.5764  -17.6980  -57.7153 O.2       21 UNK        -0.5000 
    119 N         -2.1418  -18.0762  -56.0005 N.am      22 UNK        -0.5000 
    120 CA        -0.8656  -17.9489  -56.7184 C.3       22 UNK         0.1400 
    121 C         -0.5347  -16.4949  -57.1735 C.2       22 UNK         0.5000 
    122 N         -1.1685  -15.4607  -56.6291 N.am      22 UNK        -0.7600 
    123 O          0.3153  -16.3033  -58.0385 O.2       22 UNK        -0.5000 
    124 C124        0.3177  -18.5202  -55.8916 C.3       23 UNK        -0.0398 
    125 S125        0.1037  -20.2597  -55.3715 S.3       23 UNK        -0.2404 
    126 C126       -0.6846  -20.1203  -53.7319 C.3       23 UNK        -0.0205 
    127 H127        2.7871  -14.8246  -48.2639 H         1 UNK         0.0600 
    128 H128        2.5846  -13.1072  -47.8752 H         1 UNK         0.0600 
    129 H129        3.3612  -14.1819  -46.7292 H         1 UNK         0.0600 
    130 H130       -0.7786  -14.3140  -46.8624 H         1 UNK         0.3000 
    131 H131       -1.2746  -13.2571  -48.6675 H         1 UNK         0.0600 
    132 H132       -0.0614  -13.4067  -50.7556 H         1 UNK         0.0800 
    133 H133        1.4245  -13.8275  -49.9618 H         1 UNK         0.0800 
    134 H134        1.3259  -15.7406  -52.0034 H         1 UNK         0.0800 
    135 H135        2.2213  -16.0747  -50.5395 H         1 UNK         0.0800 
    136 H136       -0.2614  -17.5355  -52.9145 H         1 UNK         0.1150 
    137 H137        0.9635  -21.5704  -52.1319 H         1 UNK         0.1150 
    138 H138        2.6006  -18.3445  -49.8321 H         1 UNK         0.1150 
    139 H139        2.6494  -22.0554  -50.5287 H         1 UNK         0.0800 
    140 H140        3.7637  -20.7580  -50.1787 H         1 UNK         0.0800 
    141 H141        0.3434  -22.1035  -49.4431 H         1 UNK         0.0800 
    142 H142       -0.1435  -20.9897  -48.1962 H         1 UNK         0.0800 
    143 H143        1.0618  -23.7643  -47.7386 H         1 UNK         0.0600 
    144 H144        0.8499  -21.6770  -45.8510 H         1 UNK         0.3000 
    145 H145        0.4837  -23.7122  -42.9181 H         1 UNK         0.0600 
    146 H146        2.4889  -22.3554  -42.3302 H         1 UNK         0.0600 
    147 H147        2.9028  -23.6635  -43.4279 H         1 UNK         0.0600 
    148 H148        2.7827  -22.0191  -44.0354 H         1 UNK         0.0600 
    149 H149        0.6051  -20.8673  -43.6029 H         1 UNK         0.3000 
    150 H150       -2.9154  -20.3796  -43.4577 H         1 UNK         0.0600 
    151 H151       -2.2630  -20.3972  -41.0438 H         1 UNK         0.0600 
    152 H152       -2.3267  -18.7613  -41.6827 H         1 UNK         0.0600 
    153 H153       -0.7699  -19.5495  -41.4339 H         1 UNK         0.0600 
    154 H154       -0.7443  -18.5426  -43.7019 H         1 UNK         0.3000 
    155 H155       -0.2531  -18.9447  -47.2261 H         1 UNK         0.0600 
    156 H156       -0.9548  -16.6502  -47.4618 H         1 UNK         0.0600 
    157 H157       -1.6235  -16.6055  -45.8349 H         1 UNK         0.0600 
    158 H158       -2.3828  -17.5889  -47.0763 H         1 UNK         0.0600 
    159 H159        0.8541  -16.9478  -45.7028 H         1 UNK         0.3000 
    160 H160        3.6241  -18.7218  -44.2964 H         1 UNK         0.0600 
    161 H161        3.2931  -16.9176  -46.7538 H         1 UNK         0.0600 
    162 H162        4.1236  -18.4655  -46.7036 H         1 UNK         0.0600 
    163 H163        4.7714  -17.0964  -45.8106 H         1 UNK         0.0600 
    164 H164        2.2287  -16.0779  -44.5677 H         1 UNK         0.3000 
    165 H165        1.9666  -15.7862  -41.0424 H         1 UNK         0.0600 
    166 H166        3.4495  -14.0274  -43.0687 H         1 UNK         0.0600 
    167 H167        2.8384  -13.5163  -41.4952 H         1 UNK         0.0600 
    168 H168        4.1506  -14.6805  -41.5919 H         1 UNK         0.0600 
    169 H169        0.9532  -14.0866  -43.0226 H         1 UNK         0.3000 
    170 H170       -1.2189  -14.7944  -44.4465 H         1 UNK         0.0600 
    171 H171       -2.6564  -16.7212  -43.7340 H         1 UNK         0.0600 
    172 H172       -2.9536  -15.9381  -42.1912 H         1 UNK         0.0600 
    173 H173       -3.5467  -15.2109  -43.6840 H         1 UNK         0.0600 
    174 H174       -2.1867  -13.6514  -41.9308 H         1 UNK         0.3000 
    175 H175       -2.2829  -11.2734  -41.9802 H         1 UNK         0.0600 
    176 H176       -0.6375  -10.5228  -40.2179 H         1 UNK         0.0600 
    177 H177       -0.7506  -12.2749  -40.2628 H         1 UNK         0.0600 
    178 H178        0.6320  -11.4679  -40.9940 H         1 UNK         0.0600 
    179 H179        0.0035  -10.2872  -43.5152 H         1 UNK         0.3000 
    180 H180       -1.7122   -7.4595  -44.4724 H         1 UNK         0.0600 
    181 H181        0.7749   -7.2294  -42.6906 H         1 UNK         0.0600 
    182 H182       -0.7291   -6.3446  -42.4658 H         1 UNK         0.0600 
    183 H183        0.2513   -6.0477  -43.8919 H         1 UNK         0.0600 
    184 H184        1.0046   -8.3130  -44.8838 H         1 UNK         0.3000 
    185 H185        0.7785   -9.3163  -47.7460 H         1 UNK         0.0600 
    186 H186        2.8325  -10.4786  -46.8365 H         1 UNK         0.0600 
    187 H187        2.4918   -8.9818  -45.9961 H         1 UNK         0.0600 
    188 H188        2.0878  -10.5281  -45.2436 H         1 UNK         0.0600 
    189 H189        0.0884  -11.9062  -46.4261 H         1 UNK         0.3000 
    190 H190       -1.8746  -22.1164  -46.4563 H         1 UNK         0.3000 
    191 H191       -3.7757  -23.5205  -47.9896 H         1 UNK         0.0600 
    192 H192       -4.3340  -21.4624  -46.7603 H         1 UNK         0.0600 
    193 H193       -5.3700  -22.7586  -46.1849 H         1 UNK         0.0600 
    194 H194       -3.9977  -22.2390  -45.2157 H         1 UNK         0.0600 
    195 H195       -2.2380  -24.3890  -44.8760 H         1 UNK         0.3000 
    196 H196       -3.8427  -26.7274  -44.3996 H         1 UNK         0.0600 
    197 H197       -2.0972  -27.2437  -42.7045 H         1 UNK         0.0600 
    198 H198       -2.6073  -25.5658  -42.5868 H         1 UNK         0.0600 
    199 H199       -1.0675  -25.9682  -43.3413 H         1 UNK         0.0600 
    200 H200       -0.6635  -26.1870  -45.9636 H         1 UNK         0.3000 
    201 H201       -0.1009  -28.9460  -46.4511 H         1 UNK         0.0600 
    202 H202        1.6652  -27.2281  -46.2753 H         1 UNK         0.0600 
    203 H203        1.0563  -26.4027  -47.7073 H         1 UNK         0.0600 
    204 H204        1.7529  -28.0136  -47.8451 H         1 UNK         0.0600 
    205 H205       -1.3627  -26.3444  -48.6058 H         1 UNK         0.3000 
    206 H206       -1.5415  -28.2343  -50.8675 H         1 UNK         0.0600 
    207 H207       -0.3612  -26.0104  -51.0469 H         1 UNK         0.0600 
    208 H208       -1.6602  -26.2115  -52.2082 H         1 UNK         0.0600 
    209 H209       -1.9048  -25.2010  -50.7865 H         1 UNK         0.0600 
    210 H210       -3.6302  -27.5443  -48.4497 H         1 UNK         0.3000 
    211 H211       -5.7939  -27.8000  -48.0701 H         1 UNK         0.0600 
    212 H212       -5.9948  -29.0707  -50.8506 H         1 UNK         0.0600 
    213 H213       -7.1688  -29.2113  -49.5521 H         1 UNK         0.0600 
    214 H214       -5.5687  -29.9099  -49.3602 H         1 UNK         0.0600 
    215 H215       -5.4854  -25.4396  -48.1894 H         1 UNK         0.3000 
    216 H216       -6.3370  -23.4136  -48.3696 H         1 UNK         0.0600 
    217 H217       -8.4656  -24.6134  -47.8396 H         1 UNK         0.0600 
    218 H218       -8.8382  -24.7065  -49.5607 H         1 UNK         0.0600 
    219 H219       -8.7409  -23.1454  -48.7599 H         1 UNK         0.0600 
    220 H220       -4.8231  -24.4671  -50.7346 H         1 UNK         0.3000 
    221 H221       -5.8310  -22.9211  -53.0069 H         1 UNK         0.0600 
    222 H222       -3.2230  -24.4785  -52.6761 H         1 UNK         0.0600 
    223 H223       -4.7364  -25.1728  -53.2569 H         1 UNK         0.0600 
    224 H224       -3.9275  -23.9195  -54.1841 H         1 UNK         0.0600 
    225 H225       -4.3033  -21.8948  -50.2687 H         1 UNK         0.3000 
    226 H226       -2.1204  -20.3210  -51.1358 H         1 UNK         0.0600 
    227 H227       -2.5541  -20.9618  -48.7648 H         1 UNK         0.0600 
    228 H228       -2.3709  -19.2260  -48.9234 H         1 UNK         0.0600 
    229 H229       -3.9757  -19.9208  -48.7279 H         1 UNK         0.0600 
    230 H230       -1.9249  -18.0431  -51.2803 H         1 UNK         0.3000 
    231 H231       -2.2261  -16.0310  -52.0543 H         1 UNK         0.0600 
    232 H232       -4.2978  -14.7728  -51.6481 H         1 UNK         0.0600 
    233 H233       -3.8922  -15.7387  -50.2382 H         1 UNK         0.0600 
    234 H234       -5.1873  -16.2511  -51.3213 H         1 UNK         0.0600 
    235 H235       -4.4149  -18.3843  -53.4613 H         1 UNK         0.3000 
    236 H236       -5.1899  -17.0352  -55.8011 H         1 UNK         0.0600 
    237 H237       -5.7301  -19.3121  -56.6321 H         1 UNK         0.0600 
    238 H238       -4.7386  -20.0370  -55.3742 H         1 UNK         0.0600 
    239 H239       -6.2058  -19.1560  -54.9479 H         1 UNK         0.0600 
    240 H240       -2.0792  -18.2302  -55.0079 H         1 UNK         0.3000 
    241 H241       -0.9523  -18.5435  -57.6296 H         1 UNK         0.0600 
    242 H242       -1.8719  -15.5915  -55.9113 H         1 UNK         0.3800 
    243 H243       -0.9440  -14.5281  -56.9379 H         1 UNK         0.3800 
    244 H244        1.2305  -18.4862  -56.4890 H         1 UNK         0.0800 
    245 H245        0.5203  -17.8945  -55.0246 H         1 UNK         0.0800 
    246 H246       -1.5753  -19.4968  -53.7872 H         1 UNK         0.0800 
    247 H247       -1.0416  -21.1124  -53.4525 H         1 UNK         0.0800 
@<TRIPOS>BOND
     1    1    2 1    
     2    1  127 1    
     3    1  128 1    
     4    1  129 1    
     5    2    3 2    
     6    2    4 am   BACKBONE|DICT|INTERRES
     7    4    5 1    
     8    4  130 1    
     9    5    6 1    
    10    5   65 1    
    11    5  131 1    
    12    6    7 1    
    13    6  132 1    
    14    6  133 1    
    15    7    8 1    
    16    8    9 1    
    17    8  134 1    
    18    8  135 1    
    19    9   10 ar   
    20    9   14 ar   
    21   10   11 ar   
    22   10  136 1    
    23   11   12 ar   
    24   11  126 1    
    25   12   13 ar   
    26   12  137 1    
    27   13   14 ar   
    28   13   15 1    
    29   14  138 1    
    30   15   16 1    
    31   15  139 1    
    32   15  140 1    
    33   16   17 1    
    34   17   18 1    
    35   17  141 1    
    36   17  142 1    
    37   18   19 1    
    38   18   67 1    
    39   18  143 1    
    40   19   20 am   BACKBONE|DICT|INTERRES
    41   19  144 1    
    42   20   21 2    
    43   20   22 1    
    44   22   23 1    
    45   22   24 1    
    46   22  145 1    
    47   23  146 1    
    48   23  147 1    
    49   23  148 1    
    50   24   25 am   BACKBONE|DICT|INTERRES
    51   24  149 1    
    52   25   26 2    
    53   25   27 1    
    54   27   28 1    
    55   27   29 1    
    56   27  150 1    
    57   28  151 1    
    58   28  152 1    
    59   28  153 1    
    60   29   30 am   BACKBONE|DICT|INTERRES
    61   29  154 1    
    62   30   31 2    
    63   30   32 1    
    64   32   33 1    
    65   32   34 1    
    66   32  155 1    
    67   33  156 1    
    68   33  157 1    
    69   33  158 1    
    70   34   35 am   BACKBONE|DICT|INTERRES
    71   34  159 1    
    72   35   36 2    
    73   35   37 1    
    74   37   38 1    
    75   37   39 1    
    76   37  160 1    
    77   38  161 1    
    78   38  162 1    
    79   38  163 1    
    80   39   40 am   BACKBONE|DICT|INTERRES
    81   39  164 1    
    82   40   41 2    
    83   40   42 1    
    84   42   43 1    
    85   42   44 1    
    86   42  165 1    
    87   43  166 1    
    88   43  167 1    
    89   43  168 1    
    90   44   45 am   BACKBONE|DICT|INTERRES
    91   44  169 1    
    92   45   46 2    
    93   45   47 1    
    94   47   48 1    
    95   47   49 1    
    96   47  170 1    
    97   48  171 1    
    98   48  172 1    
    99   48  173 1    
   100   49   50 am   BACKBONE|DICT|INTERRES
   101   49  174 1    
   102   50   51 2    
   103   50   52 1    
   104   52   53 1    
   105   52   54 1    
   106   52  175 1    
   107   53  176 1    
   108   53  177 1    
   109   53  178 1    
   110   54   55 am   BACKBONE|DICT|INTERRES
   111   54  179 1    
   112   55   56 2    
   113   55   57 1    
   114   57   58 1    
   115   57   59 1    
   116   57  180 1    
   117   58  181 1    
   118   58  182 1    
   119   58  183 1    
   120   59   60 am   BACKBONE|DICT|INTERRES
   121   59  184 1    
   122   60   61 2    
   123   60   62 1    
   124   62   63 1    
   125   62   64 1    
   126   62  185 1    
   127   63  186 1    
   128   63  187 1    
   129   63  188 1    
   130   64   65 am   BACKBONE|DICT|INTERRES
   131   64  189 1    
   132   65   66 2    
   133   67   68 2    
   134   67   69 am   BACKBONE|DICT|INTERRES
   135   69   70 1    
   136   69  190 1    
   137   70   71 1    
   138   70   72 1    
   139   70  191 1    
   140   71  192 1    
   141   71  193 1    
   142   71  194 1    
   143   72   73 2    
   144   72   74 am   BACKBONE|DICT|INTERRES
   145   74   75 1    
   146   74  195 1    
   147   75   76 1    
   148   75   77 1    
   149   75  196 1    
   150   76  197 1    
   151   76  198 1    
   152   76  199 1    
   153   77   78 2    
   154   77   79 am   BACKBONE|DICT|INTERRES
   155   79   80 1    
   156   79  200 1    
   157   80   81 1    
   158   80   82 1    
   159   80  201 1    
   160   81  202 1    
   161   81  203 1    
   162   81  204 1    
   163   82   83 2    
   164   82   84 am   BACKBONE|DICT|INTERRES
   165   84   85 1    
   166   84  205 1    
   167   85   86 1    
   168   85   87 1    
   169   85  206 1    
   170   86  207 1    
   171   86  208 1    
   172   86  209 1    
   173   87   88 2    
   174   87   89 am   BACKBONE|DICT|INTERRES
   175   89   90 1    
   176   89  210 1    
   177   90   91 1    
   178   90   92 1    
   179   90  211 1    
   180   91  212 1    
   181   91  213 1    
   182   91  214 1    
   183   92   93 2    
   184   92   94 am   BACKBONE|DICT|INTERRES
   185   94   95 1    
   186   94  215 1    
   187   95   96 1    
   188   95   97 1    
   189   95  216 1    
   190   96  217 1    
   191   96  218 1    
   192   96  219 1    
   193   97   98 2    
   194   97   99 am   BACKBONE|DICT|INTERRES
   195   99  100 1    
   196   99  220 1    
   197  100  101 1    
   198  100  102 1    
   199  100  221 1    
   200  101  222 1    
   201  101  223 1    
   202  101  224 1    
   203  102  103 2    
   204  102  104 am   BACKBONE|DICT|INTERRES
   205  104  105 1    
   206  104  225 1    
   207  105  106 1    
   208  105  107 1    
   209  105  226 1    
   210  106  227 1    
   211  106  228 1    
   212  106  229 1    
   213  107  108 2    
   214  107  109 am   BACKBONE|DICT|INTERRES
   215  109  110 1    
   216  109  230 1    
   217  110  111 1    
   218  110  112 1    
   219  110  231 1    
   220  111  232 1    
   221  111  233 1    
   222  111  234 1    
   223  112  113 2    
   224  112  114 am   BACKBONE|DICT|INTERRES
   225  114  115 1    
   226  114  235 1    
   227  115  116 1    
   228  115  117 1    
   229  115  236 1    
   230  116  237 1    
   231  116  238 1    
   232  116  239 1    
   233  117  118 2    
   234  117  119 am   BACKBONE|DICT|INTERRES
   235  119  120 1    
   236  119  240 1    
   237  120  121 1    
   238  120  124 1    
   239  120  241 1    
   240  121  122 am   BACKBONE|DICT|INTERRES
   241  121  123 2    
   242  122  242 1    
   243  122  243 1    
   244  124  125 1    
   245  124  244 1    
   246  124  245 1    
   247  125  126 1    
   248  126  246 1    
   249  126  247 1    
@<TRIPOS>SUBSTRUCTURE
     1 UNK         1 GROUP             0       ****    0 ROOT    
