@<TRIPOS>MOLECULE
3R540
247   249    1
SMALL
USER_CHARGES


@<TRIPOS>ATOM
      1 CA         -0.2632   -9.4168  -46.9254 C.3       0 UNK        -0.1800 
      2 C           0.1222   -8.9630  -48.3325 C.2       0 UNK         0.5000 
      3 O           0.0663   -7.7667  -48.6096 O.2       0 UNK        -0.5000 
      4 N           0.5112   -9.8521  -49.2604 N.am      1 UNK        -0.5000 
      5 CA          0.6783  -11.3085  -49.1394 C.3       1 UNK         0.1400 
      6 C6         -0.6534  -12.0660  -48.8662 C.3       23 UNK        -0.0398 
      7 S7         -0.7665  -13.6633  -49.7417 S.3       23 UNK        -0.2404 
      8 C8         -0.3918  -14.8485  -48.4113 C.3       23 UNK        -0.0205 
      9 C9         -0.7816  -16.2568  -48.8205 C.ar      23 UNK        -0.0193 
     10 C10        -2.0994  -16.6851  -48.6580 C.ar      23 UNK        -0.1150 
     11 C11        -2.4897  -17.9588  -49.0766 C.ar      23 UNK        -0.0193 
     12 C12        -1.5404  -18.8224  -49.6339 C.ar      23 UNK        -0.1150 
     13 C13        -0.2146  -18.4054  -49.7966 C.ar      23 UNK        -0.0193 
     14 C14         0.1585  -17.1218  -49.3861 C.ar      23 UNK        -0.1150 
     15 C15         0.8092  -19.3140  -50.4620 C.3       23 UNK        -0.0205 
     16 S16         1.9729  -20.0349  -49.2612 S.3       23 UNK        -0.2404 
     17 C17         0.9202  -21.3040  -48.4914 C.3       23 UNK        -0.0398 
     18 CA          1.7296  -22.3226  -47.6513 C.3       11 UNK         0.1400 
     19 N           2.2785  -21.7205  -46.4297 N.am      11 UNK        -0.5000 
     20 C           3.1801  -22.2990  -45.6237 C.2       10 UNK         0.5000 
     21 O           3.7367  -23.3680  -45.8773 O.2       10 UNK        -0.5000 
     22 CA          3.4765  -21.5902  -44.2879 C.3       10 UNK         0.1400 
     23 CB          4.5453  -20.5017  -44.4681 C.3       10 UNK        -0.1800 
     24 N           2.2771  -21.0159  -43.6703 N.am      10 UNK        -0.5000 
     25 C           1.2563  -21.7350  -43.1791 C.2       9 UNK         0.5000 
     26 O           1.2367  -22.9652  -43.1581 O.2       9 UNK        -0.5000 
     27 CA          0.0321  -20.9597  -42.6567 C.3       9 UNK         0.1400 
     28 CB          0.2622  -20.4830  -41.2154 C.3       9 UNK        -0.1800 
     29 N          -0.3225  -19.8223  -43.5056 N.am      9 UNK        -0.5000 
     30 C          -0.7729  -19.9257  -44.7643 C.2       8 UNK         0.5000 
     31 O          -1.0070  -21.0018  -45.3167 O.2       8 UNK        -0.5000 
     32 CA         -0.9414  -18.6110  -45.5521 C.3       8 UNK         0.1400 
     33 CB         -2.2896  -17.9499  -45.2306 C.3       8 UNK        -0.1800 
     34 N           0.1419  -17.6584  -45.2990 N.am      8 UNK        -0.5000 
     35 C           1.4352  -17.8921  -45.5630 C.2       7 UNK         0.5000 
     36 O           1.8469  -18.9223  -46.0908 O.2       7 UNK        -0.5000 
     37 CA          2.4475  -16.8422  -45.0770 C.3       7 UNK         0.1400 
     38 CB          2.5435  -15.6554  -46.0462 C.3       7 UNK        -0.1800 
     39 N           2.1228  -16.3775  -43.7278 N.am      7 UNK        -0.5000 
     40 C           2.2914  -17.1220  -42.6247 C.2       6 UNK         0.5000 
     41 O           2.8093  -18.2380  -42.6328 O.2       6 UNK        -0.5000 
     42 CA          1.7509  -16.5552  -41.2987 C.3       6 UNK         0.1400 
     43 CB          2.8303  -15.7656  -40.5477 C.3       6 UNK        -0.1800 
     44 N           0.5708  -15.7129  -41.4900 N.am      6 UNK        -0.5000 
     45 C          -0.6411  -16.1961  -41.7976 C.2       5 UNK         0.5000 
     46 O          -0.8847  -17.3967  -41.9124 O.2       5 UNK        -0.5000 
     47 CA         -1.7544  -15.1682  -42.0729 C.3       5 UNK         0.1400 
     48 CB         -2.4700  -14.7848  -40.7695 C.3       5 UNK        -0.1800 
     49 N          -1.2717  -13.9548  -42.7356 N.am      5 UNK        -0.5000 
     50 C          -0.6819  -13.9240  -43.9379 C.2       4 UNK         0.5000 
     51 O          -0.4893  -14.9292  -44.6217 O.2       4 UNK        -0.5000 
     52 CA         -0.2049  -12.5594  -44.4662 C.3       4 UNK         0.1400 
     53 CB         -0.7969  -11.3467  -43.7123 C.3       4 UNK        -0.1800 
     54 N           1.2571  -12.4757  -44.5169 N.am      4 UNK        -0.5000 
     55 C           2.1165  -12.5391  -43.4877 C.2       3 UNK         0.5000 
     56 O           1.7680  -12.7849  -42.3317 O.2       3 UNK        -0.5000 
     57 CA          3.6147  -12.2896  -43.7812 C.3       3 UNK         0.1400 
     58 CB          4.5012  -13.4135  -43.2207 C.3       3 UNK        -0.1800 
     59 N           3.9197  -12.1235  -45.2033 N.am      3 UNK        -0.5000 
     60 C           3.7981  -10.9860  -45.8994 C.2       2 UNK         0.5000 
     61 O           3.4123   -9.9227  -45.4121 O.2       2 UNK        -0.5000 
     62 CA          4.1318  -11.0478  -47.4064 C.3       2 UNK         0.1400 
     63 CB          4.9321  -12.3038  -47.8225 C.3       2 UNK        -0.1800 
     64 N           2.9283  -10.9180  -48.2347 N.am      2 UNK        -0.5000 
     65 C           1.8281  -11.6845  -48.1775 C.2       1 UNK         0.5000 
     66 O           1.6920  -12.6124  -47.3809 O.2       1 UNK        -0.5000 
     67 C           0.8498  -23.5562  -47.3539 C.2       11 UNK         0.5000 
     68 O           0.7232  -24.4198  -48.2212 O.2       11 UNK        -0.5000 
     69 N           0.2590  -23.6025  -46.1506 N.am      12 UNK        -0.5000 
     70 CA         -0.7474  -24.5545  -45.6805 C.3       12 UNK         0.1400 
     71 CB         -0.2077  -25.9999  -45.6628 C.3       12 UNK        -0.1800 
     72 C          -2.0543  -24.3920  -46.4765 C.2       12 UNK         0.5000 
     73 O          -2.5291  -25.3397  -47.1029 O.2       12 UNK        -0.5000 
     74 N          -2.6047  -23.1694  -46.4338 N.am      13 UNK        -0.5000 
     75 CA         -3.7807  -22.6769  -47.1655 C.3       13 UNK         0.1400 
     76 CB         -4.0004  -21.2048  -46.7850 C.3       13 UNK        -0.1800 
     77 C          -5.0963  -23.4778  -47.0216 C.2       13 UNK         0.5000 
     78 O          -6.0613  -23.1661  -47.7178 O.2       13 UNK        -0.5000 
     79 N          -5.1277  -24.4953  -46.1524 N.am      14 UNK        -0.5000 
     80 CA         -6.1839  -25.5071  -46.0904 C.3       14 UNK         0.1400 
     81 CB         -6.0354  -26.2942  -44.7792 C.3       14 UNK        -0.1800 
     82 C          -6.1748  -26.4677  -47.3020 C.2       14 UNK         0.5000 
     83 O          -7.2005  -27.0914  -47.5795 O.2       14 UNK        -0.5000 
     84 N          -5.0291  -26.5819  -47.9918 N.am      15 UNK        -0.5000 
     85 CA         -4.8471  -27.3629  -49.2167 C.3       15 UNK         0.1400 
     86 CB         -3.3440  -27.4383  -49.5285 C.3       15 UNK        -0.1800 
     87 C          -5.6250  -26.7895  -50.4202 C.2       15 UNK         0.5000 
     88 O          -6.0484  -25.6308  -50.3948 O.2       15 UNK        -0.5000 
     89 N          -5.7765  -27.6185  -51.4631 N.am      16 UNK        -0.5000 
     90 CA         -6.5285  -27.3494  -52.6938 C.3       16 UNK         0.1400 
     91 CB         -6.3271  -28.5210  -53.6665 C.3       16 UNK        -0.1800 
     92 C          -6.1624  -26.0190  -53.3808 C.2       16 UNK         0.5000 
     93 O          -4.9793  -25.6828  -53.4827 O.2       16 UNK        -0.5000 
     94 N          -7.1970  -25.2854  -53.8186 N.am      17 UNK        -0.5000 
     95 CA         -7.1364  -23.9500  -54.4297 C.3       17 UNK         0.1400 
     96 CB         -6.5207  -24.0308  -55.8419 C.3       17 UNK        -0.1800 
     97 C          -6.4545  -22.9009  -53.5220 C.2       17 UNK         0.5000 
     98 O          -5.7432  -22.0227  -54.0129 O.2       17 UNK        -0.5000 
     99 N          -6.6604  -23.0472  -52.2038 N.am      18 UNK        -0.5000 
    100 CA        -6.0352  -22.2889  -51.1166 C.3       18 UNK         0.1400 
    101 CB        -6.5484  -20.8360  -51.1012 C.3       18 UNK        -0.1800 
    102 C         -4.4962  -22.4002  -51.1453 C.2       18 UNK         0.5000 
    103 O         -3.7967  -21.3919  -51.0668 O.2       18 UNK        -0.5000 
    104 N         -4.0077  -23.6376  -51.3075 N.am      19 UNK        -0.5000 
    105 CA        -2.6119  -24.0103  -51.5599 C.3       19 UNK         0.1400 
    106 CB        -1.7217  -23.6909  -50.3443 C.3       19 UNK        -0.1800 
    107 C         -2.0720  -23.4148  -52.8772 C.2       19 UNK         0.5000 
    108 O         -0.9542  -22.8979  -52.9140 O.2       19 UNK        -0.5000 
    109 N         -2.8906  -23.5146  -53.9347 N.am      20 UNK        -0.5000 
    110 CA        -2.6433  -23.0357  -55.2989 C.3       20 UNK         0.1400 
    111 CB        -1.5551  -23.8938  -55.9777 C.3       20 UNK        -0.1800 
    112 C         -2.3682  -21.5171  -55.3867 C.2       20 UNK         0.5000 
    113 O         -1.4640  -21.1042  -56.1157 O.2       20 UNK        -0.5000 
    114 N         -3.1872  -20.7317  -54.6680 N.am      21 UNK        -0.5000 
    115 CA        -3.1870  -19.2673  -54.5325 C.3       21 UNK         0.1400 
    116 CB        -3.2697  -18.5918  -55.9175 C.3       21 UNK        -0.1800 
    117 C         -1.9903  -18.7340  -53.6996 C.2       21 UNK         0.5000 
    118 O         -0.8626  -19.1786  -53.9075 O.2       21 UNK        -0.5000 
    119 N         -2.1547  -17.7758  -52.7732 N.am      22 UNK        -0.5000 
    120 CA        -3.3588  -17.0480  -52.3282 C.3       22 UNK         0.1400 
    121 C         -3.8994  -15.9873  -53.3313 C.2       22 UNK         0.5000 
    122 N         -3.0715  -15.4675  -54.2288 N.am      22 UNK        -0.7600 
    123 O         -5.0690  -15.6170  -53.2962 O.2       22 UNK        -0.5000 
    124 C124       -4.4475  -17.9676  -51.6989 C.3       23 UNK        -0.0398 
    125 S125       -5.0209  -17.3991  -50.0635 S.3       23 UNK        -0.2404 
    126 C126       -3.9476  -18.3744  -48.9573 C.3       23 UNK        -0.0205 
    127 H127       -1.1439  -10.0566  -46.9467 H         1 UNK         0.0600 
    128 H128       -0.5051   -8.5538  -46.3048 H         1 UNK         0.0600 
    129 H129        0.5532   -9.9447  -46.4351 H         1 UNK         0.0600 
    130 H130        0.7417   -9.4892  -50.1752 H         1 UNK         0.3000 
    131 H131        1.0302  -11.6130  -50.1263 H         1 UNK         0.0600 
    132 H132       -1.4933  -11.4717  -49.2282 H         1 UNK         0.0800 
    133 H133       -0.8409  -12.2062  -47.8023 H         1 UNK         0.0800 
    134 H134        0.6735  -14.8115  -48.1894 H         1 UNK         0.0800 
    135 H135       -0.9146  -14.5731  -47.4940 H         1 UNK         0.0800 
    136 H136       -2.8329  -16.0125  -48.2361 H         1 UNK         0.1150 
    137 H137       -1.8403  -19.8055  -49.9702 H         1 UNK         0.1150 
    138 H138        1.1791  -16.7923  -49.5211 H         1 UNK         0.1150 
    139 H139        0.3163  -20.1071  -51.0275 H         1 UNK         0.0800 
    140 H140        1.3760  -18.7351  -51.1925 H         1 UNK         0.0800 
    141 H141        0.1582  -20.8145  -47.8826 H         1 UNK         0.0800 
    142 H142        0.3911  -21.8112  -49.2995 H         1 UNK         0.0800 
    143 H143        2.5692  -22.6745  -48.2546 H         1 UNK         0.0600 
    144 H144        1.9498  -20.7846  -46.2005 H         1 UNK         0.3000 
    145 H145        3.8760  -22.3387  -43.6005 H         1 UNK         0.0600 
    146 H146        4.8030  -20.0404  -43.5147 H         1 UNK         0.0600 
    147 H147        4.2116  -19.7134  -45.1422 H         1 UNK         0.0600 
    148 H148        5.4617  -20.9214  -44.8845 H         1 UNK         0.0600 
    149 H149        2.2397  -20.0047  -43.6095 H         1 UNK         0.3000 
    150 H150       -0.8170  -21.6465  -42.6516 H         1 UNK         0.0600 
    151 H151        1.0974  -19.7863  -41.1494 H         1 UNK         0.0600 
    152 H152       -0.6225  -19.9852  -40.8181 H         1 UNK         0.0600 
    153 H153        0.4848  -21.3242  -40.5578 H         1 UNK         0.0600 
    154 H154       -0.2327  -18.8994  -43.0940 H         1 UNK         0.3000 
    155 H155       -0.9230  -18.8548  -46.6160 H         1 UNK         0.0600 
    156 H156       -3.1193  -18.6064  -45.4927 H         1 UNK         0.0600 
    157 H157       -2.4183  -17.0227  -45.7886 H         1 UNK         0.0600 
    158 H158       -2.3808  -17.7145  -44.1706 H         1 UNK         0.0600 
    159 H159       -0.1187  -16.7569  -44.9079 H         1 UNK         0.3000 
    160 H160        3.4287  -17.3208  -45.0489 H         1 UNK         0.0600 
    161 H161        1.6316  -15.0616  -46.0555 H         1 UNK         0.0600 
    162 H162        2.7214  -15.9975  -47.0665 H         1 UNK         0.0600 
    163 H163        3.3674  -14.9955  -45.7803 H         1 UNK         0.0600 
    164 H164        1.6137  -15.5086  -43.6549 H         1 UNK         0.3000 
    165 H165        1.4698  -17.4044  -40.6725 H         1 UNK         0.0600 
    166 H166        2.4917  -15.4926  -39.5482 H         1 UNK         0.0600 
    167 H167        3.7419  -16.3538  -40.4337 H         1 UNK         0.0600 
    168 H168        3.0905  -14.8485  -41.0712 H         1 UNK         0.0600 
    169 H169        0.7079  -14.7105  -41.4527 H         1 UNK         0.3000 
    170 H170       -2.4818  -15.6408  -42.7358 H         1 UNK         0.0600 
    171 H171       -2.8588  -15.6695  -40.2631 H         1 UNK         0.0600 
    172 H172       -1.7987  -14.2774  -40.0754 H         1 UNK         0.0600 
    173 H173       -3.3158  -14.1248  -40.9629 H         1 UNK         0.0600 
    174 H174       -1.3695  -13.0888  -42.2260 H         1 UNK         0.3000 
    175 H175       -0.5495  -12.5018  -45.4983 H         1 UNK         0.0600 
    176 H176       -0.4876  -11.3125  -42.6674 H         1 UNK         0.0600 
    177 H177       -0.4815  -10.4108  -44.1725 H         1 UNK         0.0600 
    178 H178       -1.8872  -11.3631  -43.7371 H         1 UNK         0.0600 
    179 H179        1.6420  -12.3811  -45.4523 H         1 UNK         0.3000 
    180 H180        3.8862  -11.3682  -43.2621 H         1 UNK         0.0600 
    181 H181        4.4715  -13.4197  -42.1317 H         1 UNK         0.0600 
    182 H182        5.5445  -13.2741  -43.5044 H         1 UNK         0.0600 
    183 H183        4.1874  -14.3968  -43.5703 H         1 UNK         0.0600 
    184 H184        4.2088  -12.9526  -45.7008 H         1 UNK         0.3000 
    185 H185        4.7537  -10.1764  -47.6168 H         1 UNK         0.0600 
    186 H186        5.8479  -12.3996  -47.2377 H         1 UNK         0.0600 
    187 H187        4.3587  -13.2234  -47.7006 H         1 UNK         0.0600 
    188 H188        5.2287  -12.2424  -48.8696 H         1 UNK         0.0600 
    189 H189        2.9263  -10.1400  -48.8794 H         1 UNK         0.3000 
    190 H190        0.4235  -22.8190  -45.5322 H         1 UNK         0.3000 
    191 H191       -0.9718  -24.2777  -44.6493 H         1 UNK         0.0600 
    192 H192       -0.9247  -26.6731  -45.1918 H         1 UNK         0.0600 
    193 H193        0.7214  -26.0649  -45.0965 H         1 UNK         0.0600 
    194 H194       -0.0177  -26.3825  -46.6657 H         1 UNK         0.0600 
    195 H195       -2.0978  -22.4544  -45.9174 H         1 UNK         0.3000 
    196 H196       -3.5275  -22.7079  -48.2255 H         1 UNK         0.0600 
    197 H197       -4.8720  -20.7872  -47.2904 H         1 UNK         0.0600 
    198 H198       -3.1409  -20.5976  -47.0690 H         1 UNK         0.0600 
    199 H199       -4.1558  -21.0880  -45.7119 H         1 UNK         0.0600 
    200 H200       -4.2843  -24.6940  -45.6355 H         1 UNK         0.3000 
    201 H201       -7.1501  -24.9986  -46.0787 H         1 UNK         0.0600 
    202 H202       -6.8239  -27.0414  -44.6806 H         1 UNK         0.0600 
    203 H203       -6.1036  -25.6354  -43.9133 H         1 UNK         0.0600 
    204 H204       -5.0793  -26.8170  -44.7305 H         1 UNK         0.0600 
    205 H205       -4.2223  -26.0455  -47.6849 H         1 UNK         0.3000 
    206 H206       -5.2149  -28.3734  -49.0279 H         1 UNK         0.0600 
    207 H207       -2.9208  -26.4482  -49.6935 H         1 UNK         0.0600 
    208 H208       -2.7950  -27.8985  -48.7067 H         1 UNK         0.0600 
    209 H209       -3.1489  -28.0332  -50.4214 H         1 UNK         0.0600 
    210 H210       -5.3602  -28.5361  -51.4037 H         1 UNK         0.3000 
    211 H211       -7.5835  -27.3147  -52.4150 H         1 UNK         0.0600 
    212 H212       -5.2780  -28.6361  -53.9426 H         1 UNK         0.0600 
    213 H213       -6.8931  -28.3686  -54.5866 H         1 UNK         0.0600 
    214 H214       -6.6659  -29.4612  -53.2309 H         1 UNK         0.0600 
    215 H215       -8.1295  -25.6526  -53.6862 H         1 UNK         0.3000 
    216 H216       -8.1677  -23.6131  -54.5430 H         1 UNK         0.0600 
    217 H217       -7.1084  -24.6860  -56.4847 H         1 UNK         0.0600 
    218 H218       -5.5037  -24.4193  -55.8199 H         1 UNK         0.0600 
    219 H219       -6.4924  -23.0517  -56.3215 H         1 UNK         0.0600 
    220 H220       -7.2196  -23.8344  -51.9046 H         1 UNK         0.3000 
    221 H221       -6.3632  -22.7636  -50.1937 H         1 UNK         0.0600 
    222 H222       -6.1602  -20.2962  -50.2376 H         1 UNK         0.0600 
    223 H223       -6.2487  -20.2919  -51.9962 H         1 UNK         0.0600 
    224 H224       -7.6359  -20.8039  -51.0393 H         1 UNK         0.0600 
    225 H225       -4.6798  -24.3967  -51.3499 H         1 UNK         0.3000 
    226 H226       -2.6056  -25.0922  -51.6977 H         1 UNK         0.0600 
    227 H227       -2.0867  -24.1915  -49.4508 H         1 UNK         0.0600 
    228 H228       -0.7006  -24.0356  -50.5087 H         1 UNK         0.0600 
    229 H229       -1.6773  -22.6219  -50.1383 H         1 UNK         0.0600 
    230 H230       -3.7733  -23.9940  -53.7920 H         1 UNK         0.3000 
    231 H231       -3.5691  -23.1948  -55.8504 H         1 UNK         0.0600 
    232 H232       -1.4514  -23.6333  -57.0316 H         1 UNK         0.0600 
    233 H233       -1.8038  -24.9541  -55.9305 H         1 UNK         0.0600 
    234 H234       -0.5804  -23.7562  -55.5087 H         1 UNK         0.0600 
    235 H235       -3.9210  -21.2033  -54.1469 H         1 UNK         0.3000 
    236 H236       -4.1193  -19.0499  -54.0213 H         1 UNK         0.0600 
    237 H237       -4.0282  -19.0629  -56.5429 H         1 UNK         0.0600 
    238 H238       -3.5398  -17.5416  -55.8324 H         1 UNK         0.0600 
    239 H239       -2.3200  -18.6371  -56.4512 H         1 UNK         0.0600 
    240 H240       -1.3223  -17.4911  -52.2791 H         1 UNK         0.3000 
    241 H241       -2.9669  -16.4253  -51.5236 H         1 UNK         0.0600 
    242 H242       -2.1018  -15.7409  -54.2584 H         1 UNK         0.3800 
    243 H243       -3.4140  -14.7716  -54.8727 H         1 UNK         0.3800 
    244 H244       -4.0660  -18.9788  -51.5804 H         1 UNK         0.0800 
    245 H245       -5.3209  -18.0613  -52.3455 H         1 UNK         0.0800 
    246 H246       -4.0676  -19.4349  -49.1801 H         1 UNK         0.0800 
    247 H247       -4.2769  -18.2334  -47.9272 H         1 UNK         0.0800 
@<TRIPOS>BOND
     1    1    2 1    
     2    1  127 1    
     3    1  128 1    
     4    1  129 1    
     5    2    3 2    
     6    2    4 am   BACKBONE|DICT|INTERRES
     7    4    5 1    
     8    4  130 1    
     9    5    6 1    
    10    5   65 1    
    11    5  131 1    
    12    6    7 1    
    13    6  132 1    
    14    6  133 1    
    15    7    8 1    
    16    8    9 1    
    17    8  134 1    
    18    8  135 1    
    19    9   10 ar   
    20    9   14 ar   
    21   10   11 ar   
    22   10  136 1    
    23   11   12 ar   
    24   11  126 1    
    25   12   13 ar   
    26   12  137 1    
    27   13   14 ar   
    28   13   15 1    
    29   14  138 1    
    30   15   16 1    
    31   15  139 1    
    32   15  140 1    
    33   16   17 1    
    34   17   18 1    
    35   17  141 1    
    36   17  142 1    
    37   18   19 1    
    38   18   67 1    
    39   18  143 1    
    40   19   20 am   BACKBONE|DICT|INTERRES
    41   19  144 1    
    42   20   21 2    
    43   20   22 1    
    44   22   23 1    
    45   22   24 1    
    46   22  145 1    
    47   23  146 1    
    48   23  147 1    
    49   23  148 1    
    50   24   25 am   BACKBONE|DICT|INTERRES
    51   24  149 1    
    52   25   26 2    
    53   25   27 1    
    54   27   28 1    
    55   27   29 1    
    56   27  150 1    
    57   28  151 1    
    58   28  152 1    
    59   28  153 1    
    60   29   30 am   BACKBONE|DICT|INTERRES
    61   29  154 1    
    62   30   31 2    
    63   30   32 1    
    64   32   33 1    
    65   32   34 1    
    66   32  155 1    
    67   33  156 1    
    68   33  157 1    
    69   33  158 1    
    70   34   35 am   BACKBONE|DICT|INTERRES
    71   34  159 1    
    72   35   36 2    
    73   35   37 1    
    74   37   38 1    
    75   37   39 1    
    76   37  160 1    
    77   38  161 1    
    78   38  162 1    
    79   38  163 1    
    80   39   40 am   BACKBONE|DICT|INTERRES
    81   39  164 1    
    82   40   41 2    
    83   40   42 1    
    84   42   43 1    
    85   42   44 1    
    86   42  165 1    
    87   43  166 1    
    88   43  167 1    
    89   43  168 1    
    90   44   45 am   BACKBONE|DICT|INTERRES
    91   44  169 1    
    92   45   46 2    
    93   45   47 1    
    94   47   48 1    
    95   47   49 1    
    96   47  170 1    
    97   48  171 1    
    98   48  172 1    
    99   48  173 1    
   100   49   50 am   BACKBONE|DICT|INTERRES
   101   49  174 1    
   102   50   51 2    
   103   50   52 1    
   104   52   53 1    
   105   52   54 1    
   106   52  175 1    
   107   53  176 1    
   108   53  177 1    
   109   53  178 1    
   110   54   55 am   BACKBONE|DICT|INTERRES
   111   54  179 1    
   112   55   56 2    
   113   55   57 1    
   114   57   58 1    
   115   57   59 1    
   116   57  180 1    
   117   58  181 1    
   118   58  182 1    
   119   58  183 1    
   120   59   60 am   BACKBONE|DICT|INTERRES
   121   59  184 1    
   122   60   61 2    
   123   60   62 1    
   124   62   63 1    
   125   62   64 1    
   126   62  185 1    
   127   63  186 1    
   128   63  187 1    
   129   63  188 1    
   130   64   65 am   BACKBONE|DICT|INTERRES
   131   64  189 1    
   132   65   66 2    
   133   67   68 2    
   134   67   69 am   BACKBONE|DICT|INTERRES
   135   69   70 1    
   136   69  190 1    
   137   70   71 1    
   138   70   72 1    
   139   70  191 1    
   140   71  192 1    
   141   71  193 1    
   142   71  194 1    
   143   72   73 2    
   144   72   74 am   BACKBONE|DICT|INTERRES
   145   74   75 1    
   146   74  195 1    
   147   75   76 1    
   148   75   77 1    
   149   75  196 1    
   150   76  197 1    
   151   76  198 1    
   152   76  199 1    
   153   77   78 2    
   154   77   79 am   BACKBONE|DICT|INTERRES
   155   79   80 1    
   156   79  200 1    
   157   80   81 1    
   158   80   82 1    
   159   80  201 1    
   160   81  202 1    
   161   81  203 1    
   162   81  204 1    
   163   82   83 2    
   164   82   84 am   BACKBONE|DICT|INTERRES
   165   84   85 1    
   166   84  205 1    
   167   85   86 1    
   168   85   87 1    
   169   85  206 1    
   170   86  207 1    
   171   86  208 1    
   172   86  209 1    
   173   87   88 2    
   174   87   89 am   BACKBONE|DICT|INTERRES
   175   89   90 1    
   176   89  210 1    
   177   90   91 1    
   178   90   92 1    
   179   90  211 1    
   180   91  212 1    
   181   91  213 1    
   182   91  214 1    
   183   92   93 2    
   184   92   94 am   BACKBONE|DICT|INTERRES
   185   94   95 1    
   186   94  215 1    
   187   95   96 1    
   188   95   97 1    
   189   95  216 1    
   190   96  217 1    
   191   96  218 1    
   192   96  219 1    
   193   97   98 2    
   194   97   99 am   BACKBONE|DICT|INTERRES
   195   99  100 1    
   196   99  220 1    
   197  100  101 1    
   198  100  102 1    
   199  100  221 1    
   200  101  222 1    
   201  101  223 1    
   202  101  224 1    
   203  102  103 2    
   204  102  104 am   BACKBONE|DICT|INTERRES
   205  104  105 1    
   206  104  225 1    
   207  105  106 1    
   208  105  107 1    
   209  105  226 1    
   210  106  227 1    
   211  106  228 1    
   212  106  229 1    
   213  107  108 2    
   214  107  109 am   BACKBONE|DICT|INTERRES
   215  109  110 1    
   216  109  230 1    
   217  110  111 1    
   218  110  112 1    
   219  110  231 1    
   220  111  232 1    
   221  111  233 1    
   222  111  234 1    
   223  112  113 2    
   224  112  114 am   BACKBONE|DICT|INTERRES
   225  114  115 1    
   226  114  235 1    
   227  115  116 1    
   228  115  117 1    
   229  115  236 1    
   230  116  237 1    
   231  116  238 1    
   232  116  239 1    
   233  117  118 2    
   234  117  119 am   BACKBONE|DICT|INTERRES
   235  119  120 1    
   236  119  240 1    
   237  120  121 1    
   238  120  124 1    
   239  120  241 1    
   240  121  122 am   BACKBONE|DICT|INTERRES
   241  121  123 2    
   242  122  242 1    
   243  122  243 1    
   244  124  125 1    
   245  124  244 1    
   246  124  245 1    
   247  125  126 1    
   248  126  246 1    
   249  126  247 1    
@<TRIPOS>SUBSTRUCTURE
     1 UNK         1 GROUP             0       ****    0 ROOT    
