@<TRIPOS>MOLECULE
3R540
247   249    1
SMALL
USER_CHARGES


@<TRIPOS>ATOM
      1 CA          3.0587  -12.0009  -52.9895 C.3       0 UNK        -0.1800 
      2 C           2.9874  -11.5949  -51.5243 C.2       0 UNK         0.5000 
      3 O           2.7572  -10.4245  -51.2210 O.2       0 UNK        -0.5000 
      4 N           3.1810  -12.5606  -50.6172 N.am      1 UNK        -0.5000 
      5 CA          3.1645  -12.3762  -49.1572 C.3       1 UNK         0.1400 
      6 C6          3.7690  -13.5834  -48.3878 C.3       23 UNK        -0.0398 
      7 S7          5.3116  -14.2539  -49.1019 S.3       23 UNK        -0.2404 
      8 C8          5.1733  -16.0276  -48.6647 C.3       23 UNK        -0.0205 
      9 C9          4.1315  -16.8527  -49.4296 C.ar      23 UNK        -0.0193 
     10 C10         3.2238  -16.2923  -50.3380 C.ar      23 UNK        -0.1150 
     11 C11         2.2698  -17.0800  -50.9828 C.ar      23 UNK        -0.0193 
     12 C12         2.2344  -18.4546  -50.7390 C.ar      23 UNK        -0.1150 
     13 C13         3.1460  -19.0384  -49.8558 C.ar      23 UNK        -0.0193 
     14 C14         4.0826  -18.2323  -49.2006 C.ar      23 UNK        -0.1150 
     15 C15         3.1252  -20.5396  -49.6179 C.3       23 UNK        -0.0205 
     16 S16         2.2519  -20.9470  -48.0806 S.3       23 UNK        -0.2404 
     17 C17         2.2315  -22.7682  -48.1631 C.3       23 UNK        -0.0398 
     18 CA          1.1925  -23.4362  -47.2300 C.3       11 UNK         0.1400 
     19 N           1.3563  -23.0532  -45.8255 N.am      11 UNK        -0.5000 
     20 C           0.8411  -23.7326  -44.7935 C.2       10 UNK         0.5000 
     21 O           0.1811  -24.7616  -44.9393 O.2       10 UNK        -0.5000 
     22 CA          1.0238  -23.1594  -43.3744 C.3       10 UNK         0.1400 
     23 CB          1.5158  -24.2264  -42.3767 C.3       10 UNK        -0.1800 
     24 N           1.8343  -21.9395  -43.3003 N.am      10 UNK        -0.5000 
     25 C           3.1535  -21.7853  -43.4847 C.2       9 UNK         0.5000 
     26 O           3.9189  -22.7048  -43.7741 O.2       9 UNK        -0.5000 
     27 CA          3.7155  -20.3537  -43.3413 C.3       9 UNK         0.1400 
     28 CB          4.1294  -19.8045  -44.7161 C.3       9 UNK        -0.1800 
     29 N           2.7733  -19.4140  -42.7262 N.am      9 UNK        -0.5000 
     30 C           2.4326  -19.3885  -41.4300 C.2       8 UNK         0.5000 
     31 O           2.9495  -20.1053  -40.5729 O.2       8 UNK        -0.5000 
     32 CA          1.2802  -18.4403  -41.0394 C.3       8 UNK         0.1400 
     33 CB          1.7993  -17.0206  -40.7666 C.3       8 UNK        -0.1800 
     34 N           0.2220  -18.3950  -42.0540 N.am      8 UNK        -0.5000 
     35 C          -0.5712  -19.4315  -42.3633 C.2       7 UNK         0.5000 
     36 O          -0.5325  -20.5152  -41.7825 O.2       7 UNK        -0.5000 
     37 CA         -1.5276  -19.2582  -43.5540 C.3       7 UNK         0.1400 
     38 CB         -2.8324  -18.5738  -43.1238 C.3       7 UNK        -0.1800 
     39 N          -0.9109  -18.5148  -44.6528 N.am      7 UNK        -0.5000 
     40 C           0.0498  -18.9983  -45.4527 C.2       6 UNK         0.5000 
     41 O           0.4291  -20.1688  -45.4105 O.2       6 UNK        -0.5000 
     42 CA          0.7091  -18.0143  -46.4430 C.3       6 UNK         0.1400 
     43 CB         -0.0165  -18.0101  -47.7931 C.3       6 UNK        -0.1800 
     44 N           0.7724  -16.6474  -45.9247 N.am      6 UNK        -0.5000 
     45 C           1.5028  -16.2837  -44.8621 C.2       5 UNK         0.5000 
     46 O           2.2460  -17.0510  -44.2534 O.2       5 UNK        -0.5000 
     47 CA          1.3305  -14.8430  -44.3581 C.3       5 UNK         0.1400 
     48 CB          2.2566  -13.8881  -45.1154 C.3       5 UNK        -0.1800 
     49 N          -0.0533  -14.3902  -44.4877 N.am      5 UNK        -0.5000 
     50 C          -1.0447  -14.7850  -43.6782 C.2       4 UNK         0.5000 
     51 O          -0.8793  -15.5392  -42.7189 O.2       4 UNK        -0.5000 
     52 CA         -2.4606  -14.2866  -44.0250 C.3       4 UNK         0.1400 
     53 CB         -2.6863  -12.8695  -43.4774 C.3       4 UNK        -0.1800 
     54 N          -2.7279  -14.2988  -45.4650 N.am      4 UNK        -0.5000 
     55 C          -2.8088  -15.4120  -46.2071 C.2       3 UNK         0.5000 
     56 O          -2.7038  -16.5451  -45.7431 O.2       3 UNK        -0.5000 
     57 CA         -3.0040  -15.2399  -47.7249 C.3       3 UNK         0.1400 
     58 CB         -4.4947  -15.2980  -48.0887 C.3       3 UNK        -0.1800 
     59 N          -2.4138  -14.0210  -48.2842 N.am      3 UNK        -0.5000 
     60 C          -1.1148  -13.6952  -48.2354 C.2       2 UNK         0.5000 
     61 O          -0.2736  -14.3262  -47.5885 O.2       2 UNK        -0.5000 
     62 CA         -0.7161  -12.4657  -49.0719 C.3       2 UNK         0.1400 
     63 CB         -1.2134  -11.1505  -48.4376 C.3       2 UNK        -0.1800 
     64 N           0.7178  -12.4432  -49.3779 N.am      2 UNK        -0.5000 
     65 C           1.7510  -12.0743  -48.6043 C.2       1 UNK         0.5000 
     66 O           1.6434  -11.5376  -47.5015 O.2       1 UNK        -0.5000 
     67 C          -0.2613  -23.2376  -47.7081 C.2       11 UNK         0.5000 
     68 O          -0.7768  -24.0823  -48.4416 O.2       11 UNK        -0.5000 
     69 N          -0.9269  -22.1741  -47.2294 N.am      12 UNK        -0.5000 
     70 CA         -2.3492  -21.9384  -47.4856 C.3       12 UNK         0.1400 
     71 CB         -2.7340  -20.5005  -47.1240 C.3       12 UNK        -0.1800 
     72 C          -3.2594  -22.9282  -46.7446 C.2       12 UNK         0.5000 
     73 O          -4.3097  -23.2868  -47.2763 O.2       12 UNK        -0.5000 
     74 N          -2.8316  -23.3656  -45.5523 N.am      13 UNK        -0.5000 
     75 CA         -3.5175  -24.3771  -44.7488 C.3       13 UNK         0.1400 
     76 CB         -2.9624  -24.3644  -43.3160 C.3       13 UNK        -0.1800 
     77 C          -3.4067  -25.7774  -45.3775 C.2       13 UNK         0.5000 
     78 O          -4.3908  -26.5163  -45.3827 O.2       13 UNK        -0.5000 
     79 N          -2.2272  -26.0961  -45.9312 N.am      14 UNK        -0.5000 
     80 CA         -1.9637  -27.3188  -46.6906 C.3       14 UNK         0.1400 
     81 CB         -0.4551  -27.4454  -46.9515 C.3       14 UNK        -0.1800 
     82 C          -2.7554  -27.3755  -48.0105 C.2       14 UNK         0.5000 
     83 O          -3.2896  -28.4320  -48.3502 O.2       14 UNK        -0.5000 
     84 N          -2.8382  -26.2369  -48.7156 N.am      15 UNK        -0.5000 
     85 CA         -3.6512  -26.0694  -49.9229 C.3       15 UNK         0.1400 
     86 CB         -3.2778  -24.7448  -50.6065 C.3       15 UNK        -0.1800 
     87 C          -5.1646  -26.1117  -49.6342 C.2       15 UNK         0.5000 
     88 O          -5.9234  -26.6275  -50.4549 O.2       15 UNK        -0.5000 
     89 N          -5.5614  -25.5589  -48.4776 N.am      16 UNK        -0.5000 
     90 CA         -6.9260  -25.4359  -47.9534 C.3       16 UNK         0.1400 
     91 CB         -7.5288  -26.8249  -47.6590 C.3       16 UNK        -0.1800 
     92 C          -7.8366  -24.5518  -48.8332 C.2       16 UNK         0.5000 
     93 O          -9.0484  -24.7706  -48.8852 O.2       16 UNK        -0.5000 
     94 N          -7.2336  -23.5677  -49.5126 N.am      17 UNK        -0.5000 
     95 CA         -7.8887  -22.6908  -50.4837 C.3       17 UNK         0.1400 
     96 CB         -8.0311  -23.4220  -51.8350 C.3       17 UNK        -0.1800 
     97 C          -7.1397  -21.3525  -50.6114 C.2       17 UNK         0.5000 
     98 O          -7.0080  -20.8276  -51.7181 O.2       17 UNK        -0.5000 
     99 N          -6.6161  -20.8360  -49.4873 N.am      18 UNK        -0.5000 
    100 CA        -5.8844  -19.5622  -49.3715 C.3       18 UNK         0.1400 
    101 CB        -6.8332  -18.3714  -49.6276 C.3       18 UNK        -0.1800 
    102 C         -4.6138  -19.4990  -50.2517 C.2       18 UNK         0.5000 
    103 O         -4.2730  -18.4336  -50.7659 O.2       18 UNK        -0.5000 
    104 N         -3.9734  -20.6608  -50.4610 N.am      19 UNK        -0.5000 
    105 CA        -2.8602  -20.8967  -51.3931 C.3       19 UNK         0.1400 
    106 CB        -1.5778  -20.1712  -50.9254 C.3       19 UNK        -0.1800 
    107 C         -3.2381  -20.5864  -52.8607 C.2       19 UNK         0.5000 
    108 O         -2.4103  -20.0757  -53.6151 O.2       19 UNK        -0.5000 
    109 N         -4.4999  -20.8715  -53.2224 N.am      20 UNK        -0.5000 
    110 CA        -5.1651  -20.5396  -54.4886 C.3       20 UNK         0.1400 
    111 CB        -4.4985  -21.2603  -55.6795 C.3       20 UNK        -0.1800 
    112 C         -5.2951  -19.0140  -54.6838 C.2       20 UNK         0.5000 
    113 O         -5.0533  -18.5062  -55.7798 O.2       20 UNK        -0.5000 
    114 N         -5.6499  -18.3185  -53.5907 N.am      21 UNK        -0.5000 
    115 CA        -5.6565  -16.8585  -53.4243 C.3       21 UNK         0.1400 
    116 CB        -6.7438  -16.2046  -54.3017 C.3       21 UNK        -0.1800 
    117 C         -4.2500  -16.2541  -53.6325 C.2       21 UNK         0.5000 
    118 O         -4.0935  -15.2500  -54.3296 O.2       21 UNK        -0.5000 
    119 N         -3.2545  -16.9122  -53.0268 N.am      22 UNK        -0.5000 
    120 CA        -1.8119  -16.6987  -53.1962 C.3       22 UNK         0.1400 
    121 C         -1.3408  -16.8308  -54.6764 C.2       22 UNK         0.5000 
    122 N         -1.4969  -18.0045  -55.2722 N.am      22 UNK        -0.7600 
    123 O         -0.8358  -15.8936  -55.2892 O.2       22 UNK        -0.5000 
    124 C124       -1.2880  -15.4299  -52.4536 C.3       23 UNK        -0.0398 
    125 S125       -0.2038  -15.8678  -51.0564 S.3       23 UNK        -0.2404 
    126 C126        1.2792  -16.4412  -51.9412 C.3       23 UNK        -0.0205 
    127 H127        2.1151  -11.7772  -53.4871 H         1 UNK         0.0600 
    128 H128        3.8511  -11.4479  -53.4939 H         1 UNK         0.0600 
    129 H129        3.2599  -13.0662  -53.1065 H         1 UNK         0.0600 
    130 H130        3.4241  -13.4868  -50.9337 H         1 UNK         0.3000 
    131 H131        3.7847  -11.5041  -48.9390 H         1 UNK         0.0600 
    132 H132        3.0394  -14.3918  -48.3096 H         1 UNK         0.0800 
    133 H133        3.9938  -13.2850  -47.3631 H         1 UNK         0.0800 
    134 H134        4.9693  -16.1083  -47.5958 H         1 UNK         0.0800 
    135 H135        6.1523  -16.4820  -48.8236 H         1 UNK         0.0800 
    136 H136        3.2351  -15.2384  -50.5495 H         1 UNK         0.1150 
    137 H137        1.4972  -19.0688  -51.2366 H         1 UNK         0.1150 
    138 H138        4.7771  -18.6850  -48.5065 H         1 UNK         0.1150 
    139 H139        2.6439  -21.0459  -50.4560 H         1 UNK         0.0800 
    140 H140        4.1458  -20.9217  -49.5679 H         1 UNK         0.0800 
    141 H141        3.2299  -23.1223  -47.9027 H         1 UNK         0.0800 
    142 H142        2.0654  -23.0827  -49.1950 H         1 UNK         0.0800 
    143 H143        1.3811  -24.5106  -47.2866 H         1 UNK         0.0600 
    144 H144        1.8096  -22.1673  -45.6474 H         1 UNK         0.3000 
    145 H145        0.0251  -22.8601  -43.0553 H         1 UNK         0.0600 
    146 H146        1.6129  -23.8121  -41.3731 H         1 UNK         0.0600 
    147 H147        0.8126  -25.0579  -42.3163 H         1 UNK         0.0600 
    148 H148        2.4818  -24.6406  -42.6660 H         1 UNK         0.0600 
    149 H149        1.3072  -21.1023  -43.0915 H         1 UNK         0.3000 
    150 H150        4.6055  -20.4115  -42.7117 H         1 UNK         0.0600 
    151 H151        4.8669  -20.4508  -45.1935 H         1 UNK         0.0600 
    152 H152        4.5736  -18.8128  -44.6289 H         1 UNK         0.0600 
    153 H153        3.2758  -19.7298  -45.3894 H         1 UNK         0.0600 
    154 H154        2.3653  -18.7165  -43.3435 H         1 UNK         0.3000 
    155 H155        0.8386  -18.8193  -40.1154 H         1 UNK         0.0600 
    156 H156        2.2840  -16.5896  -41.6420 H         1 UNK         0.0600 
    157 H157        2.5311  -17.0241  -39.9580 H         1 UNK         0.0600 
    158 H158        0.9892  -16.3539  -40.4703 H         1 UNK         0.0600 
    159 H159        0.1010  -17.5216  -42.5520 H         1 UNK         0.3000 
    160 H160       -1.7788  -20.2589  -43.9105 H         1 UNK         0.0600 
    161 H161       -3.5430  -18.5311  -43.9493 H         1 UNK         0.0600 
    162 H162       -2.6608  -17.5547  -42.7779 H         1 UNK         0.0600 
    163 H163       -3.3111  -19.1210  -42.3109 H         1 UNK         0.0600 
    164 H164       -1.2637  -17.5793  -44.8245 H         1 UNK         0.3000 
    165 H165        1.7332  -18.3495  -46.6147 H         1 UNK         0.0600 
    166 H166        0.4567  -17.3176  -48.4887 H         1 UNK         0.0600 
    167 H167        0.0068  -18.9969  -48.2549 H         1 UNK         0.0600 
    168 H168       -1.0597  -17.7208  -47.6862 H         1 UNK         0.0600 
    169 H169        0.2246  -15.9420  -46.4062 H         1 UNK         0.3000 
    170 H170        1.6110  -14.8186  -43.3030 H         1 UNK         0.0600 
    171 H171        3.2982  -14.2006  -45.0318 H         1 UNK         0.0600 
    172 H172        1.9998  -13.8616  -46.1722 H         1 UNK         0.0600 
    173 H173        2.1846  -12.8721  -44.7271 H         1 UNK         0.0600 
    174 H174       -0.2733  -13.8324  -45.3019 H         1 UNK         0.3000 
    175 H175       -3.1751  -14.9567  -43.5420 H         1 UNK         0.0600 
    176 H176       -3.7116  -12.5401  -43.6470 H         1 UNK         0.0600 
    177 H177       -2.5085  -12.8343  -42.4017 H         1 UNK         0.0600 
    178 H178       -2.0187  -12.1444  -43.9446 H         1 UNK         0.0600 
    179 H179       -2.8215  -13.4054  -45.9249 H         1 UNK         0.3000 
    180 H180       -2.5144  -16.0825  -48.2144 H         1 UNK         0.0600 
    181 H181       -5.0412  -14.4433  -47.6886 H         1 UNK         0.0600 
    182 H182       -4.9581  -16.2012  -47.6891 H         1 UNK         0.0600 
    183 H183       -4.6361  -15.3153  -49.1698 H         1 UNK         0.0600 
    184 H184       -3.0372  -13.4396  -48.8251 H         1 UNK         0.3000 
    185 H185       -1.2077  -12.5702  -50.0404 H         1 UNK         0.0600 
    186 H186       -0.8876  -11.0456  -47.4024 H         1 UNK         0.0600 
    187 H187       -0.8568  -10.2833  -48.9934 H         1 UNK         0.0600 
    188 H188       -2.3028  -11.1066  -48.4351 H         1 UNK         0.0600 
    189 H189        0.9613  -12.8878  -50.2510 H         1 UNK         0.3000 
    190 H190       -0.4363  -21.5177  -46.6290 H         1 UNK         0.3000 
    191 H191       -2.5265  -22.0773  -48.5523 H         1 UNK         0.0600 
    192 H192       -2.2288  -19.7803  -47.7636 H         1 UNK         0.0600 
    193 H193       -2.5002  -20.2702  -46.0884 H         1 UNK         0.0600 
    194 H194       -3.8039  -20.3431  -47.2431 H         1 UNK         0.0600 
    195 H195       -1.9428  -23.0357  -45.2101 H         1 UNK         0.3000 
    196 H196       -4.5767  -24.1140  -44.7030 H         1 UNK         0.0600 
    197 H197       -3.5109  -25.0629  -42.6830 H         1 UNK         0.0600 
    198 H198       -3.0547  -23.3763  -42.8646 H         1 UNK         0.0600 
    199 H199       -1.9120  -24.6525  -43.2820 H         1 UNK         0.0600 
    200 H200       -1.4422  -25.4650  -45.8055 H         1 UNK         0.3000 
    201 H201       -2.2747  -28.1675  -46.0779 H         1 UNK         0.0600 
    202 H202        0.1058  -27.4666  -46.0170 H         1 UNK         0.0600 
    203 H203       -0.0775  -26.6151  -47.5486 H         1 UNK         0.0600 
    204 H204       -0.2279  -28.3668  -47.4890 H         1 UNK         0.0600 
    205 H205       -2.2971  -25.4339  -48.4126 H         1 UNK         0.3000 
    206 H206       -3.4177  -26.8867  -50.6085 H         1 UNK         0.0600 
    207 H207       -2.2228  -24.7271  -50.8808 H         1 UNK         0.0600 
    208 H208       -3.8549  -24.5982  -51.5205 H         1 UNK         0.0600 
    209 H209       -3.4676  -23.8921  -49.9552 H         1 UNK         0.0600 
    210 H210       -4.8558  -25.0968  -47.9143 H         1 UNK         0.3000 
    211 H211       -6.8317  -24.9129  -47.0006 H         1 UNK         0.0600 
    212 H212       -7.7187  -27.3874  -48.5734 H         1 UNK         0.0600 
    213 H213       -8.4765  -26.7360  -47.1269 H         1 UNK         0.0600 
    214 H214       -6.8608  -27.4168  -47.0328 H         1 UNK         0.0600 
    215 H215       -6.2369  -23.4551  -49.3962 H         1 UNK         0.3000 
    216 H216       -8.8878  -22.4420  -50.1204 H         1 UNK         0.0600 
    217 H217       -8.5482  -22.8019  -52.5683 H         1 UNK         0.0600 
    218 H218       -8.6078  -24.3411  -51.7311 H         1 UNK         0.0600 
    219 H219       -7.0577  -23.6850  -52.2507 H         1 UNK         0.0600 
    220 H220       -6.7725  -21.3331  -48.6209 H         1 UNK         0.3000 
    221 H221       -5.5507  -19.4853  -48.3378 H         1 UNK         0.0600 
    222 H222       -7.1838  -18.3431  -50.6595 H         1 UNK         0.0600 
    223 H223       -7.7079  -18.4192  -48.9790 H         1 UNK         0.0600 
    224 H224       -6.3366  -17.4216  -49.4278 H         1 UNK         0.0600 
    225 H225       -4.3506  -21.4801  -50.0099 H         1 UNK         0.3000 
    226 H226       -2.6512  -21.9663  -51.3660 H         1 UNK         0.0600 
    227 H227       -1.2746  -20.5032  -49.9336 H         1 UNK         0.0600 
    228 H228       -0.7418  -20.3771  -51.5945 H         1 UNK         0.0600 
    229 H229       -1.7060  -19.0897  -50.8872 H         1 UNK         0.0600 
    230 H230       -5.1293  -21.2198  -52.5097 H         1 UNK         0.3000 
    231 H231       -6.1837  -20.9217  -54.4069 H         1 UNK         0.0600 
    232 H232       -4.4202  -22.3321  -55.4976 H         1 UNK         0.0600 
    233 H233       -3.4970  -20.8793  -55.8804 H         1 UNK         0.0600 
    234 H234       -5.0841  -21.1279  -56.5898 H         1 UNK         0.0600 
    235 H235       -5.8226  -18.8484  -52.7468 H         1 UNK         0.3000 
    236 H236       -5.9181  -16.6696  -52.3821 H         1 UNK         0.0600 
    237 H237       -6.8295  -15.1393  -54.0847 H         1 UNK         0.0600 
    238 H238       -6.5240  -16.3035  -55.3650 H         1 UNK         0.0600 
    239 H239       -7.7202  -16.6526  -54.1176 H         1 UNK         0.0600 
    240 H240       -3.5110  -17.6802  -52.4146 H         1 UNK         0.3000 
    241 H241       -1.3761  -17.5730  -52.7126 H         1 UNK         0.0600 
    242 H242       -1.2109  -18.1222  -56.2305 H         1 UNK         0.3800 
    243 H243       -1.8882  -18.7931  -54.7573 H         1 UNK         0.3800 
    244 H244       -0.7460  -14.7412  -53.1024 H         1 UNK         0.0800 
    245 H245       -2.1170  -14.8456  -52.0526 H         1 UNK         0.0800 
    246 H246        1.0036  -17.1628  -52.7107 H         1 UNK         0.0800 
    247 H247        1.7407  -15.6000  -52.4606 H         1 UNK         0.0800 
@<TRIPOS>BOND
     1    1    2 1    
     2    1  127 1    
     3    1  128 1    
     4    1  129 1    
     5    2    3 2    
     6    2    4 am   BACKBONE|DICT|INTERRES
     7    4    5 1    
     8    4  130 1    
     9    5    6 1    
    10    5   65 1    
    11    5  131 1    
    12    6    7 1    
    13    6  132 1    
    14    6  133 1    
    15    7    8 1    
    16    8    9 1    
    17    8  134 1    
    18    8  135 1    
    19    9   10 ar   
    20    9   14 ar   
    21   10   11 ar   
    22   10  136 1    
    23   11   12 ar   
    24   11  126 1    
    25   12   13 ar   
    26   12  137 1    
    27   13   14 ar   
    28   13   15 1    
    29   14  138 1    
    30   15   16 1    
    31   15  139 1    
    32   15  140 1    
    33   16   17 1    
    34   17   18 1    
    35   17  141 1    
    36   17  142 1    
    37   18   19 1    
    38   18   67 1    
    39   18  143 1    
    40   19   20 am   BACKBONE|DICT|INTERRES
    41   19  144 1    
    42   20   21 2    
    43   20   22 1    
    44   22   23 1    
    45   22   24 1    
    46   22  145 1    
    47   23  146 1    
    48   23  147 1    
    49   23  148 1    
    50   24   25 am   BACKBONE|DICT|INTERRES
    51   24  149 1    
    52   25   26 2    
    53   25   27 1    
    54   27   28 1    
    55   27   29 1    
    56   27  150 1    
    57   28  151 1    
    58   28  152 1    
    59   28  153 1    
    60   29   30 am   BACKBONE|DICT|INTERRES
    61   29  154 1    
    62   30   31 2    
    63   30   32 1    
    64   32   33 1    
    65   32   34 1    
    66   32  155 1    
    67   33  156 1    
    68   33  157 1    
    69   33  158 1    
    70   34   35 am   BACKBONE|DICT|INTERRES
    71   34  159 1    
    72   35   36 2    
    73   35   37 1    
    74   37   38 1    
    75   37   39 1    
    76   37  160 1    
    77   38  161 1    
    78   38  162 1    
    79   38  163 1    
    80   39   40 am   BACKBONE|DICT|INTERRES
    81   39  164 1    
    82   40   41 2    
    83   40   42 1    
    84   42   43 1    
    85   42   44 1    
    86   42  165 1    
    87   43  166 1    
    88   43  167 1    
    89   43  168 1    
    90   44   45 am   BACKBONE|DICT|INTERRES
    91   44  169 1    
    92   45   46 2    
    93   45   47 1    
    94   47   48 1    
    95   47   49 1    
    96   47  170 1    
    97   48  171 1    
    98   48  172 1    
    99   48  173 1    
   100   49   50 am   BACKBONE|DICT|INTERRES
   101   49  174 1    
   102   50   51 2    
   103   50   52 1    
   104   52   53 1    
   105   52   54 1    
   106   52  175 1    
   107   53  176 1    
   108   53  177 1    
   109   53  178 1    
   110   54   55 am   BACKBONE|DICT|INTERRES
   111   54  179 1    
   112   55   56 2    
   113   55   57 1    
   114   57   58 1    
   115   57   59 1    
   116   57  180 1    
   117   58  181 1    
   118   58  182 1    
   119   58  183 1    
   120   59   60 am   BACKBONE|DICT|INTERRES
   121   59  184 1    
   122   60   61 2    
   123   60   62 1    
   124   62   63 1    
   125   62   64 1    
   126   62  185 1    
   127   63  186 1    
   128   63  187 1    
   129   63  188 1    
   130   64   65 am   BACKBONE|DICT|INTERRES
   131   64  189 1    
   132   65   66 2    
   133   67   68 2    
   134   67   69 am   BACKBONE|DICT|INTERRES
   135   69   70 1    
   136   69  190 1    
   137   70   71 1    
   138   70   72 1    
   139   70  191 1    
   140   71  192 1    
   141   71  193 1    
   142   71  194 1    
   143   72   73 2    
   144   72   74 am   BACKBONE|DICT|INTERRES
   145   74   75 1    
   146   74  195 1    
   147   75   76 1    
   148   75   77 1    
   149   75  196 1    
   150   76  197 1    
   151   76  198 1    
   152   76  199 1    
   153   77   78 2    
   154   77   79 am   BACKBONE|DICT|INTERRES
   155   79   80 1    
   156   79  200 1    
   157   80   81 1    
   158   80   82 1    
   159   80  201 1    
   160   81  202 1    
   161   81  203 1    
   162   81  204 1    
   163   82   83 2    
   164   82   84 am   BACKBONE|DICT|INTERRES
   165   84   85 1    
   166   84  205 1    
   167   85   86 1    
   168   85   87 1    
   169   85  206 1    
   170   86  207 1    
   171   86  208 1    
   172   86  209 1    
   173   87   88 2    
   174   87   89 am   BACKBONE|DICT|INTERRES
   175   89   90 1    
   176   89  210 1    
   177   90   91 1    
   178   90   92 1    
   179   90  211 1    
   180   91  212 1    
   181   91  213 1    
   182   91  214 1    
   183   92   93 2    
   184   92   94 am   BACKBONE|DICT|INTERRES
   185   94   95 1    
   186   94  215 1    
   187   95   96 1    
   188   95   97 1    
   189   95  216 1    
   190   96  217 1    
   191   96  218 1    
   192   96  219 1    
   193   97   98 2    
   194   97   99 am   BACKBONE|DICT|INTERRES
   195   99  100 1    
   196   99  220 1    
   197  100  101 1    
   198  100  102 1    
   199  100  221 1    
   200  101  222 1    
   201  101  223 1    
   202  101  224 1    
   203  102  103 2    
   204  102  104 am   BACKBONE|DICT|INTERRES
   205  104  105 1    
   206  104  225 1    
   207  105  106 1    
   208  105  107 1    
   209  105  226 1    
   210  106  227 1    
   211  106  228 1    
   212  106  229 1    
   213  107  108 2    
   214  107  109 am   BACKBONE|DICT|INTERRES
   215  109  110 1    
   216  109  230 1    
   217  110  111 1    
   218  110  112 1    
   219  110  231 1    
   220  111  232 1    
   221  111  233 1    
   222  111  234 1    
   223  112  113 2    
   224  112  114 am   BACKBONE|DICT|INTERRES
   225  114  115 1    
   226  114  235 1    
   227  115  116 1    
   228  115  117 1    
   229  115  236 1    
   230  116  237 1    
   231  116  238 1    
   232  116  239 1    
   233  117  118 2    
   234  117  119 am   BACKBONE|DICT|INTERRES
   235  119  120 1    
   236  119  240 1    
   237  120  121 1    
   238  120  124 1    
   239  120  241 1    
   240  121  122 am   BACKBONE|DICT|INTERRES
   241  121  123 2    
   242  122  242 1    
   243  122  243 1    
   244  124  125 1    
   245  124  244 1    
   246  124  245 1    
   247  125  126 1    
   248  126  246 1    
   249  126  247 1    
@<TRIPOS>SUBSTRUCTURE
     1 UNK         1 GROUP             0       ****    0 ROOT    
