@<TRIPOS>MOLECULE
3R540
247   249    1
SMALL
USER_CHARGES


@<TRIPOS>ATOM
      1 CA          4.0766  -12.5172  -47.4530 C.3       0 UNK        -0.1800 
      2 C           3.8012  -13.0995  -48.8314 C.2       0 UNK         0.5000 
      3 O           4.7067  -13.1497  -49.6637 O.2       0 UNK        -0.5000 
      4 N           2.5582  -13.5308  -49.0782 N.am      1 UNK        -0.5000 
      5 CA          2.1196  -14.1187  -50.3513 C.3       1 UNK         0.1400 
      6 C6          0.5801  -14.1600  -50.5065 C.3       23 UNK        -0.0398 
      7 S7         -0.2436  -12.5687  -50.1680 S.3       23 UNK        -0.2404 
      8 C8         -1.0801  -12.9380  -48.5916 C.3       23 UNK        -0.0205 
      9 C9         -2.1548  -14.0079  -48.7400 C.ar      23 UNK        -0.0193 
     10 C10        -3.2782  -13.7651  -49.5366 C.ar      23 UNK        -0.1150 
     11 C11        -4.2644  -14.7432  -49.6880 C.ar      23 UNK        -0.0193 
     12 C12        -4.1425  -15.9546  -49.0038 C.ar      23 UNK        -0.1150 
     13 C13        -3.0355  -16.2033  -48.1913 C.ar      23 UNK        -0.0193 
     14 C14        -2.0337  -15.2358  -48.0783 C.ar      23 UNK        -0.1150 
     15 C15        -2.9582  -17.4969  -47.4001 C.3       23 UNK        -0.0205 
     16 S16        -2.0201  -18.7972  -48.2630 S.3       23 UNK        -0.2404 
     17 C17        -2.6029  -20.2282  -47.2986 C.3       23 UNK        -0.0398 
     18 CA         -1.7342  -21.5088  -47.4001 C.3       11 UNK         0.1400 
     19 N          -0.3252  -21.2670  -47.0657 N.am      11 UNK        -0.5000 
     20 C           0.6326  -22.1979  -46.9168 C.2       10 UNK         0.5000 
     21 O           0.4749  -23.3840  -47.2018 O.2       10 UNK        -0.5000 
     22 CA          1.9624  -21.7612  -46.2645 C.3       10 UNK         0.1400 
     23 CB          3.1295  -21.8450  -47.2581 C.3       10 UNK        -0.1800 
     24 N           1.9154  -20.4204  -45.6798 N.am      10 UNK        -0.5000 
     25 C           1.1595  -20.0585  -44.6370 C.2       9 UNK         0.5000 
     26 O           0.4460  -20.8414  -44.0031 O.2       9 UNK        -0.5000 
     27 CA          1.1081  -18.5477  -44.3625 C.3       9 UNK         0.1400 
     28 CB          0.2009  -17.8786  -45.4044 C.3       9 UNK        -0.1800 
     29 N           0.5878  -18.2399  -43.0340 N.am      9 UNK        -0.5000 
     30 C           1.2533  -18.4361  -41.8878 C.2       8 UNK         0.5000 
     31 O           2.4017  -18.8787  -41.8349 O.2       8 UNK        -0.5000 
     32 CA          0.5390  -18.0458  -40.5788 C.3       8 UNK         0.1400 
     33 CB          1.1077  -16.7274  -40.0303 C.3       8 UNK        -0.1800 
     34 N          -0.9092  -17.9072  -40.7388 N.am      8 UNK        -0.5000 
     35 C          -1.7656  -18.9371  -40.7908 C.2       7 UNK         0.5000 
     36 O          -1.4267  -20.1098  -40.6327 O.2       7 UNK        -0.5000 
     37 CA         -3.2500  -18.6141  -41.0606 C.3       7 UNK         0.1400 
     38 CB         -4.0726  -18.7487  -39.7697 C.3       7 UNK        -0.1800 
     39 N          -3.4849  -17.2846  -41.6324 N.am      7 UNK        -0.5000 
     40 C          -3.1165  -16.8990  -42.8611 C.2       6 UNK         0.5000 
     41 O          -2.5121  -17.6344  -43.6427 O.2       6 UNK        -0.5000 
     42 CA         -3.4810  -15.4615  -43.2968 C.3       6 UNK         0.1400 
     43 CB         -3.9055  -14.5382  -42.1318 C.3       6 UNK        -0.1800 
     44 N          -2.4188  -14.8288  -44.0863 N.am      6 UNK        -0.5000 
     45 C          -1.1546  -14.6074  -43.7004 C.2       5 UNK         0.5000 
     46 O          -0.7037  -14.9037  -42.5904 O.2       5 UNK        -0.5000 
     47 CA         -0.2496  -13.9253  -44.7374 C.3       5 UNK         0.1400 
     48 CB         -0.4733  -12.4051  -44.7508 C.3       5 UNK        -0.1800 
     49 N           1.1493  -14.1981  -44.4259 N.am      5 UNK        -0.5000 
     50 C           2.0471  -14.7177  -45.2685 C.2       4 UNK         0.5000 
     51 O           1.8096  -14.9731  -46.4548 O.2       4 UNK        -0.5000 
     52 CA          3.4496  -14.9917  -44.6954 C.3       4 UNK         0.1400 
     53 CB          3.4407  -15.4367  -43.2179 C.3       4 UNK        -0.1800 
     54 N           4.1025  -15.9959  -45.5265 N.am      4 UNK        -0.5000 
     55 C           5.4172  -16.1770  -45.6734 C.2       3 UNK         0.5000 
     56 O           6.2648  -15.5294  -45.0580 O.2       3 UNK        -0.5000 
     57 CA          5.8775  -17.2294  -46.7043 C.3       3 UNK         0.1400 
     58 CB          6.1071  -18.6005  -46.0372 C.3       3 UNK        -0.1800 
     59 N           5.0131  -17.3348  -47.8912 N.am      3 UNK        -0.5000 
     60 C           3.7834  -17.8566  -47.9869 C.2       2 UNK         0.5000 
     61 O           3.1690  -18.3451  -47.0392 O.2       2 UNK        -0.5000 
     62 CA          3.0947  -17.6887  -49.3437 C.3       2 UNK         0.1400 
     63 CB          1.8655  -18.5979  -49.5315 C.3       2 UNK        -0.1800 
     64 N           2.6738  -16.2993  -49.4203 N.am      2 UNK        -0.5000 
     65 C           2.6794  -15.5427  -50.5228 C.2       1 UNK         0.5000 
     66 O           3.0982  -15.9157  -51.6195 O.2       1 UNK        -0.5000 
     67 C          -2.3687  -22.5802  -46.4859 C.2       11 UNK         0.5000 
     68 O          -3.0658  -23.4668  -46.9764 O.2       11 UNK        -0.5000 
     69 N          -2.0970  -22.4812  -45.1751 N.am      12 UNK        -0.5000 
     70 CA         -2.6165  -23.3873  -44.1514 C.3       12 UNK         0.1400 
     71 CB         -2.4525  -22.7295  -42.7731 C.3       12 UNK        -0.1800 
     72 C          -1.9426  -24.7708  -44.1782 C.2       12 UNK         0.5000 
     73 O          -2.5866  -25.7624  -43.8348 O.2       12 UNK        -0.5000 
     74 N          -0.6687  -24.8154  -44.5922 N.am      13 UNK        -0.5000 
     75 CA          0.0987  -26.0477  -44.7682 C.3       13 UNK         0.1400 
     76 CB          1.6005  -25.7212  -44.7943 C.3       13 UNK        -0.1800 
     77 C          -0.3258  -26.8015  -46.0405 C.2       13 UNK         0.5000 
     78 O          -0.4628  -28.0249  -46.0051 O.2       13 UNK        -0.5000 
     79 N          -0.5402  -26.0550  -47.1329 N.am      14 UNK        -0.5000 
     80 CA         -1.0272  -26.5671  -48.4122 C.3       14 UNK         0.1400 
     81 CB         -0.8550  -25.4844  -49.4892 C.3       14 UNK        -0.1800 
     82 C          -2.4923  -27.0317  -48.3394 C.2       14 UNK         0.5000 
     83 O          -2.8186  -28.0898  -48.8801 O.2       14 UNK        -0.5000 
     84 N          -3.3371  -26.2315  -47.6707 N.am      15 UNK        -0.5000 
     85 CA         -4.7859  -26.3613  -47.4765 C.3       15 UNK         0.1400 
     86 CB         -5.1502  -27.6574  -46.7275 C.3       15 UNK        -0.1800 
     87 C          -5.5891  -26.2008  -48.7813 C.2       15 UNK         0.5000 
     88 O          -6.4477  -25.3217  -48.8667 O.2       15 UNK        -0.5000 
     89 N          -5.2777  -27.0303  -49.7817 N.am      16 UNK        -0.5000 
     90 CA         -5.7463  -26.9018  -51.1567 C.3       16 UNK         0.1400 
     91 CB         -5.5544  -28.2482  -51.8711 C.3       16 UNK        -0.1800 
     92 C          -4.9736  -25.7884  -51.8867 C.2       16 UNK         0.5000 
     93 O          -3.8139  -25.5275  -51.5579 O.2       16 UNK        -0.5000 
     94 N          -5.6301  -25.1726  -52.8797 N.am      17 UNK        -0.5000 
     95 CA         -5.1118  -24.1069  -53.7490 C.3       17 UNK         0.1400 
     96 CB         -3.9511  -24.6235  -54.6251 C.3       17 UNK        -0.1800 
     97 C          -4.7567  -22.8011  -53.0036 C.2       17 UNK         0.5000 
     98 O          -3.9394  -22.0177  -53.4899 O.2       17 UNK        -0.5000 
     99 N          -5.4115  -22.5509  -51.8599 N.am      18 UNK        -0.5000 
    100 CA        -5.2185  -21.3571  -51.0296 C.3       18 UNK         0.1400 
    101 CB        -6.0145  -21.5109  -49.7254 C.3       18 UNK        -0.1800 
    102 C         -5.5810  -20.0381  -51.7445 C.2       18 UNK         0.5000 
    103 O         -5.0043  -19.0014  -51.4248 O.2       18 UNK        -0.5000 
    104 N         -6.4952  -20.1083  -52.7232 N.am      19 UNK        -0.5000 
    105 CA        -6.8666  -18.9947  -53.5981 C.3       19 UNK         0.1400 
    106 CB        -8.1855  -19.3350  -54.3082 C.3       19 UNK        -0.1800 
    107 C         -5.7747  -18.6447  -54.6299 C.2       19 UNK         0.5000 
    108 O         -5.6760  -17.4861  -55.0331 O.2       19 UNK        -0.5000 
    109 N         -4.9698  -19.6373  -55.0380 N.am      20 UNK        -0.5000 
    110 CA        -3.8150  -19.4448  -55.9187 C.3       20 UNK         0.1400 
    111 CB        -3.4956  -20.7560  -56.6529 C.3       20 UNK        -0.1800 
    112 C         -2.5936  -18.9461  -55.1279 C.2       20 UNK         0.5000 
    113 O         -1.8212  -18.1353  -55.6421 O.2       20 UNK        -0.5000 
    114 N         -2.4732  -19.3950  -53.8693 N.am      21 UNK        -0.5000 
    115 CA        -1.4462  -18.9842  -52.9075 C.3       21 UNK         0.1400 
    116 CB        -1.5402  -19.8741  -51.6600 C.3       21 UNK        -0.1800 
    117 C         -1.4865  -17.4856  -52.5327 C.2       21 UNK         0.5000 
    118 O         -0.4966  -16.9786  -52.0061 O.2       21 UNK        -0.5000 
    119 N         -2.5878  -16.7923  -52.8586 N.am      22 UNK        -0.5000 
    120 CA        -2.6900  -15.3241  -52.8433 C.3       22 UNK         0.1400 
    121 C         -1.7359  -14.6036  -53.8451 C.2       22 UNK         0.5000 
    122 N         -1.2119  -15.2681  -54.8704 N.am      22 UNK        -0.7600 
    123 O         -1.4728  -13.4145  -53.6937 O.2       22 UNK        -0.5000 
    124 C124       -4.1404  -14.8181  -53.0787 C.3       23 UNK        -0.0398 
    125 S125       -5.4243  -15.5979  -52.0434 S.3       23 UNK        -0.2404 
    126 C126       -5.4633  -14.5041  -50.5900 C.3       23 UNK        -0.0205 
    127 H127        4.7715  -13.1573  -46.9103 H         1 UNK         0.0600 
    128 H128        3.1639  -12.4170  -46.8657 H         1 UNK         0.0600 
    129 H129        4.5258  -11.5286  -47.5467 H         1 UNK         0.0600 
    130 H130        1.8696  -13.5066  -48.3391 H         1 UNK         0.3000 
    131 H131        2.5190  -13.5030  -51.1603 H         1 UNK         0.0600 
    132 H132        0.3247  -14.4438  -51.5285 H         1 UNK         0.0800 
    133 H133        0.1485  -14.9361  -49.8729 H         1 UNK         0.0800 
    134 H134       -0.3327  -13.2340  -47.8551 H         1 UNK         0.0800 
    135 H135       -1.5395  -12.0241  -48.2126 H         1 UNK         0.0800 
    136 H136       -3.3694  -12.8218  -50.0568 H         1 UNK         0.1150 
    137 H137       -4.9104  -16.7083  -49.1126 H         1 UNK         0.1150 
    138 H138       -1.1643  -15.4469  -47.4740 H         1 UNK         0.1150 
    139 H139       -2.5132  -17.3019  -46.4248 H         1 UNK         0.0800 
    140 H140       -3.9689  -17.8560  -47.1997 H         1 UNK         0.0800 
    141 H141       -3.6219  -20.4428  -47.6270 H         1 UNK         0.0800 
    142 H142       -2.6824  -19.9107  -46.2562 H         1 UNK         0.0800 
    143 H143       -1.7678  -21.8766  -48.4276 H         1 UNK         0.0600 
    144 H144       -0.0886  -20.3131  -46.8398 H         1 UNK         0.3000 
    145 H145        2.1621  -22.4658  -45.4548 H         1 UNK         0.0600 
    146 H146        4.0770  -21.6104  -46.7724 H         1 UNK         0.0600 
    147 H147        3.2176  -22.8490  -47.6752 H         1 UNK         0.0600 
    148 H148        3.0028  -21.1544  -48.0893 H         1 UNK         0.0600 
    149 H149        2.4355  -19.6954  -46.1751 H         1 UNK         0.3000 
    150 H150        2.1160  -18.1375  -44.4480 H         1 UNK         0.0600 
    151 H151        0.6396  -17.9100  -46.4011 H         1 UNK         0.0600 
    152 H152        0.0163  -16.8341  -45.1686 H         1 UNK         0.0600 
    153 H153       -0.7637  -18.3808  -45.4561 H         1 UNK         0.0600 
    154 H154       -0.3725  -17.9229  -42.9919 H         1 UNK         0.3000 
    155 H155        0.7403  -18.8313  -39.8473 H         1 UNK         0.0600 
    156 H156        0.9537  -15.9015  -40.7252 H         1 UNK         0.0600 
    157 H157        2.1809  -16.8087  -39.8535 H         1 UNK         0.0600 
    158 H158        0.6421  -16.4602  -39.0815 H         1 UNK         0.0600 
    159 H159       -1.2605  -16.9730  -40.8968 H         1 UNK         0.3000 
    160 H160       -3.6143  -19.3552  -41.7752 H         1 UNK         0.0600 
    161 H161       -3.7657  -18.0187  -39.0197 H         1 UNK         0.0600 
    162 H162       -3.9532  -19.7403  -39.3308 H         1 UNK         0.0600 
    163 H163       -5.1363  -18.6075  -39.9622 H         1 UNK         0.0600 
    164 H164       -3.9688  -16.6218  -41.0441 H         1 UNK         0.3000 
    165 H165       -4.3363  -15.5618  -43.9663 H         1 UNK         0.0600 
    166 H166       -4.1275  -13.5340  -42.4932 H         1 UNK         0.0600 
    167 H167       -4.8091  -14.9029  -41.6422 H         1 UNK         0.0600 
    168 H168       -3.1256  -14.4497  -41.3744 H         1 UNK         0.0600 
    169 H169       -2.6852  -14.5687  -45.0250 H         1 UNK         0.3000 
    170 H170       -0.5037  -14.3272  -45.7159 H         1 UNK         0.0600 
    171 H171       -1.5062  -12.1612  -45.0022 H         1 UNK         0.0600 
    172 H172       -0.2557  -11.9583  -43.7799 H         1 UNK         0.0600 
    173 H173        0.1633  -11.9213  -45.4919 H         1 UNK         0.0600 
    174 H174        1.3909  -14.0953  -43.4498 H         1 UNK         0.3000 
    175 H175        4.0085  -14.0577  -44.7722 H         1 UNK         0.0600 
    176 H176        2.8116  -16.3113  -43.0682 H         1 UNK         0.0600 
    177 H177        4.4431  -15.6890  -42.8721 H         1 UNK         0.0600 
    178 H178        3.0727  -14.6470  -42.5625 H         1 UNK         0.0600 
    179 H179        3.4771  -16.5620  -46.0899 H         1 UNK         0.3000 
    180 H180        6.8431  -16.8881  -47.0807 H         1 UNK         0.0600 
    181 H181        6.4457  -19.3414  -46.7614 H         1 UNK         0.0600 
    182 H182        5.2043  -18.9836  -45.5608 H         1 UNK         0.0600 
    183 H183        6.8720  -18.5290  -45.2632 H         1 UNK         0.0600 
    184 H184        5.3906  -16.8972  -48.7204 H         1 UNK         0.3000 
    185 H185        3.8236  -17.9150  -50.1247 H         1 UNK         0.0600 
    186 H186        1.3868  -18.4093  -50.4923 H         1 UNK         0.0600 
    187 H187        2.1459  -19.6494  -49.5171 H         1 UNK         0.0600 
    188 H188        1.1159  -18.4396  -48.7557 H         1 UNK         0.0600 
    189 H189        2.3545  -15.8886  -48.5503 H         1 UNK         0.3000 
    190 H190       -1.4715  -21.7525  -44.8525 H         1 UNK         0.3000 
    191 H191       -3.6833  -23.5358  -44.3325 H         1 UNK         0.0600 
    192 H192       -2.8498  -23.3684  -41.9834 H         1 UNK         0.0600 
    193 H193       -2.9866  -21.7805  -42.7223 H         1 UNK         0.0600 
    194 H194       -1.4045  -22.5336  -42.5415 H         1 UNK         0.0600 
    195 H195       -0.2276  -23.9563  -44.8840 H         1 UNK         0.3000 
    196 H196       -0.0888  -26.6992  -43.9119 H         1 UNK         0.0600 
    197 H197        1.8663  -25.0887  -45.6414 H         1 UNK         0.0600 
    198 H198        1.9088  -25.2087  -43.8829 H         1 UNK         0.0600 
    199 H199        2.1935  -26.6333  -44.8706 H         1 UNK         0.0600 
    200 H200       -0.3360  -25.0595  -47.0918 H         1 UNK         0.3000 
    201 H201       -0.4144  -27.4267  -48.6914 H         1 UNK         0.0600 
    202 H202       -1.4303  -24.5875  -49.2555 H         1 UNK         0.0600 
    203 H203       -1.1909  -25.8448  -50.4624 H         1 UNK         0.0600 
    204 H204        0.1903  -25.1925  -49.5917 H         1 UNK         0.0600 
    205 H205       -2.9663  -25.3476  -47.3324 H         1 UNK         0.3000 
    206 H206       -5.0670  -25.5270  -46.8318 H         1 UNK         0.0600 
    207 H207       -4.6167  -27.7236  -45.7790 H         1 UNK         0.0600 
    208 H208       -6.2172  -27.6879  -46.5041 H         1 UNK         0.0600 
    209 H209       -4.9146  -28.5502  -47.3069 H         1 UNK         0.0600 
    210 H210       -4.4889  -27.6528  -49.6279 H         1 UNK         0.3000 
    211 H211       -6.8100  -26.6548  -51.1485 H         1 UNK         0.0600 
    212 H212       -5.9109  -28.2007  -52.9008 H         1 UNK         0.0600 
    213 H213       -6.1097  -29.0421  -51.3713 H         1 UNK         0.0600 
    214 H214       -4.5038  -28.5412  -51.8998 H         1 UNK         0.0600 
    215 H215       -6.5792  -25.4616  -53.0740 H         1 UNK         0.3000 
    216 H216       -5.9304  -23.8462  -54.4211 H         1 UNK         0.0600 
    217 H217       -3.0541  -24.8187  -54.0368 H         1 UNK         0.0600 
    218 H218       -3.6843  -23.8957  -55.3918 H         1 UNK         0.0600 
    219 H219       -4.2236  -25.5456  -55.1383 H         1 UNK         0.0600 
    220 H220       -6.0657  -23.2405  -51.5198 H         1 UNK         0.3000 
    221 H221       -4.1595  -21.3076  -50.7706 H         1 UNK         0.0600 
    222 H222       -5.6891  -22.3891  -49.1664 H         1 UNK         0.0600 
    223 H223       -7.0838  -21.6098  -49.9156 H         1 UNK         0.0600 
    224 H224       -5.8739  -20.6443  -49.0779 H         1 UNK         0.0600 
    225 H225       -6.9320  -20.9990  -52.9079 H         1 UNK         0.3000 
    226 H226       -7.0319  -18.1111  -52.9782 H         1 UNK         0.0600 
    227 H227       -8.0891  -20.2222  -54.9352 H         1 UNK         0.0600 
    228 H228       -8.9853  -19.5155  -53.5896 H         1 UNK         0.0600 
    229 H229       -8.5062  -18.5129  -54.9496 H         1 UNK         0.0600 
    230 H230       -5.0690  -20.5538  -54.6225 H         1 UNK         0.3000 
    231 H231       -4.0604  -18.6919  -56.6709 H         1 UNK         0.0600 
    232 H232       -3.1766  -21.5400  -55.9668 H         1 UNK         0.0600 
    233 H233       -2.6904  -20.6086  -57.3736 H         1 UNK         0.0600 
    234 H234       -4.3620  -21.1223  -57.2037 H         1 UNK         0.0600 
    235 H235       -3.1273  -20.1016  -53.5532 H         1 UNK         0.3000 
    236 H236       -0.4771  -19.1672  -53.3757 H         1 UNK         0.0600 
    237 H237       -2.4605  -19.6873  -51.1093 H         1 UNK         0.0600 
    238 H238       -1.5084  -20.9326  -51.9187 H         1 UNK         0.0600 
    239 H239       -0.7109  -19.6796  -50.9794 H         1 UNK         0.0600 
    240 H240       -3.3791  -17.2905  -53.2383 H         1 UNK         0.3000 
    241 H241       -2.3785  -15.0042  -51.8488 H         1 UNK         0.0600 
    242 H242       -0.5991  -14.7859  -55.5082 H         1 UNK         0.3800 
    243 H243       -1.4276  -16.2466  -55.0295 H         1 UNK         0.3800 
    244 H244       -4.1912  -13.7370  -52.9379 H         1 UNK         0.0800 
    245 H245       -4.4280  -14.9959  -54.1167 H         1 UNK         0.0800 
    246 H246       -5.5202  -13.4624  -50.9089 H         1 UNK         0.0800 
    247 H247       -6.3755  -14.7025  -50.0256 H         1 UNK         0.0800 
@<TRIPOS>BOND
     1    1    2 1    
     2    1  127 1    
     3    1  128 1    
     4    1  129 1    
     5    2    3 2    
     6    2    4 am   BACKBONE|DICT|INTERRES
     7    4    5 1    
     8    4  130 1    
     9    5    6 1    
    10    5   65 1    
    11    5  131 1    
    12    6    7 1    
    13    6  132 1    
    14    6  133 1    
    15    7    8 1    
    16    8    9 1    
    17    8  134 1    
    18    8  135 1    
    19    9   10 ar   
    20    9   14 ar   
    21   10   11 ar   
    22   10  136 1    
    23   11   12 ar   
    24   11  126 1    
    25   12   13 ar   
    26   12  137 1    
    27   13   14 ar   
    28   13   15 1    
    29   14  138 1    
    30   15   16 1    
    31   15  139 1    
    32   15  140 1    
    33   16   17 1    
    34   17   18 1    
    35   17  141 1    
    36   17  142 1    
    37   18   19 1    
    38   18   67 1    
    39   18  143 1    
    40   19   20 am   BACKBONE|DICT|INTERRES
    41   19  144 1    
    42   20   21 2    
    43   20   22 1    
    44   22   23 1    
    45   22   24 1    
    46   22  145 1    
    47   23  146 1    
    48   23  147 1    
    49   23  148 1    
    50   24   25 am   BACKBONE|DICT|INTERRES
    51   24  149 1    
    52   25   26 2    
    53   25   27 1    
    54   27   28 1    
    55   27   29 1    
    56   27  150 1    
    57   28  151 1    
    58   28  152 1    
    59   28  153 1    
    60   29   30 am   BACKBONE|DICT|INTERRES
    61   29  154 1    
    62   30   31 2    
    63   30   32 1    
    64   32   33 1    
    65   32   34 1    
    66   32  155 1    
    67   33  156 1    
    68   33  157 1    
    69   33  158 1    
    70   34   35 am   BACKBONE|DICT|INTERRES
    71   34  159 1    
    72   35   36 2    
    73   35   37 1    
    74   37   38 1    
    75   37   39 1    
    76   37  160 1    
    77   38  161 1    
    78   38  162 1    
    79   38  163 1    
    80   39   40 am   BACKBONE|DICT|INTERRES
    81   39  164 1    
    82   40   41 2    
    83   40   42 1    
    84   42   43 1    
    85   42   44 1    
    86   42  165 1    
    87   43  166 1    
    88   43  167 1    
    89   43  168 1    
    90   44   45 am   BACKBONE|DICT|INTERRES
    91   44  169 1    
    92   45   46 2    
    93   45   47 1    
    94   47   48 1    
    95   47   49 1    
    96   47  170 1    
    97   48  171 1    
    98   48  172 1    
    99   48  173 1    
   100   49   50 am   BACKBONE|DICT|INTERRES
   101   49  174 1    
   102   50   51 2    
   103   50   52 1    
   104   52   53 1    
   105   52   54 1    
   106   52  175 1    
   107   53  176 1    
   108   53  177 1    
   109   53  178 1    
   110   54   55 am   BACKBONE|DICT|INTERRES
   111   54  179 1    
   112   55   56 2    
   113   55   57 1    
   114   57   58 1    
   115   57   59 1    
   116   57  180 1    
   117   58  181 1    
   118   58  182 1    
   119   58  183 1    
   120   59   60 am   BACKBONE|DICT|INTERRES
   121   59  184 1    
   122   60   61 2    
   123   60   62 1    
   124   62   63 1    
   125   62   64 1    
   126   62  185 1    
   127   63  186 1    
   128   63  187 1    
   129   63  188 1    
   130   64   65 am   BACKBONE|DICT|INTERRES
   131   64  189 1    
   132   65   66 2    
   133   67   68 2    
   134   67   69 am   BACKBONE|DICT|INTERRES
   135   69   70 1    
   136   69  190 1    
   137   70   71 1    
   138   70   72 1    
   139   70  191 1    
   140   71  192 1    
   141   71  193 1    
   142   71  194 1    
   143   72   73 2    
   144   72   74 am   BACKBONE|DICT|INTERRES
   145   74   75 1    
   146   74  195 1    
   147   75   76 1    
   148   75   77 1    
   149   75  196 1    
   150   76  197 1    
   151   76  198 1    
   152   76  199 1    
   153   77   78 2    
   154   77   79 am   BACKBONE|DICT|INTERRES
   155   79   80 1    
   156   79  200 1    
   157   80   81 1    
   158   80   82 1    
   159   80  201 1    
   160   81  202 1    
   161   81  203 1    
   162   81  204 1    
   163   82   83 2    
   164   82   84 am   BACKBONE|DICT|INTERRES
   165   84   85 1    
   166   84  205 1    
   167   85   86 1    
   168   85   87 1    
   169   85  206 1    
   170   86  207 1    
   171   86  208 1    
   172   86  209 1    
   173   87   88 2    
   174   87   89 am   BACKBONE|DICT|INTERRES
   175   89   90 1    
   176   89  210 1    
   177   90   91 1    
   178   90   92 1    
   179   90  211 1    
   180   91  212 1    
   181   91  213 1    
   182   91  214 1    
   183   92   93 2    
   184   92   94 am   BACKBONE|DICT|INTERRES
   185   94   95 1    
   186   94  215 1    
   187   95   96 1    
   188   95   97 1    
   189   95  216 1    
   190   96  217 1    
   191   96  218 1    
   192   96  219 1    
   193   97   98 2    
   194   97   99 am   BACKBONE|DICT|INTERRES
   195   99  100 1    
   196   99  220 1    
   197  100  101 1    
   198  100  102 1    
   199  100  221 1    
   200  101  222 1    
   201  101  223 1    
   202  101  224 1    
   203  102  103 2    
   204  102  104 am   BACKBONE|DICT|INTERRES
   205  104  105 1    
   206  104  225 1    
   207  105  106 1    
   208  105  107 1    
   209  105  226 1    
   210  106  227 1    
   211  106  228 1    
   212  106  229 1    
   213  107  108 2    
   214  107  109 am   BACKBONE|DICT|INTERRES
   215  109  110 1    
   216  109  230 1    
   217  110  111 1    
   218  110  112 1    
   219  110  231 1    
   220  111  232 1    
   221  111  233 1    
   222  111  234 1    
   223  112  113 2    
   224  112  114 am   BACKBONE|DICT|INTERRES
   225  114  115 1    
   226  114  235 1    
   227  115  116 1    
   228  115  117 1    
   229  115  236 1    
   230  116  237 1    
   231  116  238 1    
   232  116  239 1    
   233  117  118 2    
   234  117  119 am   BACKBONE|DICT|INTERRES
   235  119  120 1    
   236  119  240 1    
   237  120  121 1    
   238  120  124 1    
   239  120  241 1    
   240  121  122 am   BACKBONE|DICT|INTERRES
   241  121  123 2    
   242  122  242 1    
   243  122  243 1    
   244  124  125 1    
   245  124  244 1    
   246  124  245 1    
   247  125  126 1    
   248  126  246 1    
   249  126  247 1    
@<TRIPOS>SUBSTRUCTURE
     1 UNK         1 GROUP             0       ****    0 ROOT    
