@<TRIPOS>MOLECULE
3R540
247   249    1
SMALL
USER_CHARGES


@<TRIPOS>ATOM
      1 CA         -0.1259  -13.3285  -48.8380 C.3       0 UNK        -0.1800 
      2 C           0.6882  -12.9630  -47.6057 C.2       0 UNK         0.5000 
      3 O           0.7174  -11.7962  -47.2154 O.2       0 UNK        -0.5000 
      4 N           1.3362  -13.9569  -46.9810 N.am      1 UNK        -0.5000 
      5 CA          2.2362  -13.8176  -45.8230 C.3       1 UNK         0.1400 
      6 C6          2.8657  -15.1669  -45.3800 C.3       23 UNK        -0.0398 
      7 S7          3.3527  -16.2647  -46.7569 S.3       23 UNK        -0.2404 
      8 C8          2.0938  -17.5712  -46.5903 C.3       23 UNK        -0.0205 
      9 C9          1.7020  -18.1505  -47.9383 C.ar      23 UNK        -0.0193 
     10 C10         0.7312  -17.5131  -48.7147 C.ar      23 UNK        -0.1150 
     11 C11         0.3607  -18.0304  -49.9583 C.ar      23 UNK        -0.0193 
     12 C12         0.9494  -19.2146  -50.4129 C.ar      23 UNK        -0.1150 
     13 C13         1.9205  -19.8644  -49.6423 C.ar      23 UNK        -0.0193 
     14 C14         2.2959  -19.3240  -48.4081 C.ar      23 UNK        -0.1150 
     15 C15         2.5949  -21.1289  -50.1565 C.3       23 UNK        -0.0205 
     16 S16         2.2383  -22.5822  -49.1192 S.3       23 UNK        -0.2404 
     17 C17         0.4805  -22.8745  -49.5039 C.3       23 UNK        -0.0398 
     18 CA         -0.2280  -23.7147  -48.4172 C.3       11 UNK         0.1400 
     19 N          -0.1435  -23.0981  -47.0905 N.am      11 UNK        -0.5000 
     20 C          -0.5845  -23.6502  -45.9528 C.2       10 UNK         0.5000 
     21 O          -1.0823  -24.7746  -45.8936 O.2       10 UNK        -0.5000 
     22 CA         -0.5121  -22.7840  -44.6815 C.3       10 UNK         0.1400 
     23 CB          0.7449  -23.1264  -43.8692 C.3       10 UNK        -0.1800 
     24 N          -0.5375  -21.3389  -44.9302 N.am      10 UNK        -0.5000 
     25 C          -1.5079  -20.6560  -45.5523 C.2       9 UNK         0.5000 
     26 O          -2.4922  -21.1920  -46.0631 O.2       9 UNK        -0.5000 
     27 CA         -1.3385  -19.1221  -45.5982 C.3       9 UNK         0.1400 
     28 CB         -2.4668  -18.4192  -46.3728 C.3       9 UNK        -0.1800 
     29 N          -1.2420  -18.5382  -44.2556 N.am      9 UNK        -0.5000 
     30 C          -0.1571  -18.5817  -43.4726 C.2       8 UNK         0.5000 
     31 O           0.9054  -19.1052  -43.8198 O.2       8 UNK        -0.5000 
     32 CA         -0.2983  -18.0009  -42.0533 C.3       8 UNK         0.1400 
     33 CB         -0.9572  -19.0295  -41.1208 C.3       8 UNK        -0.1800 
     34 N           1.0192  -17.6593  -41.5189 N.am      8 UNK        -0.5000 
     35 C           1.6586  -16.5170  -41.7864 C.2       7 UNK         0.5000 
     36 O           1.1279  -15.5468  -42.3315 O.2       7 UNK        -0.5000 
     37 CA          3.1490  -16.4668  -41.4217 C.3       7 UNK         0.1400 
     38 CB          3.9564  -17.4226  -42.3272 C.3       7 UNK        -0.1800 
     39 N           3.6217  -15.0939  -41.5785 N.am      7 UNK        -0.5000 
     40 C           4.8061  -14.6136  -41.1830 C.2       6 UNK         0.5000 
     41 O           5.6551  -15.2826  -40.5926 O.2       6 UNK        -0.5000 
     42 CA          5.0961  -13.1364  -41.4966 C.3       6 UNK         0.1400 
     43 CB          5.7563  -12.9941  -42.8770 C.3       6 UNK        -0.1800 
     44 N           3.8921  -12.3099  -41.4659 N.am      6 UNK        -0.5000 
     45 C           3.3678  -11.7627  -40.3615 C.2       5 UNK         0.5000 
     46 O           3.8169  -11.9514  -39.2294 O.2       5 UNK        -0.5000 
     47 CA          2.1477  -10.8388  -40.5714 C.3       5 UNK         0.1400 
     48 CB          1.9279   -9.8469  -39.4107 C.3       5 UNK        -0.1800 
     49 N           2.1872  -10.1405  -41.8612 N.am      5 UNK        -0.5000 
     50 C           3.1049   -9.2668  -42.3055 C.2       4 UNK         0.5000 
     51 O           4.0230   -8.8205  -41.6170 O.2       4 UNK        -0.5000 
     52 CA          3.0029   -8.8477  -43.7869 C.3       4 UNK         0.1400 
     53 CB          4.1476   -9.4776  -44.5977 C.3       4 UNK        -0.1800 
     54 N           1.7323   -9.2478  -44.3941 N.am      4 UNK        -0.5000 
     55 C           0.5937   -8.5448  -44.3245 C.2       3 UNK         0.5000 
     56 O           0.5093   -7.4215  -43.8273 O.2       3 UNK        -0.5000 
     57 CA         -0.6706   -9.2368  -44.8679 C.3       3 UNK         0.1400 
     58 CB         -0.8661   -8.9215  -46.3584 C.3       3 UNK        -0.1800 
     59 N          -0.6296  -10.6894  -44.6702 N.am      3 UNK        -0.5000 
     60 C          -0.7805  -11.2855  -43.4767 C.2       2 UNK         0.5000 
     61 O          -1.0190  -10.6701  -42.4382 O.2       2 UNK        -0.5000 
     62 CA         -0.5952  -12.8124  -43.4068 C.3       2 UNK         0.1400 
     63 CB         -1.9535  -13.5283  -43.4375 C.3       2 UNK        -0.1800 
     64 N           0.2439  -13.3463  -44.4757 N.am      2 UNK        -0.5000 
     65 C           1.5630  -13.1488  -44.6051 C.2       1 UNK         0.5000 
     66 O           2.2362  -12.4713  -43.8270 O.2       1 UNK        -0.5000 
     67 C          -1.6832  -24.0165  -48.8355 C.2       11 UNK         0.5000 
     68 O          -1.9185  -25.0250  -49.4984 O.2       11 UNK        -0.5000 
     69 N          -2.6393  -23.1823  -48.3978 N.am      12 UNK        -0.5000 
     70 CA         -4.0666  -23.3675  -48.6613 C.3       12 UNK         0.1400 
     71 CB         -4.8182  -22.0707  -48.3245 C.3       12 UNK        -0.1800 
     72 C          -4.6760  -24.5645  -47.9055 C.2       12 UNK         0.5000 
     73 O          -5.6663  -25.1304  -48.3675 O.2       12 UNK        -0.5000 
     74 N          -4.0742  -24.9441  -46.7699 N.am      13 UNK        -0.5000 
     75 CA         -4.4218  -26.1614  -46.0378 C.3       13 UNK         0.1400 
     76 CB         -4.0351  -25.9991  -44.5594 C.3       13 UNK        -0.1800 
     77 C          -3.7433  -27.4009  -46.6506 C.2       13 UNK         0.5000 
     78 O          -4.3006  -28.4961  -46.5700 O.2       13 UNK        -0.5000 
     79 N          -2.5575  -27.2102  -47.2470 N.am      14 UNK        -0.5000 
     80 CA         -1.7622  -28.2622  -47.8761 C.3       14 UNK         0.1400 
     81 CB         -0.3211  -27.7698  -48.0806 C.3       14 UNK        -0.1800 
     82 C          -2.3606  -28.7673  -49.2018 C.2       14 UNK         0.5000 
     83 O          -2.3233  -29.9748  -49.4452 O.2       14 UNK        -0.5000 
     84 N          -2.8997  -27.8623  -50.0314 N.am      15 UNK        -0.5000 
     85 CA         -3.4947  -28.2007  -51.3229 C.3       15 UNK         0.1400 
     86 CB         -2.3988  -28.2693  -52.4018 C.3       15 UNK        -0.1800 
     87 C          -4.5723  -27.1840  -51.7177 C.2       15 UNK         0.5000 
     88 O          -4.3840  -25.9806  -51.5322 O.2       15 UNK        -0.5000 
     89 N          -5.6563  -27.6823  -52.3274 N.am      16 UNK        -0.5000 
     90 CA         -6.7597  -26.8760  -52.8569 C.3       16 UNK         0.1400 
     91 CB         -7.9401  -27.7948  -53.2042 C.3       16 UNK        -0.1800 
     92 C          -6.3555  -26.0316  -54.0803 C.2       16 UNK         0.5000 
     93 O          -6.8789  -24.9326  -54.2595 O.2       16 UNK        -0.5000 
     94 N          -5.4036  -26.5342  -54.8797 N.am      17 UNK        -0.5000 
     95 CA         -4.8109  -25.8107  -56.0072 C.3       17 UNK         0.1400 
     96 CB         -3.9403  -26.7717  -56.8302 C.3       17 UNK        -0.1800 
     97 C          -3.9910  -24.5926  -55.5446 C.2       17 UNK         0.5000 
     98 O          -4.0591  -23.5335  -56.1685 O.2       17 UNK        -0.5000 
     99 N          -3.2690  -24.7533  -54.4273 N.am      18 UNK        -0.5000 
    100 CA        -2.5349  -23.6770  -53.7682 C.3       18 UNK         0.1400 
    101 CB        -1.5155  -24.2674  -52.7895 C.3       18 UNK        -0.1800 
    102 C         -3.4756  -22.6824  -53.0675 C.2       18 UNK         0.5000 
    103 O         -3.1974  -21.4853  -53.0900 O.2       18 UNK        -0.5000 
    104 N         -4.5952  -23.1715  -52.5124 N.am      19 UNK        -0.5000 
    105 CA        -5.6705  -22.3429  -51.9595 C.3       19 UNK         0.1400 
    106 CB        -6.7354  -23.2244  -51.2872 C.3       19 UNK        -0.1800 
    107 C         -6.3177  -21.4442  -53.0263 C.2       19 UNK         0.5000 
    108 O         -6.5088  -20.2539  -52.7800 O.2       19 UNK        -0.5000 
    109 N         -6.5994  -22.0198  -54.2035 N.am      20 UNK        -0.5000 
    110 CA        -7.1313  -21.3142  -55.3696 C.3       20 UNK         0.1400 
    111 CB        -7.5114  -22.3346  -56.4531 C.3       20 UNK        -0.1800 
    112 C         -6.1616  -20.2552  -55.9289 C.2       20 UNK         0.5000 
    113 O         -6.6127  -19.1951  -56.3640 O.2       20 UNK        -0.5000 
    114 N         -4.8544  -20.5501  -55.8924 N.am      21 UNK        -0.5000 
    115 CA        -3.7896  -19.6252  -56.2790 C.3       21 UNK         0.1400 
    116 CB        -2.4788  -20.4025  -56.4758 C.3       21 UNK        -0.1800 
    117 C         -3.6055  -18.4821  -55.2623 C.2       21 UNK         0.5000 
    118 O         -3.4880  -17.3250  -55.6682 O.2       21 UNK        -0.5000 
    119 N         -3.5774  -18.8256  -53.9678 N.am      22 UNK        -0.5000 
    120 CA        -3.4411  -17.8812  -52.8500 C.3       22 UNK         0.1400 
    121 C         -4.6943  -16.9830  -52.6358 C.2       22 UNK         0.5000 
    122 N         -5.9063  -17.5116  -52.7427 N.am      22 UNK        -0.7600 
    123 O         -4.5676  -15.7855  -52.3947 O.2       22 UNK        -0.5000 
    124 C124       -3.0047  -18.6175  -51.5542 C.3       23 UNK        -0.0398 
    125 S125       -2.3506  -17.5021  -50.2662 S.3       23 UNK        -0.2404 
    126 C126       -0.6334  -17.2711  -50.8233 C.3       23 UNK        -0.0205 
    127 H127       -1.1879  -13.1792  -48.6438 H         1 UNK         0.0600 
    128 H128        0.0259  -14.3663  -49.1322 H         1 UNK         0.0600 
    129 H129        0.1606  -12.6946  -49.6772 H         1 UNK         0.0600 
    130 H130        1.3034  -14.8861  -47.3737 H         1 UNK         0.3000 
    131 H131        3.0466  -13.1583  -46.1406 H         1 UNK         0.0600 
    132 H132        3.7547  -14.9771  -44.7772 H         1 UNK         0.0800 
    133 H133        2.1882  -15.7161  -44.7258 H         1 UNK         0.0800 
    134 H134        2.4747  -18.3529  -45.9312 H         1 UNK         0.0800 
    135 H135        1.1985  -17.1762  -46.1090 H         1 UNK         0.0800 
    136 H136        0.2673  -16.6061  -48.3568 H         1 UNK         0.1150 
    137 H137        0.6677  -19.6168  -51.3759 H         1 UNK         0.1150 
    138 H138        3.0516  -19.8193  -47.8144 H         1 UNK         0.1150 
    139 H139        2.3005  -21.3404  -51.1857 H         1 UNK         0.0800 
    140 H140        3.6737  -20.9682  -50.1749 H         1 UNK         0.0800 
    141 H141        0.4419  -23.3870  -50.4655 H         1 UNK         0.0800 
    142 H142       -0.0284  -21.9183  -49.6375 H         1 UNK         0.0800 
    143 H143        0.2878  -24.6745  -48.3509 H         1 UNK         0.0600 
    144 H144        0.2679  -22.1775  -47.0492 H         1 UNK         0.3000 
    145 H145       -1.3882  -23.0267  -44.0770 H         1 UNK         0.0600 
    146 H146        0.7602  -22.5890  -42.9207 H         1 UNK         0.0600 
    147 H147        0.7844  -24.1920  -43.6390 H         1 UNK         0.0600 
    148 H148        1.6555  -22.8728  -44.4135 H         1 UNK         0.0600 
    149 H149        0.2221  -20.7956  -44.5306 H         1 UNK         0.3000 
    150 H150       -0.4098  -18.9311  -46.1357 H         1 UNK         0.0600 
    151 H151       -3.4349  -18.5559  -45.8897 H         1 UNK         0.0600 
    152 H152       -2.5470  -18.8119  -47.3875 H         1 UNK         0.0600 
    153 H153       -2.2794  -17.3486  -46.4575 H         1 UNK         0.0600 
    154 H154       -2.0915  -18.1341  -43.8885 H         1 UNK         0.3000 
    155 H155       -0.9256  -17.1075  -42.0947 H         1 UNK         0.0600 
    156 H156       -0.3786  -19.9527  -41.0647 H         1 UNK         0.0600 
    157 H157       -1.9577  -19.2908  -41.4677 H         1 UNK         0.0600 
    158 H158       -1.0585  -18.6355  -40.1094 H         1 UNK         0.0600 
    159 H159        1.5400  -18.4226  -41.1121 H         1 UNK         0.3000 
    160 H160        3.2586  -16.7623  -40.3765 H         1 UNK         0.0600 
    161 H161        3.8803  -17.1416  -43.3778 H         1 UNK         0.0600 
    162 H162        3.5986  -18.4491  -42.2405 H         1 UNK         0.0600 
    163 H163        5.0131  -17.4350  -42.0622 H         1 UNK         0.0600 
    164 H164        2.9472  -14.4747  -42.0118 H         1 UNK         0.3000 
    165 H165        5.8012  -12.7693  -40.7476 H         1 UNK         0.0600 
    166 H166        6.6570  -13.6055  -42.9462 H         1 UNK         0.0600 
    167 H167        5.0859  -13.3014  -43.6796 H         1 UNK         0.0600 
    168 H168        6.0492  -11.9612  -43.0661 H         1 UNK         0.0600 
    169 H169        3.4209  -12.1533  -42.3526 H         1 UNK         0.3000 
    170 H170        1.2776  -11.4955  -40.6108 H         1 UNK         0.0600 
    171 H171        1.7485  -10.3756  -38.4739 H         1 UNK         0.0600 
    172 H172        2.7921   -9.1997  -39.2595 H         1 UNK         0.0600 
    173 H173        1.0608   -9.2126  -39.5950 H         1 UNK         0.0600 
    174 H174        1.4906  -10.4391  -42.5280 H         1 UNK         0.3000 
    175 H175        3.1047   -7.7615  -43.8343 H         1 UNK         0.0600 
    176 H176        4.1123   -9.1619  -45.6405 H         1 UNK         0.0600 
    177 H177        5.1190   -9.1788  -44.2015 H         1 UNK         0.0600 
    178 H178        4.1068  -10.5672  -44.5755 H         1 UNK         0.0600 
    179 H179        1.7072  -10.1627  -44.8225 H         1 UNK         0.3000 
    180 H180       -1.5302   -8.8393  -44.3238 H         1 UNK         0.0600 
    181 H181       -0.0141   -9.2464  -46.9562 H         1 UNK         0.0600 
    182 H182       -0.9836   -7.8487  -46.5155 H         1 UNK         0.0600 
    183 H183       -1.7585   -9.4080  -46.7523 H         1 UNK         0.0600 
    184 H184       -0.3891  -11.2503  -45.4800 H         1 UNK         0.3000 
    185 H185       -0.1115  -13.0398  -42.4544 H         1 UNK         0.0600 
    186 H186       -2.6005  -13.1741  -42.6338 H         1 UNK         0.0600 
    187 H187       -2.4766  -13.3602  -44.3798 H         1 UNK         0.0600 
    188 H188       -1.8327  -14.6038  -43.3053 H         1 UNK         0.0600 
    189 H189       -0.2192  -13.9132  -45.1699 H         1 UNK         0.3000 
    190 H190       -2.3910  -22.4103  -47.7888 H         1 UNK         0.3000 
    191 H191       -4.1773  -23.5655  -49.7280 H         1 UNK         0.0600 
    192 H192       -4.4036  -21.2191  -48.8643 H         1 UNK         0.0600 
    193 H193       -5.8716  -22.1488  -48.5948 H         1 UNK         0.0600 
    194 H194       -4.7739  -21.8458  -47.2586 H         1 UNK         0.0600 
    195 H195       -3.2500  -24.4467  -46.4603 H         1 UNK         0.3000 
    196 H196       -5.5023  -26.3136  -46.0840 H         1 UNK         0.0600 
    197 H197       -4.3441  -26.8705  -43.9808 H         1 UNK         0.0600 
    198 H198       -4.5193  -25.1279  -44.1182 H         1 UNK         0.0600 
    199 H199       -2.9589  -25.8875  -44.4286 H         1 UNK         0.0600 
    200 H200       -2.1592  -26.2810  -47.2426 H         1 UNK         0.3000 
    201 H201       -1.7272  -29.1074  -47.1852 H         1 UNK         0.0600 
    202 H202        0.3200  -28.5838  -48.4206 H         1 UNK         0.0600 
    203 H203       -0.2646  -26.9810  -48.8298 H         1 UNK         0.0600 
    204 H204        0.1038  -27.3856  -47.1528 H         1 UNK         0.0600 
    205 H205       -2.8806  -26.8740  -49.7945 H         1 UNK         0.3000 
    206 H206       -3.9750  -29.1789  -51.2483 H         1 UNK         0.0600 
    207 H207       -1.6769  -29.0559  -52.1818 H         1 UNK         0.0600 
    208 H208       -2.8226  -28.4862  -53.3831 H         1 UNK         0.0600 
    209 H209       -1.8519  -27.3292  -52.4779 H         1 UNK         0.0600 
    210 H210       -5.7340  -28.6818  -52.4508 H         1 UNK         0.3000 
    211 H211       -7.0828  -26.1894  -52.0720 H         1 UNK         0.0600 
    212 H212       -7.6735  -28.5227  -53.9715 H         1 UNK         0.0600 
    213 H213       -8.7863  -27.2174  -53.5791 H         1 UNK         0.0600 
    214 H214       -8.2855  -28.3418  -52.3267 H         1 UNK         0.0600 
    215 H215       -5.0360  -27.4517  -54.6773 H         1 UNK         0.3000 
    216 H216       -5.6196  -25.4471  -56.6450 H         1 UNK         0.0600 
    217 H217       -3.4971  -26.2599  -57.6855 H         1 UNK         0.0600 
    218 H218       -4.5300  -27.6018  -57.2197 H         1 UNK         0.0600 
    219 H219       -3.1246  -27.1877  -56.2375 H         1 UNK         0.0600 
    220 H220       -3.2972  -25.6421  -53.9517 H         1 UNK         0.3000 
    221 H221       -1.9805  -23.1242  -54.5294 H         1 UNK         0.0600 
    222 H222       -1.9984  -24.8891  -52.0382 H         1 UNK         0.0600 
    223 H223       -0.7779  -24.8802  -53.3077 H         1 UNK         0.0600 
    224 H224       -0.9773  -23.4744  -52.2717 H         1 UNK         0.0600 
    225 H225       -4.7131  -24.1771  -52.4603 H         1 UNK         0.3000 
    226 H226       -5.2265  -21.6972  -51.2001 H         1 UNK         0.0600 
    227 H227       -7.3923  -22.6210  -50.6601 H         1 UNK         0.0600 
    228 H228       -7.3677  -23.7320  -52.0142 H         1 UNK         0.0600 
    229 H229       -6.2897  -23.9887  -50.6541 H         1 UNK         0.0600 
    230 H230       -6.4672  -23.0226  -54.2984 H         1 UNK         0.3000 
    231 H231       -8.0405  -20.7965  -55.0571 H         1 UNK         0.0600 
    232 H232       -6.6454  -22.9026  -56.7937 H         1 UNK         0.0600 
    233 H233       -7.9422  -21.8383  -57.3235 H         1 UNK         0.0600 
    234 H234       -8.2514  -23.0446  -56.0833 H         1 UNK         0.0600 
    235 H235       -4.5723  -21.4690  -55.5744 H         1 UNK         0.3000 
    236 H236       -4.0598  -19.1787  -57.2384 H         1 UNK         0.0600 
    237 H237       -2.5931  -21.1846  -57.2267 H         1 UNK         0.0600 
    238 H238       -1.6808  -19.7402  -56.8135 H         1 UNK         0.0600 
    239 H239       -2.1440  -20.8732  -55.5517 H         1 UNK         0.0600 
    240 H240       -3.6341  -19.8098  -53.7175 H         1 UNK         0.3000 
    241 H241       -2.6267  -17.2079  -53.1241 H         1 UNK         0.0600 
    242 H242       -6.0390  -18.5114  -52.8865 H         1 UNK         0.3800 
    243 H243       -6.7127  -16.9217  -52.6174 H         1 UNK         0.3800 
    244 H244       -2.2292  -19.3511  -51.7791 H         1 UNK         0.0800 
    245 H245       -3.8380  -19.1870  -51.1389 H         1 UNK         0.0800 
    246 H246       -0.3990  -16.2065  -50.7861 H         1 UNK         0.0800 
    247 H247       -0.5271  -17.5590  -51.8701 H         1 UNK         0.0800 
@<TRIPOS>BOND
     1    1    2 1    
     2    1  127 1    
     3    1  128 1    
     4    1  129 1    
     5    2    3 2    
     6    2    4 am   BACKBONE|DICT|INTERRES
     7    4    5 1    
     8    4  130 1    
     9    5    6 1    
    10    5   65 1    
    11    5  131 1    
    12    6    7 1    
    13    6  132 1    
    14    6  133 1    
    15    7    8 1    
    16    8    9 1    
    17    8  134 1    
    18    8  135 1    
    19    9   10 ar   
    20    9   14 ar   
    21   10   11 ar   
    22   10  136 1    
    23   11   12 ar   
    24   11  126 1    
    25   12   13 ar   
    26   12  137 1    
    27   13   14 ar   
    28   13   15 1    
    29   14  138 1    
    30   15   16 1    
    31   15  139 1    
    32   15  140 1    
    33   16   17 1    
    34   17   18 1    
    35   17  141 1    
    36   17  142 1    
    37   18   19 1    
    38   18   67 1    
    39   18  143 1    
    40   19   20 am   BACKBONE|DICT|INTERRES
    41   19  144 1    
    42   20   21 2    
    43   20   22 1    
    44   22   23 1    
    45   22   24 1    
    46   22  145 1    
    47   23  146 1    
    48   23  147 1    
    49   23  148 1    
    50   24   25 am   BACKBONE|DICT|INTERRES
    51   24  149 1    
    52   25   26 2    
    53   25   27 1    
    54   27   28 1    
    55   27   29 1    
    56   27  150 1    
    57   28  151 1    
    58   28  152 1    
    59   28  153 1    
    60   29   30 am   BACKBONE|DICT|INTERRES
    61   29  154 1    
    62   30   31 2    
    63   30   32 1    
    64   32   33 1    
    65   32   34 1    
    66   32  155 1    
    67   33  156 1    
    68   33  157 1    
    69   33  158 1    
    70   34   35 am   BACKBONE|DICT|INTERRES
    71   34  159 1    
    72   35   36 2    
    73   35   37 1    
    74   37   38 1    
    75   37   39 1    
    76   37  160 1    
    77   38  161 1    
    78   38  162 1    
    79   38  163 1    
    80   39   40 am   BACKBONE|DICT|INTERRES
    81   39  164 1    
    82   40   41 2    
    83   40   42 1    
    84   42   43 1    
    85   42   44 1    
    86   42  165 1    
    87   43  166 1    
    88   43  167 1    
    89   43  168 1    
    90   44   45 am   BACKBONE|DICT|INTERRES
    91   44  169 1    
    92   45   46 2    
    93   45   47 1    
    94   47   48 1    
    95   47   49 1    
    96   47  170 1    
    97   48  171 1    
    98   48  172 1    
    99   48  173 1    
   100   49   50 am   BACKBONE|DICT|INTERRES
   101   49  174 1    
   102   50   51 2    
   103   50   52 1    
   104   52   53 1    
   105   52   54 1    
   106   52  175 1    
   107   53  176 1    
   108   53  177 1    
   109   53  178 1    
   110   54   55 am   BACKBONE|DICT|INTERRES
   111   54  179 1    
   112   55   56 2    
   113   55   57 1    
   114   57   58 1    
   115   57   59 1    
   116   57  180 1    
   117   58  181 1    
   118   58  182 1    
   119   58  183 1    
   120   59   60 am   BACKBONE|DICT|INTERRES
   121   59  184 1    
   122   60   61 2    
   123   60   62 1    
   124   62   63 1    
   125   62   64 1    
   126   62  185 1    
   127   63  186 1    
   128   63  187 1    
   129   63  188 1    
   130   64   65 am   BACKBONE|DICT|INTERRES
   131   64  189 1    
   132   65   66 2    
   133   67   68 2    
   134   67   69 am   BACKBONE|DICT|INTERRES
   135   69   70 1    
   136   69  190 1    
   137   70   71 1    
   138   70   72 1    
   139   70  191 1    
   140   71  192 1    
   141   71  193 1    
   142   71  194 1    
   143   72   73 2    
   144   72   74 am   BACKBONE|DICT|INTERRES
   145   74   75 1    
   146   74  195 1    
   147   75   76 1    
   148   75   77 1    
   149   75  196 1    
   150   76  197 1    
   151   76  198 1    
   152   76  199 1    
   153   77   78 2    
   154   77   79 am   BACKBONE|DICT|INTERRES
   155   79   80 1    
   156   79  200 1    
   157   80   81 1    
   158   80   82 1    
   159   80  201 1    
   160   81  202 1    
   161   81  203 1    
   162   81  204 1    
   163   82   83 2    
   164   82   84 am   BACKBONE|DICT|INTERRES
   165   84   85 1    
   166   84  205 1    
   167   85   86 1    
   168   85   87 1    
   169   85  206 1    
   170   86  207 1    
   171   86  208 1    
   172   86  209 1    
   173   87   88 2    
   174   87   89 am   BACKBONE|DICT|INTERRES
   175   89   90 1    
   176   89  210 1    
   177   90   91 1    
   178   90   92 1    
   179   90  211 1    
   180   91  212 1    
   181   91  213 1    
   182   91  214 1    
   183   92   93 2    
   184   92   94 am   BACKBONE|DICT|INTERRES
   185   94   95 1    
   186   94  215 1    
   187   95   96 1    
   188   95   97 1    
   189   95  216 1    
   190   96  217 1    
   191   96  218 1    
   192   96  219 1    
   193   97   98 2    
   194   97   99 am   BACKBONE|DICT|INTERRES
   195   99  100 1    
   196   99  220 1    
   197  100  101 1    
   198  100  102 1    
   199  100  221 1    
   200  101  222 1    
   201  101  223 1    
   202  101  224 1    
   203  102  103 2    
   204  102  104 am   BACKBONE|DICT|INTERRES
   205  104  105 1    
   206  104  225 1    
   207  105  106 1    
   208  105  107 1    
   209  105  226 1    
   210  106  227 1    
   211  106  228 1    
   212  106  229 1    
   213  107  108 2    
   214  107  109 am   BACKBONE|DICT|INTERRES
   215  109  110 1    
   216  109  230 1    
   217  110  111 1    
   218  110  112 1    
   219  110  231 1    
   220  111  232 1    
   221  111  233 1    
   222  111  234 1    
   223  112  113 2    
   224  112  114 am   BACKBONE|DICT|INTERRES
   225  114  115 1    
   226  114  235 1    
   227  115  116 1    
   228  115  117 1    
   229  115  236 1    
   230  116  237 1    
   231  116  238 1    
   232  116  239 1    
   233  117  118 2    
   234  117  119 am   BACKBONE|DICT|INTERRES
   235  119  120 1    
   236  119  240 1    
   237  120  121 1    
   238  120  124 1    
   239  120  241 1    
   240  121  122 am   BACKBONE|DICT|INTERRES
   241  121  123 2    
   242  122  242 1    
   243  122  243 1    
   244  124  125 1    
   245  124  244 1    
   246  124  245 1    
   247  125  126 1    
   248  126  246 1    
   249  126  247 1    
@<TRIPOS>SUBSTRUCTURE
     1 UNK         1 GROUP             0       ****    0 ROOT    
