@<TRIPOS>MOLECULE
3R540
247   249    1
SMALL
USER_CHARGES


@<TRIPOS>ATOM
      1 CA          3.7005  -15.3632  -50.8057 C.3       0 UNK        -0.1800 
      2 C           3.1793  -14.3246  -49.8218 C.2       0 UNK         0.5000 
      3 O           3.8977  -13.9358  -48.9016 O.2       0 UNK        -0.5000 
      4 N           1.9323  -13.8824  -50.0158 N.am      1 UNK        -0.5000 
      5 CA          1.2610  -12.8303  -49.2477 C.3       1 UNK         0.1400 
      6 C6         -0.2768  -12.8228  -49.4864 C.3       23 UNK        -0.0398 
      7 S7         -0.8117  -13.1172  -51.2147 S.3       23 UNK        -0.2404 
      8 C8         -1.7515  -14.6749  -51.0673 C.3       23 UNK        -0.0205 
      9 C9         -0.8591  -15.9096  -51.1147 C.ar      23 UNK        -0.0193 
     10 C10        -0.7731  -16.6724  -52.2817 C.ar      23 UNK        -0.1150 
     11 C11         0.0181  -17.8247  -52.3232 C.ar      23 UNK        -0.0193 
     12 C12         0.7507  -18.1952  -51.1921 C.ar      23 UNK        -0.1150 
     13 C13         0.6873  -17.4387  -50.0180 C.ar      23 UNK        -0.0193 
     14 C14        -0.1332  -16.3043  -49.9887 C.ar      23 UNK        -0.1150 
     15 C15         1.5562  -17.8530  -48.8292 C.3       23 UNK        -0.0205 
     16 S16         1.0362  -17.2188  -47.1953 S.3       23 UNK        -0.2404 
     17 C17        -0.6202  -17.9532  -46.9797 C.3       23 UNK        -0.0398 
     18 CA         -0.6355  -19.4992  -46.9703 C.3       11 UNK         0.1400 
     19 N           0.1718  -20.0902  -45.8962 N.am      11 UNK        -0.5000 
     20 C           0.4761  -21.3939  -45.8181 C.2       10 UNK         0.5000 
     21 O           0.1594  -22.2132  -46.6788 O.2       10 UNK        -0.5000 
     22 CA          1.1980  -21.8850  -44.5489 C.3       10 UNK         0.1400 
     23 CB          2.7161  -21.6768  -44.6518 C.3       10 UNK        -0.1800 
     24 N           0.6806  -21.2563  -43.3327 N.am      10 UNK        -0.5000 
     25 C          -0.5618  -21.4418  -42.8626 C.2       9 UNK         0.5000 
     26 O          -1.3692  -22.2220  -43.3681 O.2       9 UNK        -0.5000 
     27 CA         -0.9974  -20.5694  -41.6683 C.3       9 UNK         0.1400 
     28 CB         -0.5416  -21.1844  -40.3373 C.3       9 UNK        -0.1800 
     29 N          -0.5095  -19.1927  -41.7730 N.am      9 UNK        -0.5000 
     30 C          -0.8631  -18.3418  -42.7468 C.2       8 UNK         0.5000 
     31 O          -1.7019  -18.6021  -43.6082 O.2       8 UNK        -0.5000 
     32 CA         -0.1143  -16.9997  -42.8092 C.3       8 UNK         0.1400 
     33 CB         -0.7960  -15.9524  -41.9194 C.3       8 UNK        -0.1800 
     34 N           1.3039  -17.1334  -42.4618 N.am      8 UNK        -0.5000 
     35 C           2.1853  -17.8147  -43.2095 C.2       7 UNK         0.5000 
     36 O           1.8943  -18.3462  -44.2774 O.2       7 UNK        -0.5000 
     37 CA          3.6030  -17.9993  -42.6431 C.3       7 UNK         0.1400 
     38 CB          4.5028  -16.7949  -42.9553 C.3       7 UNK        -0.1800 
     39 N           3.5768  -18.2541  -41.2038 N.am      7 UNK        -0.5000 
     40 C           3.1544  -19.4101  -40.6713 C.2       6 UNK         0.5000 
     41 O           2.8038  -20.3782  -41.3462 O.2       6 UNK        -0.5000 
     42 CA          3.0715  -19.4948  -39.1356 C.3       6 UNK         0.1400 
     43 CB          4.3773  -20.0601  -38.5579 C.3       6 UNK        -0.1800 
     44 N           2.7745  -18.2151  -38.4894 N.am      6 UNK        -0.5000 
     45 C           1.6500  -17.5063  -38.6586 C.2       5 UNK         0.5000 
     46 O           0.7303  -17.8640  -39.3970 O.2       5 UNK        -0.5000 
     47 CA          1.5320  -16.1666  -37.8962 C.3       5 UNK         0.1400 
     48 CB          2.7472  -15.8442  -36.9968 C.3       5 UNK        -0.1800 
     49 N           1.2583  -15.0282  -38.7818 N.am      5 UNK        -0.5000 
     50 C           1.9654  -14.6567  -39.8576 C.2       4 UNK         0.5000 
     51 O           2.9292  -15.2856  -40.3030 O.2       4 UNK        -0.5000 
     52 CA          1.5239  -13.3561  -40.5452 C.3       4 UNK         0.1400 
     53 CB          2.0281  -12.1258  -39.7717 C.3       4 UNK        -0.1800 
     54 N           2.0582  -13.3252  -41.9044 N.am      4 UNK        -0.5000 
     55 C           1.4502  -12.7833  -42.9639 C.2       3 UNK         0.5000 
     56 O           0.3512  -12.2233  -42.9137 O.2       3 UNK        -0.5000 
     57 CA          2.1856  -12.9017  -44.3082 C.3       3 UNK         0.1400 
     58 CB          2.1223  -14.3385  -44.8553 C.3       3 UNK        -0.1800 
     59 N           1.5655  -12.0037  -45.2764 N.am      3 UNK        -0.5000 
     60 C           2.1950  -11.3778  -46.2736 C.2       2 UNK         0.5000 
     61 O           3.4110  -11.4321  -46.4668 O.2       2 UNK        -0.5000 
     62 CA          1.2982  -10.5550  -47.2172 C.3       2 UNK         0.1400 
     63 CB          1.1253   -9.1276  -46.6756 C.3       2 UNK        -0.1800 
     64 N           1.8386  -10.4757  -48.5783 N.am      2 UNK        -0.5000 
     65 C           1.8971  -11.4388  -49.5131 C.2       1 UNK         0.5000 
     66 O           2.4222  -11.2179  -50.6064 O.2       1 UNK        -0.5000 
     67 C          -2.0862  -20.0195  -46.9669 C.2       11 UNK         0.5000 
     68 O          -2.6253  -20.2917  -48.0382 O.2       11 UNK        -0.5000 
     69 N          -2.6838  -20.1869  -45.7790 N.am      12 UNK        -0.5000 
     70 CA         -4.0127  -20.7766  -45.6033 C.3       12 UNK         0.1400 
     71 CB         -4.4635  -20.6200  -44.1436 C.3       12 UNK        -0.1800 
     72 C          -4.0673  -22.2511  -46.0464 C.2       12 UNK         0.5000 
     73 O          -5.0475  -22.6601  -46.6689 O.2       12 UNK        -0.5000 
     74 N          -2.9980  -23.0083  -45.7610 N.am      13 UNK        -0.5000 
     75 CA         -2.8039  -24.3735  -46.2483 C.3       13 UNK         0.1400 
     76 CB         -1.6270  -25.0311  -45.5128 C.3       13 UNK        -0.1800 
     77 C          -2.6073  -24.4211  -47.7748 C.2       13 UNK         0.5000 
     78 O          -3.2323  -25.2493  -48.4368 O.2       13 UNK        -0.5000 
     79 N          -1.7911  -23.5061  -48.3189 N.am      14 UNK        -0.5000 
     80 CA         -1.5620  -23.3460  -49.7575 C.3       14 UNK         0.1400 
     81 CB         -0.4689  -22.2969  -50.0099 C.3       14 UNK        -0.1800 
     82 C          -2.8462  -22.9932  -50.5282 C.2       14 UNK         0.5000 
     83 O          -3.0910  -23.5707  -51.5841 O.2       14 UNK        -0.5000 
     84 N          -3.6735  -22.1052  -49.9620 N.am      15 UNK        -0.5000 
     85 CA         -4.9872  -21.7206  -50.4857 C.3       15 UNK         0.1400 
     86 CB         -5.5181  -20.5280  -49.6771 C.3       15 UNK        -0.1800 
     87 C          -6.0193  -22.8668  -50.5094 C.2       15 UNK         0.5000 
     88 O          -6.9997  -22.7726  -51.2468 O.2       15 UNK        -0.5000 
     89 N          -5.7924  -23.9272  -49.7232 N.am      16 UNK        -0.5000 
     90 CA         -6.5642  -25.1652  -49.7793 C.3       16 UNK         0.1400 
     91 CB         -6.6592  -25.7821  -48.3745 C.3       16 UNK        -0.1800 
     92 C          -5.9361  -26.1487  -50.7820 C.2       16 UNK         0.5000 
     93 O          -6.6465  -26.6788  -51.6358 O.2       16 UNK        -0.5000 
     94 N          -4.6190  -26.3703  -50.6651 N.am      17 UNK        -0.5000 
     95 CA         -3.8568  -27.3523  -51.4388 C.3       17 UNK         0.1400 
     96 CB         -2.4614  -27.5118  -50.8156 C.3       17 UNK        -0.1800 
     97 C          -3.7443  -27.0218  -52.9383 C.2       17 UNK         0.5000 
     98 O          -3.9479  -27.9069  -53.7703 O.2       17 UNK        -0.5000 
     99 N          -3.4257  -25.7614  -53.2559 N.am      18 UNK        -0.5000 
    100 CA        -3.2883  -25.2486  -54.6217 C.3       18 UNK         0.1400 
    101 CB        -2.1237  -24.2439  -54.6600 C.3       18 UNK        -0.1800 
    102 C         -4.5875  -24.5936  -55.1281 C.2       18 UNK         0.5000 
    103 O         -4.6390  -24.1743  -56.2855 O.2       18 UNK        -0.5000 
    104 N         -5.6059  -24.5096  -54.2595 N.am      19 UNK        -0.5000 
    105 CA        -6.9058  -23.8752  -54.4783 C.3       19 UNK         0.1400 
    106 CB        -7.7337  -24.6798  -55.5068 C.3       19 UNK        -0.1800 
    107 C         -6.7542  -22.3737  -54.8104 C.2       19 UNK         0.5000 
    108 O         -5.9587  -21.6868  -54.1663 O.2       19 UNK        -0.5000 
    109 N         -7.4968  -21.8957  -55.8183 N.am      20 UNK        -0.5000 
    110 CA        -7.5784  -20.4998  -56.2620 C.3       20 UNK         0.1400 
    111 CB        -8.6781  -20.3950  -57.3314 C.3       20 UNK        -0.1800 
    112 C         -6.2607  -19.8791  -56.7756 C.2       20 UNK         0.5000 
    113 O         -6.2166  -18.6664  -56.9886 O.2       20 UNK        -0.5000 
    114 N         -5.2114  -20.6935  -56.9596 N.am      21 UNK        -0.5000 
    115 CA        -3.8532  -20.2400  -57.2642 C.3       21 UNK         0.1400 
    116 CB        -2.9960  -21.4503  -57.6610 C.3       21 UNK        -0.1800 
    117 C         -3.1925  -19.4715  -56.0998 C.2       21 UNK         0.5000 
    118 O         -2.2912  -18.6709  -56.3522 O.2       21 UNK        -0.5000 
    119 N         -3.6552  -19.7105  -54.8658 N.am      22 UNK        -0.5000 
    120 CA        -3.2399  -19.0061  -53.6462 C.3       22 UNK         0.1400 
    121 C         -4.4636  -18.4375  -52.8734 C.2       22 UNK         0.5000 
    122 N         -4.2336  -17.6889  -51.8020 N.am      22 UNK        -0.7600 
    123 O         -5.6203  -18.6435  -53.2324 O.2       22 UNK        -0.5000 
    124 C124       -2.3468  -19.8978  -52.7409 C.3       23 UNK        -0.0398 
    125 S125       -0.7075  -20.2935  -53.4408 S.3       23 UNK        -0.2404 
    126 C126        0.0934  -18.6585  -53.5960 C.3       23 UNK        -0.0205 
    127 H127        2.8983  -15.7785  -51.4167 H         1 UNK         0.0600 
    128 H128        4.1801  -16.1838  -50.2728 H         1 UNK         0.0600 
    129 H129        4.4376  -14.9119  -51.4697 H         1 UNK         0.0600 
    130 H130        1.4009  -14.2286  -50.8025 H         1 UNK         0.3000 
    131 H131        1.4221  -13.0916  -48.2030 H         1 UNK         0.0600 
    132 H132       -0.7377  -13.5678  -48.8392 H         1 UNK         0.0800 
    133 H133       -0.7216  -11.8798  -49.1654 H         1 UNK         0.0800 
    134 H134       -2.3420  -14.6747  -50.1501 H         1 UNK         0.0800 
    135 H135       -2.4758  -14.7116  -51.8827 H         1 UNK         0.0800 
    136 H136       -1.3259  -16.3673  -53.1589 H         1 UNK         0.1150 
    137 H137        1.3771  -19.0755  -51.2319 H         1 UNK         0.1150 
    138 H138       -0.1932  -15.7087  -49.0921 H         1 UNK         0.1150 
    139 H139        1.6395  -18.9389  -48.7826 H         1 UNK         0.0800 
    140 H140        2.5672  -17.4909  -49.0129 H         1 UNK         0.0800 
    141 H141       -1.2648  -17.5720  -47.7730 H         1 UNK         0.0800 
    142 H142       -1.0356  -17.5661  -46.0486 H         1 UNK         0.0800 
    143 H143       -0.2065  -19.8414  -47.9118 H         1 UNK         0.0600 
    144 H144        0.5410  -19.4549  -45.1947 H         1 UNK         0.3000 
    145 H145        1.0178  -22.9587  -44.4645 H         1 UNK         0.0600 
    146 H146        3.2263  -22.0472  -43.7625 H         1 UNK         0.0600 
    147 H147        3.1225  -22.2151  -45.5088 H         1 UNK         0.0600 
    148 H148        2.9785  -20.6271  -44.7748 H         1 UNK         0.0600 
    149 H149        1.3064  -20.6328  -42.8364 H         1 UNK         0.3000 
    150 H150       -2.0887  -20.5326  -41.6652 H         1 UNK         0.0600 
    151 H151       -0.9718  -22.1775  -40.2025 H         1 UNK         0.0600 
    152 H152       -0.8572  -20.5741  -39.4908 H         1 UNK         0.0600 
    153 H153        0.5414  -21.2901  -40.2895 H         1 UNK         0.0600 
    154 H154        0.1400  -18.8732  -41.0619 H         1 UNK         0.3000 
    155 H155       -0.1724  -16.6451  -43.8405 H         1 UNK         0.0600 
    156 H156       -0.6880  -16.1809  -40.8597 H         1 UNK         0.0600 
    157 H157       -1.8640  -15.8951  -42.1336 H         1 UNK         0.0600 
    158 H158       -0.3847  -14.9623  -42.1014 H         1 UNK         0.0600 
    159 H159        1.6036  -16.7697  -41.5675 H         1 UNK         0.3000 
    160 H160        4.0419  -18.8699  -43.1357 H         1 UNK         0.0600 
    161 H161        4.5613  -16.6242  -44.0310 H         1 UNK         0.0600 
    162 H162        5.5191  -16.9617  -42.5984 H         1 UNK         0.0600 
    163 H163        4.1356  -15.8779  -42.4976 H         1 UNK         0.0600 
    164 H164        3.7953  -17.4766  -40.5943 H         1 UNK         0.3000 
    165 H165        2.2630  -20.1854  -38.8885 H         1 UNK         0.0600 
    166 H166        4.3009  -20.2090  -37.4806 H         1 UNK         0.0600 
    167 H167        4.6139  -21.0280  -39.0022 H         1 UNK         0.0600 
    168 H168        5.2219  -19.3966  -38.7474 H         1 UNK         0.0600 
    169 H169        3.4873  -17.8427  -37.8790 H         1 UNK         0.3000 
    170 H170        0.6608  -16.2697  -37.2478 H         1 UNK         0.0600 
    171 H171        2.9146  -16.6277  -36.2566 H         1 UNK         0.0600 
    172 H172        3.6646  -15.7223  -37.5742 H         1 UNK         0.0600 
    173 H173        2.5845  -14.9187  -36.4442 H         1 UNK         0.0600 
    174 H174        0.4612  -14.4661  -38.5183 H         1 UNK         0.3000 
    175 H175        0.4326  -13.3406  -40.5709 H         1 UNK         0.0600 
    176 H176        1.6454  -12.1173  -38.7505 H         1 UNK         0.0600 
    177 H177        1.7014  -11.2008  -40.2472 H         1 UNK         0.0600 
    178 H178        3.1172  -12.1065  -39.7154 H         1 UNK         0.0600 
    179 H179        2.9304  -13.8258  -42.0162 H         1 UNK         0.3000 
    180 H180        3.2272  -12.6154  -44.1473 H         1 UNK         0.0600 
    181 H181        1.0938  -14.6649  -45.0148 H         1 UNK         0.0600 
    182 H182        2.5843  -15.0409  -44.1655 H         1 UNK         0.0600 
    183 H183        2.6502  -14.4261  -45.8055 H         1 UNK         0.0600 
    184 H184        0.5813  -11.8360  -45.1077 H         1 UNK         0.3000 
    185 H185        0.3126  -11.0206  -47.2557 H         1 UNK         0.0600 
    186 H186        0.6963   -9.1369  -45.6727 H         1 UNK         0.0600 
    187 H187        2.0784   -8.6000  -46.6191 H         1 UNK         0.0600 
    188 H188        0.4555   -8.5437  -47.3074 H         1 UNK         0.0600 
    189 H189        2.2850   -9.5979  -48.7974 H         1 UNK         0.3000 
    190 H190       -2.2070  -19.8683  -44.9397 H         1 UNK         0.3000 
    191 H191       -4.7083  -20.2171  -46.2321 H         1 UNK         0.0600 
    192 H192       -5.4751  -21.0034  -44.0060 H         1 UNK         0.0600 
    193 H193       -3.8125  -21.1616  -43.4580 H         1 UNK         0.0600 
    194 H194       -4.4681  -19.5722  -43.8425 H         1 UNK         0.0600 
    195 H195       -2.2582  -22.6128  -45.1906 H         1 UNK         0.3000 
    196 H196       -3.7053  -24.9436  -46.0136 H         1 UNK         0.0600 
    197 H197       -1.5009  -26.0669  -45.8300 H         1 UNK         0.0600 
    198 H198       -1.7909  -25.0376  -44.4350 H         1 UNK         0.0600 
    199 H199       -0.6870  -24.5144  -45.7032 H         1 UNK         0.0600 
    200 H200       -1.2624  -22.8942  -47.7024 H         1 UNK         0.3000 
    201 H201       -1.2003  -24.3034  -50.1369 H         1 UNK         0.0600 
    202 H202        0.4460  -22.5375  -49.4687 H         1 UNK         0.0600 
    203 H203       -0.7858  -21.2988  -49.7098 H         1 UNK         0.0600 
    204 H204       -0.2165  -22.2508  -51.0698 H         1 UNK         0.0600 
    205 H205       -3.3663  -21.6265  -49.1182 H         1 UNK         0.3000 
    206 H206       -4.8557  -21.3961  -51.5191 H         1 UNK         0.0600 
    207 H207       -5.6755  -20.7910  -48.6309 H         1 UNK         0.0600 
    208 H208       -4.8235  -19.6887  -49.7109 H         1 UNK         0.0600 
    209 H209       -6.4700  -20.1772  -50.0777 H         1 UNK         0.0600 
    210 H210       -4.9705  -23.9274  -49.1335 H         1 UNK         0.3000 
    211 H211       -7.5830  -24.9523  -50.1104 H         1 UNK         0.0600 
    212 H212       -5.6820  -26.0505  -47.9741 H         1 UNK         0.0600 
    213 H213       -7.2658  -26.6883  -48.3892 H         1 UNK         0.0600 
    214 H214       -7.1253  -25.0894  -47.6735 H         1 UNK         0.0600 
    215 H215       -4.1121  -25.9013  -49.9176 H         1 UNK         0.3000 
    216 H216       -4.3730  -28.3108  -51.3525 H         1 UNK         0.0600 
    217 H217       -1.8745  -28.2576  -51.3533 H         1 UNK         0.0600 
    218 H218       -2.5285  -27.8370  -49.7772 H         1 UNK         0.0600 
    219 H219       -1.9029  -26.5755  -50.8360 H         1 UNK         0.0600 
    220 H220       -3.2938  -25.0727  -52.5151 H         1 UNK         0.3000 
    221 H221       -3.0467  -26.0684  -55.3011 H         1 UNK         0.0600 
    222 H222       -1.8771  -23.9757  -55.6873 H         1 UNK         0.0600 
    223 H223       -1.2226  -24.6624  -54.2116 H         1 UNK         0.0600 
    224 H224       -2.3647  -23.3211  -54.1305 H         1 UNK         0.0600 
    225 H225       -5.4452  -24.8662  -53.3289 H         1 UNK         0.3000 
    226 H226       -7.4359  -23.9276  -53.5278 H         1 UNK         0.0600 
    227 H227       -8.7596  -24.3141  -55.5639 H         1 UNK         0.0600 
    228 H228       -7.3046  -24.6345  -56.5085 H         1 UNK         0.0600 
    229 H229       -7.7895  -25.7304  -55.2211 H         1 UNK         0.0600 
    230 H230       -8.0917  -22.5465  -56.3102 H         1 UNK         0.3000 
    231 H231       -7.8847  -19.9051  -55.3990 H         1 UNK         0.0600 
    232 H232       -9.6392  -20.7355  -56.9457 H         1 UNK         0.0600 
    233 H233       -8.4377  -20.9912  -58.2125 H         1 UNK         0.0600 
    234 H234       -8.8115  -19.3634  -57.6599 H         1 UNK         0.0600 
    235 H235       -5.3251  -21.6776  -56.7575 H         1 UNK         0.3000 
    236 H236       -3.9057  -19.5638  -58.1200 H         1 UNK         0.0600 
    237 H237       -3.4334  -21.9899  -58.5012 H         1 UNK         0.0600 
    238 H238       -1.9940  -21.1387  -57.9583 H         1 UNK         0.0600 
    239 H239       -2.8886  -22.1484  -56.8315 H         1 UNK         0.0600 
    240 H240       -4.4455  -20.3372  -54.7473 H         1 UNK         0.3000 
    241 H241       -2.6750  -18.1206  -53.9336 H         1 UNK         0.0600 
    242 H242       -5.0228  -17.3081  -51.3044 H         1 UNK         0.3800 
    243 H243       -3.3011  -17.4866  -51.4804 H         1 UNK         0.3800 
    244 H244       -2.8527  -20.8438  -52.5534 H         1 UNK         0.0800 
    245 H245       -2.1853  -19.4497  -51.7596 H         1 UNK         0.0800 
    246 H246       -0.3501  -18.1224  -54.4360 H         1 UNK         0.0800 
    247 H247        1.1410  -18.8086  -53.8600 H         1 UNK         0.0800 
@<TRIPOS>BOND
     1    1    2 1    
     2    1  127 1    
     3    1  128 1    
     4    1  129 1    
     5    2    3 2    
     6    2    4 am   BACKBONE|DICT|INTERRES
     7    4    5 1    
     8    4  130 1    
     9    5    6 1    
    10    5   65 1    
    11    5  131 1    
    12    6    7 1    
    13    6  132 1    
    14    6  133 1    
    15    7    8 1    
    16    8    9 1    
    17    8  134 1    
    18    8  135 1    
    19    9   10 ar   
    20    9   14 ar   
    21   10   11 ar   
    22   10  136 1    
    23   11   12 ar   
    24   11  126 1    
    25   12   13 ar   
    26   12  137 1    
    27   13   14 ar   
    28   13   15 1    
    29   14  138 1    
    30   15   16 1    
    31   15  139 1    
    32   15  140 1    
    33   16   17 1    
    34   17   18 1    
    35   17  141 1    
    36   17  142 1    
    37   18   19 1    
    38   18   67 1    
    39   18  143 1    
    40   19   20 am   BACKBONE|DICT|INTERRES
    41   19  144 1    
    42   20   21 2    
    43   20   22 1    
    44   22   23 1    
    45   22   24 1    
    46   22  145 1    
    47   23  146 1    
    48   23  147 1    
    49   23  148 1    
    50   24   25 am   BACKBONE|DICT|INTERRES
    51   24  149 1    
    52   25   26 2    
    53   25   27 1    
    54   27   28 1    
    55   27   29 1    
    56   27  150 1    
    57   28  151 1    
    58   28  152 1    
    59   28  153 1    
    60   29   30 am   BACKBONE|DICT|INTERRES
    61   29  154 1    
    62   30   31 2    
    63   30   32 1    
    64   32   33 1    
    65   32   34 1    
    66   32  155 1    
    67   33  156 1    
    68   33  157 1    
    69   33  158 1    
    70   34   35 am   BACKBONE|DICT|INTERRES
    71   34  159 1    
    72   35   36 2    
    73   35   37 1    
    74   37   38 1    
    75   37   39 1    
    76   37  160 1    
    77   38  161 1    
    78   38  162 1    
    79   38  163 1    
    80   39   40 am   BACKBONE|DICT|INTERRES
    81   39  164 1    
    82   40   41 2    
    83   40   42 1    
    84   42   43 1    
    85   42   44 1    
    86   42  165 1    
    87   43  166 1    
    88   43  167 1    
    89   43  168 1    
    90   44   45 am   BACKBONE|DICT|INTERRES
    91   44  169 1    
    92   45   46 2    
    93   45   47 1    
    94   47   48 1    
    95   47   49 1    
    96   47  170 1    
    97   48  171 1    
    98   48  172 1    
    99   48  173 1    
   100   49   50 am   BACKBONE|DICT|INTERRES
   101   49  174 1    
   102   50   51 2    
   103   50   52 1    
   104   52   53 1    
   105   52   54 1    
   106   52  175 1    
   107   53  176 1    
   108   53  177 1    
   109   53  178 1    
   110   54   55 am   BACKBONE|DICT|INTERRES
   111   54  179 1    
   112   55   56 2    
   113   55   57 1    
   114   57   58 1    
   115   57   59 1    
   116   57  180 1    
   117   58  181 1    
   118   58  182 1    
   119   58  183 1    
   120   59   60 am   BACKBONE|DICT|INTERRES
   121   59  184 1    
   122   60   61 2    
   123   60   62 1    
   124   62   63 1    
   125   62   64 1    
   126   62  185 1    
   127   63  186 1    
   128   63  187 1    
   129   63  188 1    
   130   64   65 am   BACKBONE|DICT|INTERRES
   131   64  189 1    
   132   65   66 2    
   133   67   68 2    
   134   67   69 am   BACKBONE|DICT|INTERRES
   135   69   70 1    
   136   69  190 1    
   137   70   71 1    
   138   70   72 1    
   139   70  191 1    
   140   71  192 1    
   141   71  193 1    
   142   71  194 1    
   143   72   73 2    
   144   72   74 am   BACKBONE|DICT|INTERRES
   145   74   75 1    
   146   74  195 1    
   147   75   76 1    
   148   75   77 1    
   149   75  196 1    
   150   76  197 1    
   151   76  198 1    
   152   76  199 1    
   153   77   78 2    
   154   77   79 am   BACKBONE|DICT|INTERRES
   155   79   80 1    
   156   79  200 1    
   157   80   81 1    
   158   80   82 1    
   159   80  201 1    
   160   81  202 1    
   161   81  203 1    
   162   81  204 1    
   163   82   83 2    
   164   82   84 am   BACKBONE|DICT|INTERRES
   165   84   85 1    
   166   84  205 1    
   167   85   86 1    
   168   85   87 1    
   169   85  206 1    
   170   86  207 1    
   171   86  208 1    
   172   86  209 1    
   173   87   88 2    
   174   87   89 am   BACKBONE|DICT|INTERRES
   175   89   90 1    
   176   89  210 1    
   177   90   91 1    
   178   90   92 1    
   179   90  211 1    
   180   91  212 1    
   181   91  213 1    
   182   91  214 1    
   183   92   93 2    
   184   92   94 am   BACKBONE|DICT|INTERRES
   185   94   95 1    
   186   94  215 1    
   187   95   96 1    
   188   95   97 1    
   189   95  216 1    
   190   96  217 1    
   191   96  218 1    
   192   96  219 1    
   193   97   98 2    
   194   97   99 am   BACKBONE|DICT|INTERRES
   195   99  100 1    
   196   99  220 1    
   197  100  101 1    
   198  100  102 1    
   199  100  221 1    
   200  101  222 1    
   201  101  223 1    
   202  101  224 1    
   203  102  103 2    
   204  102  104 am   BACKBONE|DICT|INTERRES
   205  104  105 1    
   206  104  225 1    
   207  105  106 1    
   208  105  107 1    
   209  105  226 1    
   210  106  227 1    
   211  106  228 1    
   212  106  229 1    
   213  107  108 2    
   214  107  109 am   BACKBONE|DICT|INTERRES
   215  109  110 1    
   216  109  230 1    
   217  110  111 1    
   218  110  112 1    
   219  110  231 1    
   220  111  232 1    
   221  111  233 1    
   222  111  234 1    
   223  112  113 2    
   224  112  114 am   BACKBONE|DICT|INTERRES
   225  114  115 1    
   226  114  235 1    
   227  115  116 1    
   228  115  117 1    
   229  115  236 1    
   230  116  237 1    
   231  116  238 1    
   232  116  239 1    
   233  117  118 2    
   234  117  119 am   BACKBONE|DICT|INTERRES
   235  119  120 1    
   236  119  240 1    
   237  120  121 1    
   238  120  124 1    
   239  120  241 1    
   240  121  122 am   BACKBONE|DICT|INTERRES
   241  121  123 2    
   242  122  242 1    
   243  122  243 1    
   244  124  125 1    
   245  124  244 1    
   246  124  245 1    
   247  125  126 1    
   248  126  246 1    
   249  126  247 1    
@<TRIPOS>SUBSTRUCTURE
     1 UNK         1 GROUP             0       ****    0 ROOT    
