@<TRIPOS>MOLECULE
3R540
247   249    1
SMALL
USER_CHARGES


@<TRIPOS>ATOM
      1 CA          2.6730  -15.7791  -44.3272 C.3       0 UNK        -0.1800 
      2 C           2.2840  -14.9337  -45.5266 C.2       0 UNK         0.5000 
      3 O           2.7297  -13.7914  -45.6342 O.2       0 UNK        -0.5000 
      4 N           1.4534  -15.4935  -46.4157 N.am      1 UNK        -0.5000 
      5 CA          0.9481  -14.8651  -47.6457 C.3       1 UNK         0.1400 
      6 C6          2.0488  -14.6128  -48.7138 C.3       23 UNK        -0.0398 
      7 S7          2.9602  -16.1354  -49.1386 S.3       23 UNK        -0.2404 
      8 C8          2.3476  -16.5377  -50.8112 C.3       23 UNK        -0.0205 
      9 C9          2.0523  -18.0250  -50.9635 C.ar      23 UNK        -0.0193 
     10 C10         0.8146  -18.4567  -51.4502 C.ar      23 UNK        -0.1150 
     11 C11         0.5215  -19.8200  -51.5662 C.ar      23 UNK        -0.0193 
     12 C12         1.4961  -20.7565  -51.1961 C.ar      23 UNK        -0.1150 
     13 C13         2.7353  -20.3393  -50.7043 C.ar      23 UNK        -0.0193 
     14 C14         3.0144  -18.9754  -50.6129 C.ar      23 UNK        -0.1150 
     15 C15         3.7673  -21.3546  -50.2388 C.3       23 UNK        -0.0205 
     16 S16         3.9679  -21.3114  -48.4280 S.3       23 UNK        -0.2404 
     17 C17         2.3679  -21.9801  -47.8533 C.3       23 UNK        -0.0398 
     18 CA          2.5475  -23.3082  -47.0784 C.3       11 UNK         0.1400 
     19 N           3.3678  -23.1134  -45.8779 N.am      11 UNK        -0.5000 
     20 C           4.0171  -24.0544  -45.1808 C.2       10 UNK         0.5000 
     21 O           4.0010  -25.2480  -45.4877 O.2       10 UNK        -0.5000 
     22 CA          4.8293  -23.5972  -43.9480 C.3       10 UNK         0.1400 
     23 CB          6.2292  -24.2356  -43.9364 C.3       10 UNK        -0.1800 
     24 N           4.9844  -22.1420  -43.8477 N.am      10 UNK        -0.5000 
     25 C           4.0849  -21.2951  -43.3345 C.2       9 UNK         0.5000 
     26 O           2.9798  -21.6366  -42.9084 O.2       9 UNK        -0.5000 
     27 CA          4.4796  -19.8134  -43.3446 C.3       9 UNK         0.1400 
     28 CB          4.3229  -19.2161  -44.7552 C.3       9 UNK        -0.1800 
     29 N           3.6435  -19.0765  -42.4010 N.am      9 UNK        -0.5000 
     30 C           4.0090  -17.9556  -41.7663 C.2       8 UNK         0.5000 
     31 O           5.1138  -17.4286  -41.9066 O.2       8 UNK        -0.5000 
     32 CA          2.9444  -17.2946  -40.8714 C.3       8 UNK         0.1400 
     33 CB          3.3263  -15.8622  -40.4386 C.3       8 UNK        -0.1800 
     34 N           1.6637  -17.3023  -41.5754 N.am      8 UNK        -0.5000 
     35 C           0.4564  -17.1219  -41.0305 C.2       7 UNK         0.5000 
     36 O           0.2690  -16.8647  -39.8408 O.2       7 UNK        -0.5000 
     37 CA         -0.7553  -17.2833  -41.9739 C.3       7 UNK         0.1400 
     38 CB         -1.1599  -15.9248  -42.5670 C.3       7 UNK        -0.1800 
     39 N          -0.5669  -18.2472  -43.0677 N.am      7 UNK        -0.5000 
     40 C          -0.2444  -19.5417  -42.9142 C.2       6 UNK         0.5000 
     41 O           0.0013  -20.0462  -41.8183 O.2       6 UNK        -0.5000 
     42 CA         -0.2077  -20.4393  -44.1692 C.3       6 UNK         0.1400 
     43 CB         -0.9283  -21.7718  -43.8966 C.3       6 UNK        -0.1800 
     44 N          -0.8061  -19.8295  -45.3579 N.am      6 UNK        -0.5000 
     45 C          -0.1898  -19.0083  -46.2176 C.2       5 UNK         0.5000 
     46 O           0.9367  -18.5454  -46.0484 O.2       5 UNK        -0.5000 
     47 CA         -1.0151  -18.5913  -47.4488 C.3       5 UNK         0.1400 
     48 CB         -1.0660  -19.7400  -48.4643 C.3       5 UNK        -0.1800 
     49 N          -2.3816  -18.1918  -47.1039 N.am      5 UNK        -0.5000 
     50 C          -2.6961  -17.2055  -46.2572 C.2       4 UNK         0.5000 
     51 O          -1.8633  -16.4603  -45.7272 O.2       4 UNK        -0.5000 
     52 CA         -4.1859  -17.0551  -45.9236 C.3       4 UNK         0.1400 
     53 CB         -4.6673  -18.1763  -44.9883 C.3       4 UNK        -0.1800 
     54 N          -4.3717  -15.7639  -45.2886 N.am      4 UNK        -0.5000 
     55 C          -5.4352  -14.9686  -45.4253 C.2       3 UNK         0.5000 
     56 O          -6.4938  -15.3225  -45.9465 O.2       3 UNK        -0.5000 
     57 CA         -5.2601  -13.5121  -44.9499 C.3       3 UNK         0.1400 
     58 CB         -5.8359  -13.3356  -43.5373 C.3       3 UNK        -0.1800 
     59 N          -3.8601  -13.0679  -44.9572 N.am      3 UNK        -0.5000 
     60 C          -3.0838  -12.9721  -46.0480 C.2       2 UNK         0.5000 
     61 O          -3.4921  -13.1846  -47.1907 O.2       2 UNK        -0.5000 
     62 CA         -1.6035  -12.6135  -45.8364 C.3       2 UNK         0.1400 
     63 CB         -1.2148  -12.3520  -44.3665 C.3       2 UNK        -0.1800 
     64 N          -0.7796  -13.7063  -46.3487 N.am      2 UNK        -0.5000 
     65 C           0.1123  -13.5985  -47.3413 C.2       1 UNK         0.5000 
     66 O           0.3076  -12.5589  -47.9747 O.2       1 UNK        -0.5000 
     67 C           1.1956  -23.9681  -46.7247 C.2       11 UNK         0.5000 
     68 O           0.1417  -23.3446  -46.8622 O.2       11 UNK        -0.5000 
     69 N           1.2665  -25.2246  -46.2644 N.am      12 UNK        -0.5000 
     70 CA          0.1987  -26.0460  -45.6825 C.3       12 UNK         0.1400 
     71 CB          0.8088  -27.3863  -45.2418 C.3       12 UNK        -0.1800 
     72 C          -1.0515  -26.2816  -46.5555 C.2       12 UNK         0.5000 
     73 O          -2.0543  -26.7738  -46.0364 O.2       12 UNK        -0.5000 
     74 N          -0.9968  -25.9085  -47.8420 N.am      13 UNK        -0.5000 
     75 CA         -2.1576  -25.7995  -48.7290 C.3       13 UNK         0.1400 
     76 CB         -1.6807  -25.4455  -50.1439 C.3       13 UNK        -0.1800 
     77 C          -3.1913  -24.7679  -48.2276 C.2       13 UNK         0.5000 
     78 O          -4.3899  -24.9854  -48.4069 O.2       13 UNK        -0.5000 
     79 N          -2.7004  -23.7055  -47.5650 N.am      14 UNK        -0.5000 
     80 CA         -3.4481  -22.7377  -46.7573 C.3       14 UNK         0.1400 
     81 CB         -3.9002  -23.4012  -45.4401 C.3       14 UNK        -0.1800 
     82 C          -4.6040  -22.0367  -47.5007 C.2       14 UNK         0.5000 
     83 O          -5.6829  -21.8610  -46.9310 O.2       14 UNK        -0.5000 
     84 N          -4.3609  -21.6479  -48.7609 N.am      15 UNK        -0.5000 
     85 CA         -5.3228  -20.9334  -49.6014 C.3       15 UNK         0.1400 
     86 CB         -4.7446  -20.7620  -51.0118 C.3       15 UNK        -0.1800 
     87 C          -5.6795  -19.5592  -49.0118 C.2       15 UNK         0.5000 
     88 O          -4.7714  -18.8049  -48.6491 O.2       15 UNK        -0.5000 
     89 N          -6.9833  -19.2614  -48.9400 N.am      16 UNK        -0.5000 
     90 CA         -7.5308  -17.9891  -48.4688 C.3       16 UNK         0.1400 
     91 CB         -9.0627  -18.0823  -48.4212 C.3       16 UNK        -0.1800 
     92 C          -7.0857  -16.8241  -49.3675 C.2       16 UNK         0.5000 
     93 O          -7.0440  -16.9790  -50.5902 O.2       16 UNK        -0.5000 
     94 N          -6.7072  -15.7046  -48.7374 N.am      17 UNK        -0.5000 
     95 CA         -6.1182  -14.5020  -49.3419 C.3       17 UNK         0.1400 
     96 CB         -7.1500  -13.7860  -50.2378 C.3       17 UNK        -0.1800 
     97 C          -4.7811  -14.7575  -50.0765 C.2       17 UNK         0.5000 
     98 O          -4.3516  -13.9106  -50.8614 O.2       17 UNK        -0.5000 
     99 N          -4.1600  -15.9218  -49.8206 N.am      18 UNK        -0.5000 
    100 CA        -2.9485  -16.4421  -50.4562 C.3       18 UNK         0.1400 
    101 CB        -1.7394  -15.5643  -50.0865 C.3       18 UNK        -0.1800 
    102 C         -3.1172  -16.6563  -51.9765 C.2       18 UNK         0.5000 
    103 O         -2.1763  -16.4305  -52.7397 O.2       18 UNK        -0.5000 
    104 N         -4.3258  -17.0730  -52.3838 N.am      19 UNK        -0.5000 
    105 CA        -4.7165  -17.3415  -53.7684 C.3       19 UNK         0.1400 
    106 CB        -6.2250  -17.6360  -53.7970 C.3       19 UNK        -0.1800 
    107 C         -3.9329  -18.4998  -54.4174 C.2       19 UNK         0.5000 
    108 O         -3.3567  -19.3337  -53.7192 O.2       19 UNK        -0.5000 
    109 N         -3.9791  -18.5641  -55.7549 N.am      20 UNK        -0.5000 
    110 CA        -3.2732  -19.5333  -56.6057 C.3       20 UNK         0.1400 
    111 CB        -3.4481  -19.1084  -58.0729 C.3       20 UNK        -0.1800 
    112 C         -3.6717  -21.0161  -56.4192 C.2       20 UNK         0.5000 
    113 O         -3.0447  -21.8886  -57.0236 O.2       20 UNK        -0.5000 
    114 N         -4.6782  -21.2877  -55.5766 N.am      21 UNK        -0.5000 
    115 CA        -5.1760  -22.6139  -55.2015 C.3       21 UNK         0.1400 
    116 CB        -6.3885  -22.4408  -54.2736 C.3       21 UNK        -0.1800 
    117 C         -4.1256  -23.5492  -54.5620 C.2       21 UNK         0.5000 
    118 O         -4.3498  -24.7603  -54.5350 O.2       21 UNK        -0.5000 
    119 N         -2.9958  -22.9972  -54.0941 N.am      22 UNK        -0.5000 
    120 CA        -1.8049  -23.7655  -53.6885 C.3       22 UNK         0.1400 
    121 C         -1.1130  -24.5405  -54.8516 C.2       22 UNK         0.5000 
    122 N         -1.3412  -24.1953  -56.1148 N.am      22 UNK        -0.7600 
    123 O         -0.3538  -25.4722  -54.6006 O.2       22 UNK        -0.5000 
    124 C124       -0.7480  -22.9069  -52.9439 C.3       23 UNK        -0.0398 
    125 S125       -1.4275  -21.8926  -51.5865 S.3       23 UNK        -0.2404 
    126 C126       -0.8603  -20.2251  -52.0803 C.3       23 UNK        -0.0205 
    127 H127        2.2747  -15.3247  -43.4212 H         1 UNK         0.0600 
    128 H128        3.7580  -15.8313  -44.2371 H         1 UNK         0.0600 
    129 H129        2.2880  -16.7955  -44.4073 H         1 UNK         0.0600 
    130 H130        1.1672  -16.4555  -46.2709 H         1 UNK         0.3000 
    131 H131        0.2540  -15.5869  -48.0683 H         1 UNK         0.0600 
    132 H132        1.6177  -14.1834  -49.6192 H         1 UNK         0.0800 
    133 H133        2.7705  -13.8790  -48.3521 H         1 UNK         0.0800 
    134 H134        1.4565  -15.9528  -51.0390 H         1 UNK         0.0800 
    135 H135        3.1012  -16.2472  -51.5441 H         1 UNK         0.0800 
    136 H136        0.0688  -17.7291  -51.7370 H         1 UNK         0.1150 
    137 H137        1.2935  -21.8140  -51.2670 H         1 UNK         0.1150 
    138 H138        3.9731  -18.6538  -50.2305 H         1 UNK         0.1150 
    139 H139        3.4988  -22.3642  -50.5537 H         1 UNK         0.0800 
    140 H140        4.7266  -21.1306  -50.7073 H         1 UNK         0.0800 
    141 H141        1.8868  -21.2272  -47.2263 H         1 UNK         0.0800 
    142 H142        1.7069  -22.1274  -48.7084 H         1 UNK         0.0800 
    143 H143        3.0714  -24.0037  -47.7378 H         1 UNK         0.0600 
    144 H144        3.4366  -22.1636  -45.5469 H         1 UNK         0.3000 
    145 H145        4.2913  -23.9535  -43.0670 H         1 UNK         0.0600 
    146 H146        6.7894  -23.9419  -43.0485 H         1 UNK         0.0600 
    147 H147        6.8103  -23.9449  -44.8124 H         1 UNK         0.0600 
    148 H148        6.1675  -25.3246  -43.9296 H         1 UNK         0.0600 
    149 H149        5.8534  -21.7694  -44.2038 H         1 UNK         0.3000 
    150 H150        5.5248  -19.7452  -43.0349 H         1 UNK         0.0600 
    151 H151        4.9364  -19.7481  -45.4832 H         1 UNK         0.0600 
    152 H152        4.6316  -18.1713  -44.7800 H         1 UNK         0.0600 
    153 H153        3.2901  -19.2677  -45.0992 H         1 UNK         0.0600 
    154 H154        2.7628  -19.5254  -42.1787 H         1 UNK         0.3000 
    155 H155        2.8529  -17.9150  -39.9778 H         1 UNK         0.0600 
    156 H156        4.2708  -15.8581  -39.8933 H         1 UNK         0.0600 
    157 H157        2.5770  -15.4273  -39.7778 H         1 UNK         0.0600 
    158 H158        3.4401  -15.1995  -41.2965 H         1 UNK         0.0600 
    159 H159        1.7108  -17.5281  -42.5584 H         1 UNK         0.3000 
    160 H160       -1.5852  -17.6456  -41.3639 H         1 UNK         0.0600 
    161 H161       -2.1216  -15.9905  -43.0748 H         1 UNK         0.0600 
    162 H162       -0.4223  -15.5635  -43.2846 H         1 UNK         0.0600 
    163 H163       -1.2604  -15.1680  -41.7878 H         1 UNK         0.0600 
    164 H164       -0.7534  -17.9092  -44.0017 H         1 UNK         0.3000 
    165 H165        0.8410  -20.6578  -44.3809 H         1 UNK         0.0600 
    166 H166       -0.9276  -22.4143  -44.7737 H         1 UNK         0.0600 
    167 H167       -0.4374  -22.3285  -43.0973 H         1 UNK         0.0600 
    168 H168       -1.9659  -21.6147  -43.5999 H         1 UNK         0.0600 
    169 H169       -1.7597  -20.0888  -45.5547 H         1 UNK         0.3000 
    170 H170       -0.5204  -17.7419  -47.9203 H         1 UNK         0.0600 
    171 H171       -1.5306  -20.6348  -48.0525 H         1 UNK         0.0600 
    172 H172       -1.6272  -19.4553  -49.3523 H         1 UNK         0.0600 
    173 H173       -0.0609  -20.0168  -48.7834 H         1 UNK         0.0600 
    174 H174       -3.1389  -18.6914  -47.5615 H         1 UNK         0.3000 
    175 H175       -4.7516  -17.0754  -46.8540 H         1 UNK         0.0600 
    176 H176       -4.0910  -18.2027  -44.0624 H         1 UNK         0.0600 
    177 H177       -5.7171  -18.0447  -44.7257 H         1 UNK         0.0600 
    178 H178       -4.5757  -19.1529  -45.4655 H         1 UNK         0.0600 
    179 H179       -3.5221  -15.3767  -44.9000 H         1 UNK         0.3000 
    180 H180       -5.8207  -12.8733  -45.6354 H         1 UNK         0.0600 
    181 H181       -5.7863  -12.2945  -43.2178 H         1 UNK         0.0600 
    182 H182       -5.2982  -13.9390  -42.8049 H         1 UNK         0.0600 
    183 H183       -6.8844  -13.6348  -43.5031 H         1 UNK         0.0600 
    184 H184       -3.4507  -12.8631  -44.0572 H         1 UNK         0.3000 
    185 H185       -1.4269  -11.6942  -46.3979 H         1 UNK         0.0600 
    186 H186       -0.1597  -12.0881  -44.2890 H         1 UNK         0.0600 
    187 H187       -1.7815  -11.5197  -43.9473 H         1 UNK         0.0600 
    188 H188       -1.3779  -13.2263  -43.7361 H         1 UNK         0.0600 
    189 H189       -0.9386  -14.6208  -45.9385 H         1 UNK         0.3000 
    190 H190        2.2042  -25.5998  -46.1550 H         1 UNK         0.3000 
    191 H191       -0.1470  -25.5221  -44.7893 H         1 UNK         0.0600 
    192 H192        0.0662  -28.0175  -44.7517 H         1 UNK         0.0600 
    193 H193        1.6219  -27.2354  -44.5311 H         1 UNK         0.0600 
    194 H194        1.2049  -27.9434  -46.0917 H         1 UNK         0.0600 
    195 H195       -0.1309  -25.5149  -48.1779 H         1 UNK         0.3000 
    196 H196       -2.6495  -26.7737  -48.7639 H         1 UNK         0.0600 
    197 H197       -2.5293  -25.3360  -50.8198 H         1 UNK         0.0600 
    198 H198       -1.0368  -26.2246  -50.5521 H         1 UNK         0.0600 
    199 H199       -1.1238  -24.5085  -50.1558 H         1 UNK         0.0600 
    200 H200       -1.6897  -23.6338  -47.4805 H         1 UNK         0.3000 
    201 H201       -2.7399  -21.9525  -46.4952 H         1 UNK         0.0600 
    202 H202       -4.6481  -24.1750  -45.6165 H         1 UNK         0.0600 
    203 H203       -4.3362  -22.6695  -44.7589 H         1 UNK         0.0600 
    204 H204       -3.0597  -23.8640  -44.9226 H         1 UNK         0.0600 
    205 H205       -3.4563  -21.8378  -49.1664 H         1 UNK         0.3000 
    206 H206       -6.2261  -21.5432  -49.6694 H         1 UNK         0.0600 
    207 H207       -4.4993  -21.7237  -51.4623 H         1 UNK         0.0600 
    208 H208       -5.4581  -20.2649  -51.6694 H         1 UNK         0.0600 
    209 H209       -3.8405  -20.1529  -51.0019 H         1 UNK         0.0600 
    210 H210       -7.6554  -19.9325  -49.2808 H         1 UNK         0.3000 
    211 H211       -7.1609  -17.8206  -47.4550 H         1 UNK         0.0600 
    212 H212       -9.4854  -18.2695  -49.4092 H         1 UNK         0.0600 
    213 H213       -9.4978  -17.1541  -48.0483 H         1 UNK         0.0600 
    214 H214       -9.3896  -18.8831  -47.7575 H         1 UNK         0.0600 
    215 H215       -6.7684  -15.6738  -47.7205 H         1 UNK         0.3000 
    216 H216       -5.8814  -13.8338  -48.5130 H         1 UNK         0.0600 
    217 H217       -6.7796  -12.8127  -50.5615 H         1 UNK         0.0600 
    218 H218       -8.0842  -13.6136  -49.7033 H         1 UNK         0.0600 
    219 H219       -7.3773  -14.3625  -51.1350 H         1 UNK         0.0600 
    220 H220       -4.6227  -16.5692  -49.1970 H         1 UNK         0.3000 
    221 H221       -2.7834  -17.4300  -50.0262 H         1 UNK         0.0600 
    222 H222       -0.8038  -16.0808  -50.2935 H         1 UNK         0.0600 
    223 H223       -1.7311  -14.6258  -50.6416 H         1 UNK         0.0600 
    224 H224       -1.7598  -15.3195  -49.0256 H         1 UNK         0.0600 
    225 H225       -5.0490  -17.2038  -51.6879 H         1 UNK         0.3000 
    226 H226       -4.5235  -16.4367  -54.3479 H         1 UNK         0.0600 
    227 H227       -6.7964  -16.7955  -53.4020 H         1 UNK         0.0600 
    228 H228       -6.5786  -17.8146  -54.8131 H         1 UNK         0.0600 
    229 H229       -6.4740  -18.5156  -53.2021 H         1 UNK         0.0600 
    230 H230       -4.5077  -17.8592  -56.2485 H         1 UNK         0.3000 
    231 H231       -2.2118  -19.4669  -56.3590 H         1 UNK         0.0600 
    232 H232       -2.8957  -19.7678  -58.7438 H         1 UNK         0.0600 
    233 H233       -3.0753  -18.0976  -58.2392 H         1 UNK         0.0600 
    234 H234       -4.4956  -19.1356  -58.3755 H         1 UNK         0.0600 
    235 H235       -5.0997  -20.5049  -55.1003 H         1 UNK         0.3000 
    236 H236       -5.5159  -23.1012  -56.1173 H         1 UNK         0.0600 
    237 H237       -6.1194  -21.9217  -53.3544 H         1 UNK         0.0600 
    238 H238       -7.1810  -21.8724  -54.7606 H         1 UNK         0.0600 
    239 H239       -6.8096  -23.4072  -53.9932 H         1 UNK         0.0600 
    240 H240       -2.9027  -21.9913  -54.1079 H         1 UNK         0.3000 
    241 H241       -2.1534  -24.5258  -52.9891 H         1 UNK         0.0600 
    242 H242       -1.9582  -23.4233  -56.3469 H         1 UNK         0.3800 
    243 H243       -0.8884  -24.7069  -56.8554 H         1 UNK         0.3800 
    244 H244       -0.2235  -22.2625  -53.6511 H         1 UNK         0.0800 
    245 H245        0.0168  -23.5553  -52.5129 H         1 UNK         0.0800 
    246 H246       -0.8781  -20.1271  -53.1659 H         1 UNK         0.0800 
    247 H247       -1.5955  -19.5109  -51.7092 H         1 UNK         0.0800 
@<TRIPOS>BOND
     1    1    2 1    
     2    1  127 1    
     3    1  128 1    
     4    1  129 1    
     5    2    3 2    
     6    2    4 am   BACKBONE|DICT|INTERRES
     7    4    5 1    
     8    4  130 1    
     9    5    6 1    
    10    5   65 1    
    11    5  131 1    
    12    6    7 1    
    13    6  132 1    
    14    6  133 1    
    15    7    8 1    
    16    8    9 1    
    17    8  134 1    
    18    8  135 1    
    19    9   10 ar   
    20    9   14 ar   
    21   10   11 ar   
    22   10  136 1    
    23   11   12 ar   
    24   11  126 1    
    25   12   13 ar   
    26   12  137 1    
    27   13   14 ar   
    28   13   15 1    
    29   14  138 1    
    30   15   16 1    
    31   15  139 1    
    32   15  140 1    
    33   16   17 1    
    34   17   18 1    
    35   17  141 1    
    36   17  142 1    
    37   18   19 1    
    38   18   67 1    
    39   18  143 1    
    40   19   20 am   BACKBONE|DICT|INTERRES
    41   19  144 1    
    42   20   21 2    
    43   20   22 1    
    44   22   23 1    
    45   22   24 1    
    46   22  145 1    
    47   23  146 1    
    48   23  147 1    
    49   23  148 1    
    50   24   25 am   BACKBONE|DICT|INTERRES
    51   24  149 1    
    52   25   26 2    
    53   25   27 1    
    54   27   28 1    
    55   27   29 1    
    56   27  150 1    
    57   28  151 1    
    58   28  152 1    
    59   28  153 1    
    60   29   30 am   BACKBONE|DICT|INTERRES
    61   29  154 1    
    62   30   31 2    
    63   30   32 1    
    64   32   33 1    
    65   32   34 1    
    66   32  155 1    
    67   33  156 1    
    68   33  157 1    
    69   33  158 1    
    70   34   35 am   BACKBONE|DICT|INTERRES
    71   34  159 1    
    72   35   36 2    
    73   35   37 1    
    74   37   38 1    
    75   37   39 1    
    76   37  160 1    
    77   38  161 1    
    78   38  162 1    
    79   38  163 1    
    80   39   40 am   BACKBONE|DICT|INTERRES
    81   39  164 1    
    82   40   41 2    
    83   40   42 1    
    84   42   43 1    
    85   42   44 1    
    86   42  165 1    
    87   43  166 1    
    88   43  167 1    
    89   43  168 1    
    90   44   45 am   BACKBONE|DICT|INTERRES
    91   44  169 1    
    92   45   46 2    
    93   45   47 1    
    94   47   48 1    
    95   47   49 1    
    96   47  170 1    
    97   48  171 1    
    98   48  172 1    
    99   48  173 1    
   100   49   50 am   BACKBONE|DICT|INTERRES
   101   49  174 1    
   102   50   51 2    
   103   50   52 1    
   104   52   53 1    
   105   52   54 1    
   106   52  175 1    
   107   53  176 1    
   108   53  177 1    
   109   53  178 1    
   110   54   55 am   BACKBONE|DICT|INTERRES
   111   54  179 1    
   112   55   56 2    
   113   55   57 1    
   114   57   58 1    
   115   57   59 1    
   116   57  180 1    
   117   58  181 1    
   118   58  182 1    
   119   58  183 1    
   120   59   60 am   BACKBONE|DICT|INTERRES
   121   59  184 1    
   122   60   61 2    
   123   60   62 1    
   124   62   63 1    
   125   62   64 1    
   126   62  185 1    
   127   63  186 1    
   128   63  187 1    
   129   63  188 1    
   130   64   65 am   BACKBONE|DICT|INTERRES
   131   64  189 1    
   132   65   66 2    
   133   67   68 2    
   134   67   69 am   BACKBONE|DICT|INTERRES
   135   69   70 1    
   136   69  190 1    
   137   70   71 1    
   138   70   72 1    
   139   70  191 1    
   140   71  192 1    
   141   71  193 1    
   142   71  194 1    
   143   72   73 2    
   144   72   74 am   BACKBONE|DICT|INTERRES
   145   74   75 1    
   146   74  195 1    
   147   75   76 1    
   148   75   77 1    
   149   75  196 1    
   150   76  197 1    
   151   76  198 1    
   152   76  199 1    
   153   77   78 2    
   154   77   79 am   BACKBONE|DICT|INTERRES
   155   79   80 1    
   156   79  200 1    
   157   80   81 1    
   158   80   82 1    
   159   80  201 1    
   160   81  202 1    
   161   81  203 1    
   162   81  204 1    
   163   82   83 2    
   164   82   84 am   BACKBONE|DICT|INTERRES
   165   84   85 1    
   166   84  205 1    
   167   85   86 1    
   168   85   87 1    
   169   85  206 1    
   170   86  207 1    
   171   86  208 1    
   172   86  209 1    
   173   87   88 2    
   174   87   89 am   BACKBONE|DICT|INTERRES
   175   89   90 1    
   176   89  210 1    
   177   90   91 1    
   178   90   92 1    
   179   90  211 1    
   180   91  212 1    
   181   91  213 1    
   182   91  214 1    
   183   92   93 2    
   184   92   94 am   BACKBONE|DICT|INTERRES
   185   94   95 1    
   186   94  215 1    
   187   95   96 1    
   188   95   97 1    
   189   95  216 1    
   190   96  217 1    
   191   96  218 1    
   192   96  219 1    
   193   97   98 2    
   194   97   99 am   BACKBONE|DICT|INTERRES
   195   99  100 1    
   196   99  220 1    
   197  100  101 1    
   198  100  102 1    
   199  100  221 1    
   200  101  222 1    
   201  101  223 1    
   202  101  224 1    
   203  102  103 2    
   204  102  104 am   BACKBONE|DICT|INTERRES
   205  104  105 1    
   206  104  225 1    
   207  105  106 1    
   208  105  107 1    
   209  105  226 1    
   210  106  227 1    
   211  106  228 1    
   212  106  229 1    
   213  107  108 2    
   214  107  109 am   BACKBONE|DICT|INTERRES
   215  109  110 1    
   216  109  230 1    
   217  110  111 1    
   218  110  112 1    
   219  110  231 1    
   220  111  232 1    
   221  111  233 1    
   222  111  234 1    
   223  112  113 2    
   224  112  114 am   BACKBONE|DICT|INTERRES
   225  114  115 1    
   226  114  235 1    
   227  115  116 1    
   228  115  117 1    
   229  115  236 1    
   230  116  237 1    
   231  116  238 1    
   232  116  239 1    
   233  117  118 2    
   234  117  119 am   BACKBONE|DICT|INTERRES
   235  119  120 1    
   236  119  240 1    
   237  120  121 1    
   238  120  124 1    
   239  120  241 1    
   240  121  122 am   BACKBONE|DICT|INTERRES
   241  121  123 2    
   242  122  242 1    
   243  122  243 1    
   244  124  125 1    
   245  124  244 1    
   246  124  245 1    
   247  125  126 1    
   248  126  246 1    
   249  126  247 1    
@<TRIPOS>SUBSTRUCTURE
     1 UNK         1 GROUP             0       ****    0 ROOT    
