@<TRIPOS>MOLECULE
3R540
247   249    1
SMALL
USER_CHARGES


@<TRIPOS>ATOM
      1 CA          7.7411   -9.6751  -48.6202 C.3       0 UNK        -0.1800 
      2 C           6.5794  -10.5750  -48.2216 C.2       0 UNK         0.5000 
      3 O           6.0240  -10.4125  -47.1346 O.2       0 UNK        -0.5000 
      4 N           6.2174  -11.5262  -49.0914 N.am      1 UNK        -0.5000 
      5 CA          5.0813  -12.4349  -48.9126 C.3       1 UNK         0.1400 
      6 C6          5.1961  -13.6596  -49.8530 C.3       23 UNK        -0.0398 
      7 S7          4.1746  -15.0758  -49.3140 S.3       23 UNK        -0.2404 
      8 C8          3.3641  -15.5195  -50.8857 C.3       23 UNK        -0.0205 
      9 C9          2.5328  -16.7936  -50.7887 C.ar      23 UNK        -0.0193 
     10 C10         1.2116  -16.8106  -51.2532 C.ar      23 UNK        -0.1150 
     11 C11         0.4602  -17.9898  -51.2118 C.ar      23 UNK        -0.0193 
     12 C12         1.0341  -19.1523  -50.6916 C.ar      23 UNK        -0.1150 
     13 C13         2.3439  -19.1455  -50.2105 C.ar      23 UNK        -0.0193 
     14 C14         3.0938  -17.9689  -50.2746 C.ar      23 UNK        -0.1150 
     15 C15         2.9390  -20.4150  -49.6292 C.3       23 UNK        -0.0205 
     16 S16         2.7570  -20.4584  -47.8184 S.3       23 UNK        -0.2404 
     17 C17         2.7864  -22.2590  -47.5181 C.3       23 UNK        -0.0398 
     18 CA          1.4858  -22.8392  -46.9109 C.3       11 UNK         0.1400 
     19 N           1.2841  -22.4269  -45.5204 N.am      11 UNK        -0.5000 
     20 C           0.5008  -23.0755  -44.6480 C.2       10 UNK         0.5000 
     21 O          -0.1336  -24.0874  -44.9479 O.2       10 UNK        -0.5000 
     22 CA          0.3460  -22.4792  -43.2351 C.3       10 UNK         0.1400 
     23 CB          0.3624  -23.5606  -42.1365 C.3       10 UNK        -0.1800 
     24 N           1.2881  -21.3972  -42.9364 N.am      10 UNK        -0.5000 
     25 C           2.6193  -21.4593  -42.7865 C.2       9 UNK         0.5000 
     26 O           3.2742  -22.4994  -42.8549 O.2       9 UNK        -0.5000 
     27 CA          3.3503  -20.1214  -42.5533 C.3       9 UNK         0.1400 
     28 CB          4.0744  -19.6895  -43.8387 C.3       9 UNK        -0.1800 
     29 N           2.4563  -19.0397  -42.1315 N.am      9 UNK        -0.5000 
     30 C           1.8789  -18.9422  -40.9261 C.2       8 UNK         0.5000 
     31 O           2.1060  -19.7149  -39.9945 O.2       8 UNK        -0.5000 
     32 CA          0.8408  -17.8180  -40.7476 C.3       8 UNK         0.1400 
     33 CB          1.5306  -16.4895  -40.4031 C.3       8 UNK        -0.1800 
     34 N          -0.0178  -17.6399  -41.9233 N.am      8 UNK        -0.5000 
     35 C          -0.8968  -18.5501  -42.3700 C.2       7 UNK         0.5000 
     36 O          -1.0921  -19.6346  -41.8227 O.2       7 UNK        -0.5000 
     37 CA         -1.6587  -18.2189  -43.6651 C.3       7 UNK         0.1400 
     38 CB         -2.8405  -17.2793  -43.3853 C.3       7 UNK        -0.1800 
     39 N          -0.7901  -17.6308  -44.6815 N.am      7 UNK        -0.5000 
     40 C           0.1718  -18.2939  -45.3380 C.2       6 UNK         0.5000 
     41 O           0.3644  -19.5064  -45.2275 O.2       6 UNK        -0.5000 
     42 CA          1.0844  -17.4560  -46.2526 C.3       6 UNK         0.1400 
     43 CB          0.4506  -17.2903  -47.6367 C.3       6 UNK        -0.1800 
     44 N           1.3830  -16.1325  -45.7067 N.am      6 UNK        -0.5000 
     45 C           2.0692  -15.9075  -44.5790 C.2       5 UNK         0.5000 
     46 O           2.5527  -16.7978  -43.8824 O.2       5 UNK        -0.5000 
     47 CA          2.1856  -14.4436  -44.1238 C.3       5 UNK         0.1400 
     48 CB          3.3094  -13.7173  -44.8796 C.3       5 UNK        -0.1800 
     49 N           0.9230  -13.7228  -44.2899 N.am      5 UNK        -0.5000 
     50 C          -0.1773  -13.9535  -43.5590 C.2       4 UNK         0.5000 
     51 O          -0.2305  -14.7783  -42.6473 O.2       4 UNK        -0.5000 
     52 CA         -1.4404  -13.1577  -43.9365 C.3       4 UNK         0.1400 
     53 CB         -1.4171  -11.7650  -43.2893 C.3       4 UNK        -0.1800 
     54 N          -1.6067  -13.0177  -45.3839 N.am      4 UNK        -0.5000 
     55 C          -1.8489  -14.0382  -46.2189 C.2       3 UNK         0.5000 
     56 O          -1.9937  -15.2028  -45.8511 O.2       3 UNK        -0.5000 
     57 CA         -1.8683  -13.7090  -47.7240 C.3       3 UNK         0.1400 
     58 CB         -3.2663  -13.2555  -48.1679 C.3       3 UNK        -0.1800 
     59 N          -0.8754  -12.7053  -48.1194 N.am      3 UNK        -0.5000 
     60 C           0.4449  -12.8553  -47.9573 C.2       2 UNK         0.5000 
     61 O           0.9570  -13.8478  -47.4306 O.2       2 UNK        -0.5000 
     62 CA          1.3380  -11.6953  -48.4160 C.3       2 UNK         0.1400 
     63 CB          1.1981  -10.4821  -47.4785 C.3       2 UNK        -0.1800 
     64 N           2.7123  -12.1735  -48.3987 N.am      2 UNK        -0.5000 
     65 C           3.7406  -11.6890  -49.0953 C.2       1 UNK         0.5000 
     66 O           3.6596  -10.7251  -49.8621 O.2       1 UNK        -0.5000 
     67 C           0.2241  -22.5945  -47.7712 C.2       11 UNK         0.5000 
     68 O          -0.0101  -23.3356  -48.7262 O.2       11 UNK        -0.5000 
     69 N          -0.5992  -21.6104  -47.3723 N.am      12 UNK        -0.5000 
     70 CA         -1.9340  -21.3635  -47.9207 C.3       12 UNK         0.1400 
     71 CB         -2.4908  -20.0578  -47.3323 C.3       12 UNK        -0.1800 
     72 C          -2.9064  -22.5229  -47.6323 C.2       12 UNK         0.5000 
     73 O          -3.6919  -22.8944  -48.5035 O.2       12 UNK        -0.5000 
     74 N          -2.8224  -23.0839  -46.4171 N.am      13 UNK        -0.5000 
     75 CA         -3.6235  -24.2249  -45.9754 C.3       13 UNK         0.1400 
     76 CB         -3.6117  -24.3018  -44.4409 C.3       13 UNK        -0.1800 
     77 C          -3.1348  -25.5427  -46.5991 C.2       13 UNK         0.5000 
     78 O          -3.9588  -26.3574  -47.0157 O.2       13 UNK        -0.5000 
     79 N          -1.8069  -25.7082  -46.6994 N.am      14 UNK        -0.5000 
     80 CA         -1.1364  -26.8685  -47.2980 C.3       14 UNK         0.1400 
     81 CB          0.3804  -26.7366  -47.0989 C.3       14 UNK        -0.1800 
     82 C          -1.4602  -27.0859  -48.7905 C.2       14 UNK         0.5000 
     83 O          -1.3482  -28.2129  -49.2740 O.2       14 UNK        -0.5000 
     84 N          -1.8857  -26.0200  -49.4840 N.am      15 UNK        -0.5000 
     85 CA         -2.3901  -26.0549  -50.8578 C.3       15 UNK         0.1400 
     86 CB         -2.4698  -24.6166  -51.3928 C.3       15 UNK        -0.1800 
     87 C          -3.7556  -26.7647  -51.0000 C.2       15 UNK         0.5000 
     88 O          -4.1416  -27.0895  -52.1226 O.2       15 UNK        -0.5000 
     89 N          -4.4675  -26.9751  -49.8797 N.am      16 UNK        -0.5000 
     90 CA         -5.7224  -27.7243  -49.7045 C.3       16 UNK         0.1400 
     91 CB         -5.5605  -29.1860  -50.1693 C.3       16 UNK        -0.1800 
     92 C          -6.9869  -27.0769  -50.3103 C.2       16 UNK         0.5000 
     93 O          -8.0962  -27.5411  -50.0170 O.2       16 UNK        -0.5000 
     94 N          -6.8174  -26.0156  -51.1111 N.am      17 UNK        -0.5000 
     95 CA         -7.8866  -25.2615  -51.7672 C.3       17 UNK         0.1400 
     96 CB         -8.0152  -25.7332  -53.2276 C.3       17 UNK        -0.1800 
     97 C          -7.6331  -23.7472  -51.6526 C.2       17 UNK         0.5000 
     98 O          -8.0119  -22.9895  -52.5482 O.2       17 UNK        -0.5000 
     99 N          -6.9494  -23.3311  -50.5719 N.am      18 UNK        -0.5000 
    100 CA        -6.5759  -21.9461  -50.2365 C.3       18 UNK         0.1400 
    101 CB        -7.8489  -21.1163  -49.9627 C.3       18 UNK        -0.1800 
    102 C         -5.6591  -21.2792  -51.2898 C.2       18 UNK         0.5000 
    103 O         -5.6269  -20.0497  -51.3910 O.2       18 UNK        -0.5000 
    104 N         -4.9992  -22.1114  -52.1129 N.am      19 UNK        -0.5000 
    105 CA        -4.2330  -21.7818  -53.3228 C.3       19 UNK         0.1400 
    106 CB        -2.9499  -21.0206  -52.9448 C.3       19 UNK        -0.1800 
    107 C         -5.0492  -21.0245  -54.3978 C.2       19 UNK         0.5000 
    108 O         -4.4567  -20.4408  -55.3063 O.2       19 UNK        -0.5000 
    109 N         -6.3854  -21.0157  -54.2541 N.am      20 UNK        -0.5000 
    110 CA        -7.3583  -20.1807  -54.9633 C.3       20 UNK         0.1400 
    111 CB        -7.4986  -20.6454  -56.4278 C.3       20 UNK        -0.1800 
    112 C         -7.0791  -18.6624  -54.8366 C.2       20 UNK         0.5000 
    113 O         -7.4400  -17.9049  -55.7401 O.2       20 UNK        -0.5000 
    114 N         -6.4332  -18.2360  -53.7393 N.am      21 UNK        -0.5000 
    115 CA        -5.9557  -16.8681  -53.5539 C.3       21 UNK         0.1400 
    116 CB        -4.6469  -16.6532  -54.3457 C.3       21 UNK        -0.1800 
    117 C         -5.8085  -16.5320  -52.0622 C.2       21 UNK         0.5000 
    118 O         -6.7124  -15.9259  -51.4857 O.2       21 UNK        -0.5000 
    119 N         -4.6566  -16.8885  -51.4820 N.am      22 UNK        -0.5000 
    120 CA        -4.2369  -16.5417  -50.1133 C.3       22 UNK         0.1400 
    121 C         -5.0690  -17.1744  -48.9622 C.2       22 UNK         0.5000 
    122 N         -5.7466  -18.2919  -49.1723 N.am      22 UNK        -0.7600 
    123 O         -5.1086  -16.6307  -47.8626 O.2       22 UNK        -0.5000 
    124 C124       -2.7176  -16.7786  -49.9019 C.3       23 UNK        -0.0398 
    125 S125       -2.1647  -18.4314  -50.4457 S.3       23 UNK        -0.2404 
    126 C126       -0.9598  -18.0374  -51.7535 C.3       23 UNK        -0.0205 
    127 H127        7.4122   -8.6369  -48.6658 H         1 UNK         0.0600 
    128 H128        8.5423   -9.7482  -47.8846 H         1 UNK         0.0600 
    129 H129        8.1486   -9.9457  -49.5947 H         1 UNK         0.0600 
    130 H130        6.6922  -11.5853  -49.9808 H         1 UNK         0.3000 
    131 H131        5.1263  -12.7973  -47.8825 H         1 UNK         0.0600 
    132 H132        6.2275  -14.0145  -49.8726 H         1 UNK         0.0800 
    133 H133        4.9587  -13.3823  -50.8817 H         1 UNK         0.0800 
    134 H134        4.1243  -15.6628  -51.6549 H         1 UNK         0.0800 
    135 H135        2.7450  -14.6804  -51.2075 H         1 UNK         0.0800 
    136 H136        0.7732  -15.9111  -51.6616 H         1 UNK         0.1150 
    137 H137        0.4513  -20.0622  -50.6507 H         1 UNK         0.1150 
    138 H138        4.1129  -17.9658  -49.9145 H         1 UNK         0.1150 
    139 H139        2.4457  -21.2793  -50.0769 H         1 UNK         0.0800 
    140 H140        3.9956  -20.4924  -49.8899 H         1 UNK         0.0800 
    141 H141        3.6233  -22.4702  -46.8510 H         1 UNK         0.0800 
    142 H142        3.0227  -22.7865  -48.4432 H         1 UNK         0.0800 
    143 H143        1.6293  -23.9205  -46.8894 H         1 UNK         0.0600 
    144 H144        1.7030  -21.5517  -45.2376 H         1 UNK         0.3000 
    145 H145       -0.6422  -22.0179  -43.2207 H         1 UNK         0.0600 
    146 H146        0.2395  -23.1185  -41.1477 H         1 UNK         0.0600 
    147 H147       -0.4528  -24.2717  -42.2760 H         1 UNK         0.0600 
    148 H148        1.2923  -24.1296  -42.1387 H         1 UNK         0.0600 
    149 H149        0.8661  -20.4800  -42.8767 H         1 UNK         0.3000 
    150 H150        4.0957  -20.2812  -41.7718 H         1 UNK         0.0600 
    151 H151        4.7712  -20.4578  -44.1762 H         1 UNK         0.0600 
    152 H152        4.6493  -18.7770  -43.6797 H         1 UNK         0.0600 
    153 H153        3.3715  -19.5034  -44.6520 H         1 UNK         0.0600 
    154 H154        2.2802  -18.3076  -42.8164 H         1 UNK         0.3000 
    155 H155        0.1996  -18.0920  -39.9072 H         1 UNK         0.0600 
    156 H156        2.1661  -16.1421  -41.2177 H         1 UNK         0.0600 
    157 H157        2.1588  -16.5933  -39.5176 H         1 UNK         0.0600 
    158 H158        0.7993  -15.7089  -40.1928 H         1 UNK         0.0600 
    159 H159        0.0490  -16.7461  -42.4002 H         1 UNK         0.3000 
    160 H160       -2.0597  -19.1538  -44.0613 H         1 UNK         0.0600 
    161 H161       -3.4280  -17.1090  -44.2880 H         1 UNK         0.0600 
    162 H162       -2.5073  -16.3090  -43.0165 H         1 UNK         0.0600 
    163 H163       -3.5097  -17.7047  -42.6366 H         1 UNK         0.0600 
    164 H164       -0.9425  -16.6515  -44.8992 H         1 UNK         0.3000 
    165 H165        2.0300  -17.9884  -46.3652 H         1 UNK         0.0600 
    166 H166        1.0975  -16.7143  -48.2972 H         1 UNK         0.0600 
    167 H167        0.2819  -18.2597  -48.1052 H         1 UNK         0.0600 
    168 H168       -0.5079  -16.7776  -47.5791 H         1 UNK         0.0600 
    169 H169        1.0602  -15.3339  -46.2464 H         1 UNK         0.3000 
    170 H170        2.4390  -14.4411  -43.0616 H         1 UNK         0.0600 
    171 H171        4.2717  -14.1952  -44.6920 H         1 UNK         0.0600 
    172 H172        3.1490  -13.7274  -45.9567 H         1 UNK         0.0600 
    173 H173        3.3951  -12.6782  -44.5613 H         1 UNK         0.0600 
    174 H174        0.8664  -13.0767  -45.0623 H         1 UNK         0.3000 
    175 H175       -2.3041  -13.7012  -43.5473 H         1 UNK         0.0600 
    176 H176       -2.3427  -11.2236  -43.4857 H         1 UNK         0.0600 
    177 H177       -1.3098  -11.8404  -42.2063 H         1 UNK         0.0600 
    178 H178       -0.5886  -11.1603  -43.6603 H         1 UNK         0.0600 
    179 H179       -1.4973  -12.0924  -45.7712 H         1 UNK         0.3000 
    180 H180       -1.6209  -14.6268  -48.2570 H         1 UNK         0.0600 
    181 H181       -3.5460  -12.3060  -47.7100 H         1 UNK         0.0600 
    182 H182       -4.0221  -13.9899  -47.8860 H         1 UNK         0.0600 
    183 H183       -3.3178  -13.1359  -49.2502 H         1 UNK         0.0600 
    184 H184       -1.2286  -11.8625  -48.5495 H         1 UNK         0.3000 
    185 H185        1.0571  -11.4208  -49.4348 H         1 UNK         0.0600 
    186 H186        1.4612  -10.7365  -46.4508 H         1 UNK         0.0600 
    187 H187        1.8450   -9.6631  -47.7937 H         1 UNK         0.0600 
    188 H188        0.1767  -10.1006  -47.4734 H         1 UNK         0.0600 
    189 H189        2.8237  -13.0320  -47.8719 H         1 UNK         0.3000 
    190 H190       -0.3043  -21.0235  -46.5998 H         1 UNK         0.3000 
    191 H191       -1.8459  -21.2515  -49.0035 H         1 UNK         0.0600 
    192 H192       -1.8386  -19.2137  -47.5497 H         1 UNK         0.0600 
    193 H193       -2.6072  -20.1171  -46.2500 H         1 UNK         0.0600 
    194 H194       -3.4686  -19.8255  -47.7566 H         1 UNK         0.0600 
    195 H195       -2.1205  -22.7476  -45.7758 H         1 UNK         0.3000 
    196 H196       -4.6556  -24.0665  -46.2959 H         1 UNK         0.0600 
    197 H197       -4.2406  -25.1207  -44.0893 H         1 UNK         0.0600 
    198 H198       -3.9968  -23.3836  -43.9972 H         1 UNK         0.0600 
    199 H199       -2.6091  -24.4693  -44.0473 H         1 UNK         0.0600 
    200 H200       -1.2035  -25.0147  -46.2666 H         1 UNK         0.3000 
    201 H201       -1.4765  -27.7541  -46.7576 H         1 UNK         0.0600 
    202 H202        0.6341  -26.5758  -46.0509 H         1 UNK         0.0600 
    203 H203        0.7859  -25.9083  -47.6790 H         1 UNK         0.0600 
    204 H204        0.8949  -27.6421  -47.4229 H         1 UNK         0.0600 
    205 H205       -1.9045  -25.1237  -49.0168 H         1 UNK         0.3000 
    206 H206       -1.6716  -26.6062  -51.4679 H         1 UNK         0.0600 
    207 H207       -1.5033  -24.1157  -51.3274 H         1 UNK         0.0600 
    208 H208       -2.7702  -24.6047  -52.4411 H         1 UNK         0.0600 
    209 H209       -3.1915  -24.0201  -50.8356 H         1 UNK         0.0600 
    210 H210       -4.0725  -26.6381  -49.0069 H         1 UNK         0.3000 
    211 H211       -5.8930  -27.7460  -48.6267 H         1 UNK         0.0600 
    212 H212       -5.4391  -29.2590  -51.2506 H         1 UNK         0.0600 
    213 H213       -6.4349  -29.7803  -49.9012 H         1 UNK         0.0600 
    214 H214       -4.6947  -29.6549  -49.7006 H         1 UNK         0.0600 
    215 H215       -5.8658  -25.7427  -51.3364 H         1 UNK         0.3000 
    216 H216       -8.8377  -25.4435  -51.2631 H         1 UNK         0.0600 
    217 H217       -8.8387  -25.2293  -53.7353 H         1 UNK         0.0600 
    218 H218       -8.2126  -26.8042  -53.2781 H         1 UNK         0.0600 
    219 H219       -7.1048  -25.5338  -53.7941 H         1 UNK         0.0600 
    220 H220       -6.6738  -24.0300  -49.8956 H         1 UNK         0.3000 
    221 H221       -6.0038  -21.9893  -49.3099 H         1 UNK         0.0600 
    222 H222       -8.4182  -20.9319  -50.8744 H         1 UNK         0.0600 
    223 H223       -8.5054  -21.6239  -49.2560 H         1 UNK         0.0600 
    224 H224       -7.6103  -20.1462  -49.5321 H         1 UNK         0.0600 
    225 H225       -5.1236  -23.0970  -51.9416 H         1 UNK         0.3000 
    226 H226       -3.9414  -22.7325  -53.7709 H         1 UNK         0.0600 
    227 H227       -2.4175  -21.5092  -52.1285 H         1 UNK         0.0600 
    228 H228       -2.2651  -20.9580  -53.7910 H         1 UNK         0.0600 
    229 H229       -3.1809  -20.0020  -52.6367 H         1 UNK         0.0600 
    230 H230       -6.7774  -21.5716  -53.5016 H         1 UNK         0.3000 
    231 H231       -8.3160  -20.3516  -54.4699 H         1 UNK         0.0600 
    232 H232       -7.7038  -21.7145  -56.4834 H         1 UNK         0.0600 
    233 H233       -6.5942  -20.4467  -57.0035 H         1 UNK         0.0600 
    234 H234       -8.3226  -20.1330  -56.9254 H         1 UNK         0.0600 
    235 H235       -6.1950  -18.8984  -53.0067 H         1 UNK         0.3000 
    236 H236       -6.7025  -16.1751  -53.9477 H         1 UNK         0.0600 
    237 H237       -4.2129  -15.6752  -54.1336 H         1 UNK         0.0600 
    238 H238       -3.8978  -17.4102  -54.1097 H         1 UNK         0.0600 
    239 H239       -4.8275  -16.6972  -55.4198 H         1 UNK         0.0600 
    240 H240       -3.9940  -17.4374  -52.0089 H         1 UNK         0.3000 
    241 H241       -4.3995  -15.4668  -50.0157 H         1 UNK         0.0600 
    242 H242       -6.2919  -18.6795  -48.4214 H         1 UNK         0.3800 
    243 H243       -5.6888  -18.7741  -50.0661 H         1 UNK         0.3800 
    244 H244       -2.1509  -16.0120  -50.4307 H         1 UNK         0.0800 
    245 H245       -2.4521  -16.6664  -48.8508 H         1 UNK         0.0800 
    246 H246       -1.2281  -17.1075  -52.2565 H         1 UNK         0.0800 
    247 H247       -1.0069  -18.8151  -52.5163 H         1 UNK         0.0800 
@<TRIPOS>BOND
     1    1    2 1    
     2    1  127 1    
     3    1  128 1    
     4    1  129 1    
     5    2    3 2    
     6    2    4 am   BACKBONE|DICT|INTERRES
     7    4    5 1    
     8    4  130 1    
     9    5    6 1    
    10    5   65 1    
    11    5  131 1    
    12    6    7 1    
    13    6  132 1    
    14    6  133 1    
    15    7    8 1    
    16    8    9 1    
    17    8  134 1    
    18    8  135 1    
    19    9   10 ar   
    20    9   14 ar   
    21   10   11 ar   
    22   10  136 1    
    23   11   12 ar   
    24   11  126 1    
    25   12   13 ar   
    26   12  137 1    
    27   13   14 ar   
    28   13   15 1    
    29   14  138 1    
    30   15   16 1    
    31   15  139 1    
    32   15  140 1    
    33   16   17 1    
    34   17   18 1    
    35   17  141 1    
    36   17  142 1    
    37   18   19 1    
    38   18   67 1    
    39   18  143 1    
    40   19   20 am   BACKBONE|DICT|INTERRES
    41   19  144 1    
    42   20   21 2    
    43   20   22 1    
    44   22   23 1    
    45   22   24 1    
    46   22  145 1    
    47   23  146 1    
    48   23  147 1    
    49   23  148 1    
    50   24   25 am   BACKBONE|DICT|INTERRES
    51   24  149 1    
    52   25   26 2    
    53   25   27 1    
    54   27   28 1    
    55   27   29 1    
    56   27  150 1    
    57   28  151 1    
    58   28  152 1    
    59   28  153 1    
    60   29   30 am   BACKBONE|DICT|INTERRES
    61   29  154 1    
    62   30   31 2    
    63   30   32 1    
    64   32   33 1    
    65   32   34 1    
    66   32  155 1    
    67   33  156 1    
    68   33  157 1    
    69   33  158 1    
    70   34   35 am   BACKBONE|DICT|INTERRES
    71   34  159 1    
    72   35   36 2    
    73   35   37 1    
    74   37   38 1    
    75   37   39 1    
    76   37  160 1    
    77   38  161 1    
    78   38  162 1    
    79   38  163 1    
    80   39   40 am   BACKBONE|DICT|INTERRES
    81   39  164 1    
    82   40   41 2    
    83   40   42 1    
    84   42   43 1    
    85   42   44 1    
    86   42  165 1    
    87   43  166 1    
    88   43  167 1    
    89   43  168 1    
    90   44   45 am   BACKBONE|DICT|INTERRES
    91   44  169 1    
    92   45   46 2    
    93   45   47 1    
    94   47   48 1    
    95   47   49 1    
    96   47  170 1    
    97   48  171 1    
    98   48  172 1    
    99   48  173 1    
   100   49   50 am   BACKBONE|DICT|INTERRES
   101   49  174 1    
   102   50   51 2    
   103   50   52 1    
   104   52   53 1    
   105   52   54 1    
   106   52  175 1    
   107   53  176 1    
   108   53  177 1    
   109   53  178 1    
   110   54   55 am   BACKBONE|DICT|INTERRES
   111   54  179 1    
   112   55   56 2    
   113   55   57 1    
   114   57   58 1    
   115   57   59 1    
   116   57  180 1    
   117   58  181 1    
   118   58  182 1    
   119   58  183 1    
   120   59   60 am   BACKBONE|DICT|INTERRES
   121   59  184 1    
   122   60   61 2    
   123   60   62 1    
   124   62   63 1    
   125   62   64 1    
   126   62  185 1    
   127   63  186 1    
   128   63  187 1    
   129   63  188 1    
   130   64   65 am   BACKBONE|DICT|INTERRES
   131   64  189 1    
   132   65   66 2    
   133   67   68 2    
   134   67   69 am   BACKBONE|DICT|INTERRES
   135   69   70 1    
   136   69  190 1    
   137   70   71 1    
   138   70   72 1    
   139   70  191 1    
   140   71  192 1    
   141   71  193 1    
   142   71  194 1    
   143   72   73 2    
   144   72   74 am   BACKBONE|DICT|INTERRES
   145   74   75 1    
   146   74  195 1    
   147   75   76 1    
   148   75   77 1    
   149   75  196 1    
   150   76  197 1    
   151   76  198 1    
   152   76  199 1    
   153   77   78 2    
   154   77   79 am   BACKBONE|DICT|INTERRES
   155   79   80 1    
   156   79  200 1    
   157   80   81 1    
   158   80   82 1    
   159   80  201 1    
   160   81  202 1    
   161   81  203 1    
   162   81  204 1    
   163   82   83 2    
   164   82   84 am   BACKBONE|DICT|INTERRES
   165   84   85 1    
   166   84  205 1    
   167   85   86 1    
   168   85   87 1    
   169   85  206 1    
   170   86  207 1    
   171   86  208 1    
   172   86  209 1    
   173   87   88 2    
   174   87   89 am   BACKBONE|DICT|INTERRES
   175   89   90 1    
   176   89  210 1    
   177   90   91 1    
   178   90   92 1    
   179   90  211 1    
   180   91  212 1    
   181   91  213 1    
   182   91  214 1    
   183   92   93 2    
   184   92   94 am   BACKBONE|DICT|INTERRES
   185   94   95 1    
   186   94  215 1    
   187   95   96 1    
   188   95   97 1    
   189   95  216 1    
   190   96  217 1    
   191   96  218 1    
   192   96  219 1    
   193   97   98 2    
   194   97   99 am   BACKBONE|DICT|INTERRES
   195   99  100 1    
   196   99  220 1    
   197  100  101 1    
   198  100  102 1    
   199  100  221 1    
   200  101  222 1    
   201  101  223 1    
   202  101  224 1    
   203  102  103 2    
   204  102  104 am   BACKBONE|DICT|INTERRES
   205  104  105 1    
   206  104  225 1    
   207  105  106 1    
   208  105  107 1    
   209  105  226 1    
   210  106  227 1    
   211  106  228 1    
   212  106  229 1    
   213  107  108 2    
   214  107  109 am   BACKBONE|DICT|INTERRES
   215  109  110 1    
   216  109  230 1    
   217  110  111 1    
   218  110  112 1    
   219  110  231 1    
   220  111  232 1    
   221  111  233 1    
   222  111  234 1    
   223  112  113 2    
   224  112  114 am   BACKBONE|DICT|INTERRES
   225  114  115 1    
   226  114  235 1    
   227  115  116 1    
   228  115  117 1    
   229  115  236 1    
   230  116  237 1    
   231  116  238 1    
   232  116  239 1    
   233  117  118 2    
   234  117  119 am   BACKBONE|DICT|INTERRES
   235  119  120 1    
   236  119  240 1    
   237  120  121 1    
   238  120  124 1    
   239  120  241 1    
   240  121  122 am   BACKBONE|DICT|INTERRES
   241  121  123 2    
   242  122  242 1    
   243  122  243 1    
   244  124  125 1    
   245  124  244 1    
   246  124  245 1    
   247  125  126 1    
   248  126  246 1    
   249  126  247 1    
@<TRIPOS>SUBSTRUCTURE
     1 UNK         1 GROUP             0       ****    0 ROOT    
