@<TRIPOS>MOLECULE
3R540
247   249    1
SMALL
USER_CHARGES


@<TRIPOS>ATOM
      1 CA          1.2454  -11.8446  -51.2997 C.3       0 UNK        -0.1800 
      2 C           0.9480  -12.4825  -49.9516 C.2       0 UNK         0.5000 
      3 O           1.8552  -12.6501  -49.1372 O.2       0 UNK        -0.5000 
      4 N          -0.3217  -12.8251  -49.6991 N.am      1 UNK        -0.5000 
      5 CA         -0.7776  -13.5117  -48.4815 C.3       1 UNK         0.1400 
      6 C6         -2.2545  -13.9806  -48.5610 C.3       23 UNK        -0.0398 
      7 S7         -2.7478  -14.6886  -50.1726 S.3       23 UNK        -0.2404 
      8 C8         -2.2304  -16.4309  -50.0271 C.3       23 UNK        -0.0205 
      9 C9         -0.7217  -16.6300  -50.1327 C.ar      23 UNK        -0.0193 
     10 C10         0.0242  -16.0091  -51.1412 C.ar      23 UNK        -0.1150 
     11 C11         1.4065  -16.1963  -51.2217 C.ar      23 UNK        -0.0193 
     12 C12         2.0398  -17.0403  -50.3043 C.ar      23 UNK        -0.1150 
     13 C13         1.3078  -17.6800  -49.3001 C.ar      23 UNK        -0.0193 
     14 C14        -0.0708  -17.4588  -49.2165 C.ar      23 UNK        -0.1150 
     15 C15         2.0192  -18.5595  -48.2777 C.3       23 UNK        -0.0205 
     16 S16         1.9411  -20.3369  -48.6705 S.3       23 UNK        -0.2404 
     17 C17         0.1836  -20.7279  -48.3819 C.3       23 UNK        -0.0398 
     18 CA         -0.0304  -22.1261  -47.7554 C.3       11 UNK         0.1400 
     19 N           0.3280  -22.1723  -46.3339 N.am      11 UNK        -0.5000 
     20 C           0.3322  -23.2850  -45.5847 C.2       10 UNK         0.5000 
     21 O           0.1129  -24.4125  -46.0283 O.2       10 UNK        -0.5000 
     22 CA          0.5525  -23.1004  -44.0737 C.3       10 UNK         0.1400 
     23 CB          2.0434  -22.9344  -43.7419 C.3       10 UNK        -0.1800 
     24 N          -0.2093  -21.9667  -43.5472 N.am      10 UNK        -0.5000 
     25 C          -1.5462  -21.9406  -43.4421 C.2       9 UNK         0.5000 
     26 O          -2.2724  -22.8856  -43.7468 O.2       9 UNK        -0.5000 
     27 CA         -2.1825  -20.6267  -42.9515 C.3       9 UNK         0.1400 
     28 CB         -2.1729  -20.5585  -41.4174 C.3       9 UNK        -0.1800 
     29 N          -1.5142  -19.4440  -43.4922 N.am      9 UNK        -0.5000 
     30 C          -1.5070  -19.1021  -44.7886 C.2       8 UNK         0.5000 
     31 O          -2.1135  -19.7167  -45.6643 O.2       8 UNK        -0.5000 
     32 CA         -0.6093  -17.9190  -45.1876 C.3       8 UNK         0.1400 
     33 CB         -1.3865  -16.5972  -45.1475 C.3       8 UNK        -0.1800 
     34 N           0.6076  -17.8321  -44.3734 N.am      8 UNK        -0.5000 
     35 C           1.5585  -18.7823  -44.3571 C.2       7 UNK         0.5000 
     36 O           1.5003  -19.7941  -45.0557 O.2       7 UNK        -0.5000 
     37 CA          2.7515  -18.6180  -43.3972 C.3       7 UNK         0.1400 
     38 CB          4.0452  -18.3316  -44.1740 C.3       7 UNK        -0.1800 
     39 N           2.5419  -17.5830  -42.3849 N.am      7 UNK        -0.5000 
     40 C           1.7580  -17.7358  -41.3070 C.2       6 UNK         0.5000 
     41 O           1.1572  -18.7793  -41.0484 O.2       6 UNK        -0.5000 
     42 CA          1.5775  -16.5106  -40.3870 C.3       6 UNK         0.1400 
     43 CB          2.6025  -16.5409  -39.2437 C.3       6 UNK        -0.1800 
     44 N           1.6801  -15.2286  -41.0893 N.am      6 UNK        -0.5000 
     45 C           0.8680  -14.8308  -42.0779 C.2       5 UNK         0.5000 
     46 O          -0.0830  -15.5000  -42.4783 O.2       5 UNK        -0.5000 
     47 CA          1.1907  -13.4965  -42.7770 C.3       5 UNK         0.1400 
     48 CB          2.0996  -12.5581  -41.9531 C.3       5 UNK        -0.1800 
     49 N           1.7588  -13.7124  -44.1095 N.am      5 UNK        -0.5000 
     50 C           2.8608  -14.4109  -44.4238 C.2       4 UNK         0.5000 
     51 O           3.5357  -15.0411  -43.6084 O.2       4 UNK        -0.5000 
     52 CA          3.3029  -14.3670  -45.8990 C.3       4 UNK         0.1400 
     53 CB          2.5119  -15.3806  -46.7392 C.3       4 UNK        -0.1800 
     54 N           3.1630  -13.0309  -46.4808 N.am      4 UNK        -0.5000 
     55 C           3.8592  -11.9513  -46.0921 C.2       3 UNK         0.5000 
     56 O           4.7748  -11.9843  -45.2691 O.2       3 UNK        -0.5000 
     57 CA          3.4431  -10.6014  -46.7021 C.3       3 UNK         0.1400 
     58 CB          4.1690  -10.3468  -48.0324 C.3       3 UNK        -0.1800 
     59 N           1.9956  -10.5312  -46.9049 N.am      3 UNK        -0.5000 
     60 C           1.1120  -10.2637  -45.9319 C.2       2 UNK         0.5000 
     61 O           1.4325   -9.9638  -44.7817 O.2       2 UNK        -0.5000 
     62 CA         -0.3830  -10.3580  -46.2946 C.3       2 UNK         0.1400 
     63 CB         -0.9193   -8.9853  -46.7278 C.3       2 UNK        -0.1800 
     64 N          -0.6582  -11.3334  -47.3505 N.am      2 UNK        -0.5000 
     65 C          -0.5508  -12.6626  -47.2104 C.2       1 UNK         0.5000 
     66 O          -0.2449  -13.2097  -46.1517 O.2       1 UNK        -0.5000 
     67 C          -1.4760  -22.6120  -47.9896 C.2       11 UNK         0.5000 
     68 O          -1.6883  -23.4507  -48.8634 O.2       11 UNK        -0.5000 
     69 N          -2.4345  -22.1190  -47.1904 N.am      12 UNK        -0.5000 
     70 CA         -3.8405  -22.5274  -47.2385 C.3       12 UNK         0.1400 
     71 CB         -4.6761  -21.6495  -46.2966 C.3       12 UNK        -0.1800 
     72 C          -4.0478  -24.0181  -46.9215 C.2       12 UNK         0.5000 
     73 O          -4.8316  -24.6732  -47.6072 O.2       12 UNK        -0.5000 
     74 N          -3.3234  -24.5391  -45.9212 N.am      13 UNK        -0.5000 
     75 CA         -3.3181  -25.9571  -45.5606 C.3       13 UNK         0.1400 
     76 CB         -2.5361  -26.1631  -44.2547 C.3       13 UNK        -0.1800 
     77 C          -2.7599  -26.8465  -46.6859 C.2       13 UNK         0.5000 
     78 O          -3.3846  -27.8513  -47.0277 O.2       13 UNK        -0.5000 
     79 N          -1.6272  -26.4369  -47.2758 N.am      14 UNK        -0.5000 
     80 CA         -0.9919  -27.1051  -48.4152 C.3       14 UNK         0.1400 
     81 CB          0.3756  -26.4606  -48.6871 C.3       14 UNK        -0.1800 
     82 C          -1.8633  -27.0918  -49.6865 C.2       14 UNK         0.5000 
     83 O          -1.8871  -28.0803  -50.4203 O.2       14 UNK        -0.5000 
     84 N          -2.5889  -25.9874  -49.9015 N.am      15 UNK        -0.5000 
     85 CA         -3.5371  -25.7933  -50.9987 C.3       15 UNK         0.1400 
     86 CB         -3.6931  -24.2854  -51.2456 C.3       15 UNK        -0.1800 
     87 C          -4.9126  -26.4518  -50.7587 C.2       15 UNK         0.5000 
     88 O          -5.7777  -26.3454  -51.6276 O.2       15 UNK        -0.5000 
     89 N          -5.1055  -27.0999  -49.5996 N.am      16 UNK        -0.5000 
     90 CA         -6.3220  -27.7915  -49.1602 C.3       16 UNK         0.1400 
     91 CB         -6.5972  -29.0291  -50.0399 C.3       16 UNK        -0.1800 
     92 C          -7.5376  -26.8479  -49.0345 C.2       16 UNK         0.5000 
     93 O          -8.6302  -27.1706  -49.5042 O.2       16 UNK        -0.5000 
     94 N          -7.3081  -25.6934  -48.3940 N.am      17 UNK        -0.5000 
     95 CA         -8.2626  -24.6225  -48.0860 C.3       17 UNK         0.1400 
     96 CB         -9.4373  -25.1380  -47.2276 C.3       17 UNK        -0.1800 
     97 C          -8.7248  -23.8066  -49.3117 C.2       17 UNK         0.5000 
     98 O          -9.7178  -23.0818  -49.2193 O.2       17 UNK        -0.5000 
     99 N          -7.9829  -23.8957  -50.4234 N.am      18 UNK        -0.5000 
    100 CA        -8.1191  -23.0146  -51.5841 C.3       18 UNK         0.1400 
    101 CB        -7.5300  -23.7239  -52.8148 C.3       18 UNK        -0.1800 
    102 C         -7.4389  -21.6498  -51.3355 C.2       18 UNK         0.5000 
    103 O         -6.8463  -21.4319  -50.2752 O.2       18 UNK        -0.5000 
    104 N         -7.5254  -20.7535  -52.3300 N.am      19 UNK        -0.5000 
    105 CA        -6.9744  -19.3914  -52.2981 C.3       19 UNK         0.1400 
    106 CB        -7.3987  -18.6490  -53.5745 C.3       19 UNK        -0.1800 
    107 C         -5.4430  -19.3211  -52.1235 C.2       19 UNK         0.5000 
    108 O         -4.9429  -18.3257  -51.6011 O.2       19 UNK        -0.5000 
    109 N         -4.7374  -20.3751  -52.5589 N.am      20 UNK        -0.5000 
    110 CA        -3.3168  -20.6909  -52.3507 C.3       20 UNK         0.1400 
    111 CB        -3.0028  -20.7954  -50.8483 C.3       20 UNK        -0.1800 
    112 C         -2.2926  -19.7740  -53.0484 C.2       20 UNK         0.5000 
    113 O         -1.1856  -20.2357  -53.3266 O.2       20 UNK        -0.5000 
    114 N         -2.6543  -18.5143  -53.3168 N.am      21 UNK        -0.5000 
    115 CA        -1.8218  -17.5131  -53.9795 C.3       21 UNK         0.1400 
    116 CB        -2.5611  -16.1650  -53.9748 C.3       21 UNK        -0.1800 
    117 C         -1.4708  -17.9314  -55.4256 C.2       21 UNK         0.5000 
    118 O         -2.3905  -18.0885  -56.2294 O.2       21 UNK        -0.5000 
    119 N         -0.1975  -18.1098  -55.7945 N.am      22 UNK        -0.5000 
    120 CA         1.0201  -18.0883  -54.9753 C.3       22 UNK         0.1400 
    121 C          2.0834  -18.9837  -55.6670 C.2       22 UNK         0.5000 
    122 N          2.8039  -19.8076  -54.9188 N.am      22 UNK        -0.7600 
    123 O          2.2695  -18.9264  -56.8814 O.2       22 UNK        -0.5000 
    124 C124        1.5251  -16.6383  -54.7461 C.3       23 UNK        -0.0398 
    125 S125        2.9023  -16.5260  -53.5502 S.3       23 UNK        -0.2404 
    126 C126        2.2298  -15.4401  -52.2538 C.3       23 UNK        -0.0205 
    127 H127        0.4012  -11.9341  -51.9836 H         1 UNK         0.0600 
    128 H128        2.1085  -12.3250  -51.7600 H         1 UNK         0.0600 
    129 H129        1.4737  -10.7869  -51.1701 H         1 UNK         0.0600 
    130 H130       -1.0302  -12.6816  -50.4049 H         1 UNK         0.3000 
    131 H131       -0.1571  -14.4040  -48.3792 H         1 UNK         0.0600 
    132 H132       -2.9283  -13.1416  -48.3772 H         1 UNK         0.0800 
    133 H133       -2.4620  -14.7071  -47.7736 H         1 UNK         0.0800 
    134 H134       -2.6176  -16.8384  -49.0920 H         1 UNK         0.0800 
    135 H135       -2.7047  -17.0030  -50.8238 H         1 UNK         0.0800 
    136 H136       -0.4691  -15.3567  -51.8471 H         1 UNK         0.1150 
    137 H137        3.1097  -17.1828  -50.3631 H         1 UNK         0.1150 
    138 H138       -0.6488  -17.9289  -48.4377 H         1 UNK         0.1150 
    139 H139        3.0697  -18.2725  -48.2135 H         1 UNK         0.0800 
    140 H140        1.6103  -18.3855  -47.2869 H         1 UNK         0.0800 
    141 H141       -0.3104  -20.6432  -49.3501 H         1 UNK         0.0800 
    142 H142       -0.2665  -19.9747  -47.7381 H         1 UNK         0.0800 
    143 H143        0.6210  -22.8326  -48.2746 H         1 UNK         0.0600 
    144 H144        0.5814  -21.2911  -45.8960 H         1 UNK         0.3000 
    145 H145        0.1983  -24.0044  -43.5736 H         1 UNK         0.0600 
    146 H146        2.1995  -22.8282  -42.6683 H         1 UNK         0.0600 
    147 H147        2.6105  -23.8072  -44.0677 H         1 UNK         0.0600 
    148 H148        2.4791  -22.0641  -44.2320 H         1 UNK         0.0600 
    149 H149        0.3122  -21.1325  -43.3234 H         1 UNK         0.3000 
    150 H150       -3.2213  -20.6124  -43.2878 H         1 UNK         0.0600 
    151 H151       -2.6813  -21.4215  -40.9854 H         1 UNK         0.0600 
    152 H152       -2.6867  -19.6662  -41.0593 H         1 UNK         0.0600 
    153 H153       -1.1570  -20.5422  -41.0204 H         1 UNK         0.0600 
    154 H154       -0.9697  -18.8919  -42.8447 H         1 UNK         0.3000 
    155 H155       -0.3028  -18.0814  -46.2178 H         1 UNK         0.0600 
    156 H156       -1.8321  -16.4193  -44.1687 H         1 UNK         0.0600 
    157 H157       -2.1977  -16.6038  -45.8764 H         1 UNK         0.0600 
    158 H158       -0.7420  -15.7512  -45.3844 H         1 UNK         0.0600 
    159 H159        0.6751  -17.0421  -43.7424 H         1 UNK         0.3000 
    160 H160        2.8815  -19.5750  -42.8872 H         1 UNK         0.0600 
    161 H161        3.9925  -17.3942  -44.7248 H         1 UNK         0.0600 
    162 H162        4.2490  -19.1227  -44.8971 H         1 UNK         0.0600 
    163 H163        4.9028  -18.2769  -43.5034 H         1 UNK         0.0600 
    164 H164        2.9719  -16.6798  -42.5624 H         1 UNK         0.3000 
    165 H165        0.5776  -16.5726  -39.9527 H         1 UNK         0.0600 
    166 H166        2.4315  -15.7277  -38.5381 H         1 UNK         0.0600 
    167 H167        2.5357  -17.4747  -38.6838 H         1 UNK         0.0600 
    168 H168        3.6238  -16.4540  -39.6170 H         1 UNK         0.0600 
    169 H169        2.4634  -14.6396  -40.8467 H         1 UNK         0.3000 
    170 H170        0.2371  -12.9879  -42.9259 H         1 UNK         0.0600 
    171 H171        1.6773  -12.3680  -40.9656 H         1 UNK         0.0600 
    172 H172        3.1027  -12.9630  -41.8164 H         1 UNK         0.0600 
    173 H173        2.2038  -11.5923  -42.4483 H         1 UNK         0.0600 
    174 H174        1.2138  -13.3263  -44.8752 H         1 UNK         0.3000 
    175 H175        4.3589  -14.6416  -45.9403 H         1 UNK         0.0600 
    176 H176        1.4405  -15.1872  -46.7123 H         1 UNK         0.0600 
    177 H177        2.8282  -15.3631  -47.7824 H         1 UNK         0.0600 
    178 H178        2.6648  -16.3929  -46.3686 H         1 UNK         0.0600 
    179 H179        2.4822  -12.9224  -47.2247 H         1 UNK         0.3000 
    180 H180        3.7400   -9.8140  -46.0058 H         1 UNK         0.0600 
    181 H181        3.9487  -11.1157  -48.7728 H         1 UNK         0.0600 
    182 H182        5.2498  -10.3359  -47.8872 H         1 UNK         0.0600 
    183 H183        3.8885   -9.3826  -48.4564 H         1 UNK         0.0600 
    184 H184        1.6543  -10.8238  -47.8101 H         1 UNK         0.3000 
    185 H185       -0.9216  -10.6676  -45.3962 H         1 UNK         0.0600 
    186 H186       -0.7528   -8.2382  -45.9506 H         1 UNK         0.0600 
    187 H187       -0.4299   -8.6295  -47.6354 H         1 UNK         0.0600 
    188 H188       -1.9924   -9.0224  -46.9163 H         1 UNK         0.0600 
    189 H189       -0.9018  -10.9654  -48.2587 H         1 UNK         0.3000 
    190 H190       -2.2007  -21.3917  -46.5193 H         1 UNK         0.3000 
    191 H191       -4.2005  -22.3604  -48.2548 H         1 UNK         0.0600 
    192 H192       -4.3455  -21.7403  -45.2619 H         1 UNK         0.0600 
    193 H193       -5.7294  -21.9307  -46.3326 H         1 UNK         0.0600 
    194 H194       -4.6115  -20.5986  -46.5788 H         1 UNK         0.0600 
    195 H195       -2.7440  -23.9233  -45.3588 H         1 UNK         0.3000 
    196 H196       -4.3529  -26.2581  -45.3836 H         1 UNK         0.0600 
    197 H197       -2.5302  -27.2144  -43.9645 H         1 UNK         0.0600 
    198 H198       -2.9854  -25.6023  -43.4351 H         1 UNK         0.0600 
    199 H199       -1.4987  -25.8422  -44.3490 H         1 UNK         0.0600 
    200 H200       -1.1592  -25.6087  -46.9175 H         1 UNK         0.3000 
    201 H201       -0.8271  -28.1484  -48.1388 H         1 UNK         0.0600 
    202 H202        1.0266  -26.5358  -47.8159 H         1 UNK         0.0600 
    203 H203        0.2793  -25.4044  -48.9408 H         1 UNK         0.0600 
    204 H204        0.8831  -26.9539  -49.5170 H         1 UNK         0.0600 
    205 H205       -2.4493  -25.1907  -49.2859 H         1 UNK         0.3000 
    206 H206       -3.1175  -26.2407  -51.9019 H         1 UNK         0.0600 
    207 H207       -2.7232  -23.8069  -51.3807 H         1 UNK         0.0600 
    208 H208       -4.2696  -24.0929  -52.1491 H         1 UNK         0.0600 
    209 H209       -4.1996  -23.7943  -50.4140 H         1 UNK         0.0600 
    210 H210       -4.3440  -27.1031  -48.9325 H         1 UNK         0.3000 
    211 H211       -6.1149  -28.1505  -48.1510 H         1 UNK         0.0600 
    212 H212       -6.8599  -28.7527  -51.0614 H         1 UNK         0.0600 
    213 H213       -7.4235  -29.6167  -49.6384 H         1 UNK         0.0600 
    214 H214       -5.7260  -29.6828  -50.0827 H         1 UNK         0.0600 
    215 H215       -6.3519  -25.4953  -48.0987 H         1 UNK         0.3000 
    216 H216       -7.7049  -23.9165  -47.4691 H         1 UNK         0.0600 
    217 H217      -10.0345  -24.3096  -46.8450 H         1 UNK         0.0600 
    218 H218       -9.0793  -25.7014  -46.3660 H         1 UNK         0.0600 
    219 H219      -10.1065  -25.7824  -47.7979 H         1 UNK         0.0600 
    220 H220       -7.1842  -24.5138  -50.4163 H         1 UNK         0.3000 
    221 H221       -9.1798  -22.8330  -51.7688 H         1 UNK         0.0600 
    222 H222       -6.4521  -23.8493  -52.7296 H         1 UNK         0.0600 
    223 H223       -7.9691  -24.7132  -52.9464 H         1 UNK         0.0600 
    224 H224       -7.7240  -23.1640  -53.7300 H         1 UNK         0.0600 
    225 H225       -8.0299  -21.0067  -53.1673 H         1 UNK         0.3000 
    226 H226       -7.4179  -18.8789  -51.4420 H         1 UNK         0.0600 
    227 H227       -8.4843  -18.6002  -53.6612 H         1 UNK         0.0600 
    228 H228       -7.0289  -17.6226  -53.5715 H         1 UNK         0.0600 
    229 H229       -7.0103  -19.1347  -54.4706 H         1 UNK         0.0600 
    230 H230       -5.2648  -21.1012  -53.0213 H         1 UNK         0.3000 
    231 H231       -3.1801  -21.6830  -52.7832 H         1 UNK         0.0600 
    232 H232       -2.0355  -21.2725  -50.6990 H         1 UNK         0.0600 
    233 H233       -3.7466  -21.3988  -50.3306 H         1 UNK         0.0600 
    234 H234       -2.9707  -19.8175  -50.3663 H         1 UNK         0.0600 
    235 H235       -3.5687  -18.2166  -52.9959 H         1 UNK         0.3000 
    236 H236       -0.9271  -17.3937  -53.3737 H         1 UNK         0.0600 
    237 H237       -1.9513  -15.3847  -54.4316 H         1 UNK         0.0600 
    238 H238       -3.4994  -16.2166  -54.5287 H         1 UNK         0.0600 
    239 H239       -2.7941  -15.8414  -52.9617 H         1 UNK         0.0600 
    240 H240       -0.0130  -18.3891  -56.7487 H         1 UNK         0.3000 
    241 H241        0.8016  -18.5458  -54.0096 H         1 UNK         0.0600 
    242 H242        3.5011  -20.3876  -55.3590 H         1 UNK         0.3800 
    243 H243        2.6780  -19.8569  -53.9195 H         1 UNK         0.3800 
    244 H244        1.8536  -16.1981  -55.6891 H         1 UNK         0.0800 
    245 H245        0.7083  -16.0059  -54.3995 H         1 UNK         0.0800 
    246 H246        1.6503  -14.6350  -52.7074 H         1 UNK         0.0800 
    247 H247        3.0630  -14.9554  -51.7426 H         1 UNK         0.0800 
@<TRIPOS>BOND
     1    1    2 1    
     2    1  127 1    
     3    1  128 1    
     4    1  129 1    
     5    2    3 2    
     6    2    4 am   BACKBONE|DICT|INTERRES
     7    4    5 1    
     8    4  130 1    
     9    5    6 1    
    10    5   65 1    
    11    5  131 1    
    12    6    7 1    
    13    6  132 1    
    14    6  133 1    
    15    7    8 1    
    16    8    9 1    
    17    8  134 1    
    18    8  135 1    
    19    9   10 ar   
    20    9   14 ar   
    21   10   11 ar   
    22   10  136 1    
    23   11   12 ar   
    24   11  126 1    
    25   12   13 ar   
    26   12  137 1    
    27   13   14 ar   
    28   13   15 1    
    29   14  138 1    
    30   15   16 1    
    31   15  139 1    
    32   15  140 1    
    33   16   17 1    
    34   17   18 1    
    35   17  141 1    
    36   17  142 1    
    37   18   19 1    
    38   18   67 1    
    39   18  143 1    
    40   19   20 am   BACKBONE|DICT|INTERRES
    41   19  144 1    
    42   20   21 2    
    43   20   22 1    
    44   22   23 1    
    45   22   24 1    
    46   22  145 1    
    47   23  146 1    
    48   23  147 1    
    49   23  148 1    
    50   24   25 am   BACKBONE|DICT|INTERRES
    51   24  149 1    
    52   25   26 2    
    53   25   27 1    
    54   27   28 1    
    55   27   29 1    
    56   27  150 1    
    57   28  151 1    
    58   28  152 1    
    59   28  153 1    
    60   29   30 am   BACKBONE|DICT|INTERRES
    61   29  154 1    
    62   30   31 2    
    63   30   32 1    
    64   32   33 1    
    65   32   34 1    
    66   32  155 1    
    67   33  156 1    
    68   33  157 1    
    69   33  158 1    
    70   34   35 am   BACKBONE|DICT|INTERRES
    71   34  159 1    
    72   35   36 2    
    73   35   37 1    
    74   37   38 1    
    75   37   39 1    
    76   37  160 1    
    77   38  161 1    
    78   38  162 1    
    79   38  163 1    
    80   39   40 am   BACKBONE|DICT|INTERRES
    81   39  164 1    
    82   40   41 2    
    83   40   42 1    
    84   42   43 1    
    85   42   44 1    
    86   42  165 1    
    87   43  166 1    
    88   43  167 1    
    89   43  168 1    
    90   44   45 am   BACKBONE|DICT|INTERRES
    91   44  169 1    
    92   45   46 2    
    93   45   47 1    
    94   47   48 1    
    95   47   49 1    
    96   47  170 1    
    97   48  171 1    
    98   48  172 1    
    99   48  173 1    
   100   49   50 am   BACKBONE|DICT|INTERRES
   101   49  174 1    
   102   50   51 2    
   103   50   52 1    
   104   52   53 1    
   105   52   54 1    
   106   52  175 1    
   107   53  176 1    
   108   53  177 1    
   109   53  178 1    
   110   54   55 am   BACKBONE|DICT|INTERRES
   111   54  179 1    
   112   55   56 2    
   113   55   57 1    
   114   57   58 1    
   115   57   59 1    
   116   57  180 1    
   117   58  181 1    
   118   58  182 1    
   119   58  183 1    
   120   59   60 am   BACKBONE|DICT|INTERRES
   121   59  184 1    
   122   60   61 2    
   123   60   62 1    
   124   62   63 1    
   125   62   64 1    
   126   62  185 1    
   127   63  186 1    
   128   63  187 1    
   129   63  188 1    
   130   64   65 am   BACKBONE|DICT|INTERRES
   131   64  189 1    
   132   65   66 2    
   133   67   68 2    
   134   67   69 am   BACKBONE|DICT|INTERRES
   135   69   70 1    
   136   69  190 1    
   137   70   71 1    
   138   70   72 1    
   139   70  191 1    
   140   71  192 1    
   141   71  193 1    
   142   71  194 1    
   143   72   73 2    
   144   72   74 am   BACKBONE|DICT|INTERRES
   145   74   75 1    
   146   74  195 1    
   147   75   76 1    
   148   75   77 1    
   149   75  196 1    
   150   76  197 1    
   151   76  198 1    
   152   76  199 1    
   153   77   78 2    
   154   77   79 am   BACKBONE|DICT|INTERRES
   155   79   80 1    
   156   79  200 1    
   157   80   81 1    
   158   80   82 1    
   159   80  201 1    
   160   81  202 1    
   161   81  203 1    
   162   81  204 1    
   163   82   83 2    
   164   82   84 am   BACKBONE|DICT|INTERRES
   165   84   85 1    
   166   84  205 1    
   167   85   86 1    
   168   85   87 1    
   169   85  206 1    
   170   86  207 1    
   171   86  208 1    
   172   86  209 1    
   173   87   88 2    
   174   87   89 am   BACKBONE|DICT|INTERRES
   175   89   90 1    
   176   89  210 1    
   177   90   91 1    
   178   90   92 1    
   179   90  211 1    
   180   91  212 1    
   181   91  213 1    
   182   91  214 1    
   183   92   93 2    
   184   92   94 am   BACKBONE|DICT|INTERRES
   185   94   95 1    
   186   94  215 1    
   187   95   96 1    
   188   95   97 1    
   189   95  216 1    
   190   96  217 1    
   191   96  218 1    
   192   96  219 1    
   193   97   98 2    
   194   97   99 am   BACKBONE|DICT|INTERRES
   195   99  100 1    
   196   99  220 1    
   197  100  101 1    
   198  100  102 1    
   199  100  221 1    
   200  101  222 1    
   201  101  223 1    
   202  101  224 1    
   203  102  103 2    
   204  102  104 am   BACKBONE|DICT|INTERRES
   205  104  105 1    
   206  104  225 1    
   207  105  106 1    
   208  105  107 1    
   209  105  226 1    
   210  106  227 1    
   211  106  228 1    
   212  106  229 1    
   213  107  108 2    
   214  107  109 am   BACKBONE|DICT|INTERRES
   215  109  110 1    
   216  109  230 1    
   217  110  111 1    
   218  110  112 1    
   219  110  231 1    
   220  111  232 1    
   221  111  233 1    
   222  111  234 1    
   223  112  113 2    
   224  112  114 am   BACKBONE|DICT|INTERRES
   225  114  115 1    
   226  114  235 1    
   227  115  116 1    
   228  115  117 1    
   229  115  236 1    
   230  116  237 1    
   231  116  238 1    
   232  116  239 1    
   233  117  118 2    
   234  117  119 am   BACKBONE|DICT|INTERRES
   235  119  120 1    
   236  119  240 1    
   237  120  121 1    
   238  120  124 1    
   239  120  241 1    
   240  121  122 am   BACKBONE|DICT|INTERRES
   241  121  123 2    
   242  122  242 1    
   243  122  243 1    
   244  124  125 1    
   245  124  244 1    
   246  124  245 1    
   247  125  126 1    
   248  126  246 1    
   249  126  247 1    
@<TRIPOS>SUBSTRUCTURE
     1 UNK         1 GROUP             0       ****    0 ROOT    
