@<TRIPOS>MOLECULE
3R540
247   249    1
SMALL
USER_CHARGES


@<TRIPOS>ATOM
      1 CA          4.6311  -18.9157  -48.9563 C.3       0 UNK        -0.1800 
      2 C           3.4499  -18.2177  -48.2994 C.2       0 UNK         0.5000 
      3 O           2.8540  -18.7683  -47.3742 O.2       0 UNK        -0.5000 
      4 N           3.1089  -17.0113  -48.7666 N.am      1 UNK        -0.5000 
      5 CA          2.0474  -16.1620  -48.2136 C.3       1 UNK         0.1400 
      6 C6          1.2694  -15.3957  -49.3134 C.3       23 UNK        -0.0398 
      7 S7          0.2888  -16.5316  -50.3434 S.3       23 UNK        -0.2404 
      8 C8          1.2081  -16.5342  -51.9112 C.3       23 UNK        -0.0205 
      9 C9          1.1738  -17.9200  -52.5283 C.ar      23 UNK        -0.0193 
     10 C10         0.2138  -18.2597  -53.4857 C.ar      23 UNK        -0.1150 
     11 C11         0.1721  -19.5528  -54.0185 C.ar      23 UNK        -0.0193 
     12 C12         1.0904  -20.5101  -53.5727 C.ar      23 UNK        -0.1150 
     13 C13         2.0350  -20.1847  -52.5955 C.ar      23 UNK        -0.0193 
     14 C14         2.0874  -18.8823  -52.0976 C.ar      23 UNK        -0.1150 
     15 C15         2.9637  -21.2455  -52.0255 C.3       23 UNK        -0.0205 
     16 S16         2.1225  -22.3105  -50.8047 S.3       23 UNK        -0.2404 
     17 C17         1.2651  -21.0997  -49.7380 C.3       23 UNK        -0.0398 
     18 CA          0.6923  -21.7518  -48.4625 C.3       11 UNK         0.1400 
     19 N           1.7230  -22.2739  -47.5579 N.am      11 UNK        -0.5000 
     20 C           1.4728  -23.2112  -46.6332 C.2       10 UNK         0.5000 
     21 O           0.3661  -23.7254  -46.4681 O.2       10 UNK        -0.5000 
     22 CA          2.6436  -23.6366  -45.7286 C.3       10 UNK         0.1400 
     23 CB          3.6014  -24.5683  -46.4873 C.3       10 UNK        -0.1800 
     24 N           3.4052  -22.5276  -45.1452 N.am      10 UNK        -0.5000 
     25 C           2.8970  -21.5688  -44.3600 C.2       9 UNK         0.5000 
     26 O           1.6922  -21.4303  -44.1375 O.2       9 UNK        -0.5000 
     27 CA          3.9046  -20.6190  -43.6938 C.3       9 UNK         0.1400 
     28 CB          4.5954  -19.6952  -44.7111 C.3       9 UNK        -0.1800 
     29 N           3.2140  -19.8164  -42.6878 N.am      9 UNK        -0.5000 
     30 C           3.7749  -19.2546  -41.6121 C.2       8 UNK         0.5000 
     31 O           4.9765  -19.3404  -41.3550 O.2       8 UNK        -0.5000 
     32 CA          2.8611  -18.4512  -40.6603 C.3       8 UNK         0.1400 
     33 CB          3.2178  -16.9567  -40.6944 C.3       8 UNK        -0.1800 
     34 N           1.4242  -18.5884  -40.9187 N.am      8 UNK        -0.5000 
     35 C           0.6863  -19.6642  -40.6121 C.2       7 UNK         0.5000 
     36 O           1.1555  -20.7017  -40.1426 O.2       7 UNK        -0.5000 
     37 CA         -0.8290  -19.5308  -40.8687 C.3       7 UNK         0.1400 
     38 CB         -1.6577  -20.6896  -40.2714 C.3       7 UNK        -0.1800 
     39 N          -1.3529  -18.2288  -40.4370 N.am      7 UNK        -0.5000 
     40 C          -1.4377  -17.7632  -39.1791 C.2       6 UNK         0.5000 
     41 O          -1.0741  -18.3920  -38.1848 O.2       6 UNK        -0.5000 
     42 CA         -2.0214  -16.3488  -38.9884 C.3       6 UNK         0.1400 
     43 CB         -0.8993  -15.3535  -38.6573 C.3       6 UNK        -0.1800 
     44 N          -2.7528  -15.8657  -40.1622 N.am      6 UNK        -0.5000 
     45 C          -4.0239  -16.1829  -40.4562 C.2       5 UNK         0.5000 
     46 O          -4.7357  -16.8901  -39.7432 O.2       5 UNK        -0.5000 
     47 CA         -4.5755  -15.6498  -41.7882 C.3       5 UNK         0.1400 
     48 CB         -5.0884  -14.2063  -41.6388 C.3       5 UNK        -0.1800 
     49 N          -3.5345  -15.7281  -42.8073 N.am      5 UNK        -0.5000 
     50 C          -3.6814  -15.6980  -44.1321 C.2       4 UNK         0.5000 
     51 O          -4.7613  -15.5275  -44.6994 O.2       4 UNK        -0.5000 
     52 CA         -2.3821  -15.9053  -44.9450 C.3       4 UNK         0.1400 
     53 CB         -2.5847  -15.7468  -46.4631 C.3       4 UNK        -0.1800 
     54 N          -1.2628  -15.0525  -44.5190 N.am      4 UNK        -0.5000 
     55 C          -0.5560  -15.1695  -43.3866 C.2       3 UNK         0.5000 
     56 O          -0.7762  -16.0307  -42.5285 O.2       3 UNK        -0.5000 
     57 CA          0.6286  -14.2122  -43.2216 C.3       3 UNK         0.1400 
     58 CB          0.9515  -13.9428  -41.7383 C.3       3 UNK        -0.1800 
     59 N           1.7562  -14.8254  -43.9136 N.am      3 UNK        -0.5000 
     60 C           2.9397  -14.2560  -44.1701 C.2       2 UNK         0.5000 
     61 O           3.2603  -13.1254  -43.8029 O.2       2 UNK        -0.5000 
     62 CA          3.9196  -15.0885  -45.0196 C.3       2 UNK         0.1400 
     63 CB          4.6862  -16.0928  -44.1461 C.3       2 UNK        -0.1800 
     64 N           3.2611  -15.8062  -46.1154 N.am      2 UNK        -0.5000 
     65 C           2.6576  -15.2180  -47.1584 C.2       1 UNK         0.5000 
     66 O           2.6048  -13.9970  -47.3133 O.2       1 UNK        -0.5000 
     67 C          -0.2635  -20.8005  -47.7191 C.2       11 UNK         0.5000 
     68 O          -1.4688  -20.8535  -47.9610 O.2       11 UNK        -0.5000 
     69 N           0.2654  -19.9953  -46.7869 N.am      12 UNK        -0.5000 
     70 CA         -0.5009  -19.1473  -45.8727 C.3       12 UNK         0.1400 
     71 CB          0.4606  -18.3381  -44.9860 C.3       12 UNK        -0.1800 
     72 C          -1.5150  -19.9348  -45.0208 C.2       12 UNK         0.5000 
     73 O          -2.6702  -19.5229  -44.9192 O.2       12 UNK        -0.5000 
     74 N          -1.0820  -21.0803  -44.4787 N.am      13 UNK        -0.5000 
     75 CA         -1.9095  -22.0330  -43.7333 C.3       13 UNK         0.1400 
     76 CB         -1.0024  -23.1128  -43.1240 C.3       13 UNK        -0.1800 
     77 C          -3.0244  -22.6800  -44.5786 C.2       13 UNK         0.5000 
     78 O          -4.0592  -23.0585  -44.0302 O.2       13 UNK        -0.5000 
     79 N          -2.8097  -22.7583  -45.8970 N.am      14 UNK        -0.5000 
     80 CA         -3.7705  -23.2219  -46.8968 C.3       14 UNK         0.1400 
     81 CB         -3.0076  -24.0242  -47.9644 C.3       14 UNK        -0.1800 
     82 C          -4.5874  -22.0610  -47.5095 C.2       14 UNK         0.5000 
     83 O          -5.1580  -22.2297  -48.5892 O.2       14 UNK        -0.5000 
     84 N          -4.6215  -20.9056  -46.8244 N.am      15 UNK        -0.5000 
     85 CA         -5.3457  -19.6777  -47.1695 C.3       15 UNK         0.1400 
     86 CB         -6.8698  -19.9035  -47.0895 C.3       15 UNK        -0.1800 
     87 C          -4.8823  -19.0804  -48.5124 C.2       15 UNK         0.5000 
     88 O          -5.7021  -18.8132  -49.3919 O.2       15 UNK        -0.5000 
     89 N          -3.5571  -18.9153  -48.6357 N.am      16 UNK        -0.5000 
     90 CA         -2.8188  -18.5086  -49.8378 C.3       16 UNK         0.1400 
     91 CB         -3.2338  -17.0986  -50.3119 C.3       16 UNK        -0.1800 
     92 C          -2.8948  -19.5787  -50.9458 C.2       16 UNK         0.5000 
     93 O          -3.0118  -19.2431  -52.1251 O.2       16 UNK        -0.5000 
     94 N          -2.8473  -20.8517  -50.5168 N.am      17 UNK        -0.5000 
     95 CA         -3.0186  -22.0782  -51.2996 C.3       17 UNK         0.1400 
     96 CB         -1.7443  -22.3792  -52.1060 C.3       17 UNK        -0.1800 
     97 C          -4.2900  -22.0272  -52.1647 C.2       17 UNK         0.5000 
     98 O          -4.2045  -22.0504  -53.3930 O.2       17 UNK        -0.5000 
     99 N          -5.4442  -21.9079  -51.4940 N.am      18 UNK        -0.5000 
    100 CA        -6.7564  -21.5753  -52.0626 C.3       18 UNK         0.1400 
    101 CB        -7.7927  -21.5556  -50.9293 C.3       18 UNK        -0.1800 
    102 C         -7.2479  -22.4655  -53.2230 C.2       18 UNK         0.5000 
    103 O         -8.0595  -22.0063  -54.0272 O.2       18 UNK        -0.5000 
    104 N         -6.7436  -23.7041  -53.3082 N.am      19 UNK        -0.5000 
    105 CA        -6.9861  -24.6271  -54.4193 C.3       19 UNK         0.1400 
    106 CB        -6.4744  -26.0224  -54.0299 C.3       19 UNK        -0.1800 
    107 C         -6.3443  -24.1680  -55.7464 C.2       19 UNK         0.5000 
    108 O         -6.8792  -24.4778  -56.8118 O.2       19 UNK        -0.5000 
    109 N         -5.2224  -23.4417  -55.6587 N.am      20 UNK        -0.5000 
    110 CA        -4.5150  -22.8395  -56.7882 C.3       20 UNK         0.1400 
    111 CB        -3.0068  -23.0874  -56.6260 C.3       20 UNK        -0.1800 
    112 C         -4.8029  -21.3317  -56.8791 C.2       20 UNK         0.5000 
    113 O         -4.9512  -20.8108  -57.9850 O.2       20 UNK        -0.5000 
    114 N         -4.8681  -20.6609  -55.7191 N.am      21 UNK        -0.5000 
    115 CA        -5.1540  -19.2421  -55.4638 C.3       21 UNK         0.1400 
    116 CB        -6.5591  -18.8601  -55.9641 C.3       21 UNK        -0.1800 
    117 C         -4.0890  -18.2487  -55.9749 C.2       21 UNK         0.5000 
    118 O         -3.8280  -17.2548  -55.2971 O.2       21 UNK        -0.5000 
    119 N         -3.4812  -18.5344  -57.1330 N.am      22 UNK        -0.5000 
    120 CA        -2.3763  -17.7875  -57.7642 C.3       22 UNK         0.1400 
    121 C         -2.7386  -16.3409  -58.2262 C.2       22 UNK         0.5000 
    122 N         -4.0112  -15.9968  -58.3826 N.am      22 UNK        -0.7600 
    123 O         -1.8581  -15.5240  -58.4834 O.2       22 UNK        -0.5000 
    124 C124       -1.0599  -17.8460  -56.9352 C.3       23 UNK        -0.0398 
    125 S125       -0.4369  -19.5525  -56.7366 S.3       23 UNK        -0.2404 
    126 C126       -0.9038  -19.9420  -55.0220 C.3       23 UNK        -0.0205 
    127 H127        4.9622  -18.3943  -49.8545 H         1 UNK         0.0600 
    128 H128        4.3622  -19.9346  -49.2330 H         1 UNK         0.0600 
    129 H129        5.4675  -18.9634  -48.2593 H         1 UNK         0.0600 
    130 H130        3.6571  -16.5950  -49.5053 H         1 UNK         0.3000 
    131 H131        1.3199  -16.7834  -47.6882 H         1 UNK         0.0600 
    132 H132        0.5631  -14.6951  -48.8640 H         1 UNK         0.0800 
    133 H133        1.9399  -14.7956  -49.9303 H         1 UNK         0.0800 
    134 H134        2.2454  -16.2384  -51.7490 H         1 UNK         0.0800 
    135 H135        0.7755  -15.7965  -52.5885 H         1 UNK         0.0800 
    136 H136       -0.5154  -17.5249  -53.7944 H         1 UNK         0.1150 
    137 H137        1.0436  -21.5205  -53.9541 H         1 UNK         0.1150 
    138 H138        2.8111  -18.6258  -51.3381 H         1 UNK         0.1150 
    139 H139        3.3502  -21.8674  -52.8340 H         1 UNK         0.0800 
    140 H140        3.8325  -20.7816  -51.5566 H         1 UNK         0.0800 
    141 H141        0.4600  -20.6526  -50.3252 H         1 UNK         0.0800 
    142 H142        1.9478  -20.2916  -49.4863 H         1 UNK         0.0800 
    143 H143        0.0816  -22.5958  -48.7920 H         1 UNK         0.0600 
    144 H144        2.6512  -21.8852  -47.6346 H         1 UNK         0.3000 
    145 H145        2.2158  -24.2019  -44.8978 H         1 UNK         0.0600 
    146 H146        4.3625  -24.9779  -45.8230 H         1 UNK         0.0600 
    147 H147        3.0637  -25.4125  -46.9214 H         1 UNK         0.0600 
    148 H148        4.1094  -24.0496  -47.3012 H         1 UNK         0.0600 
    149 H149        4.4049  -22.5581  -45.2831 H         1 UNK         0.3000 
    150 H150        4.6560  -21.2418  -43.2038 H         1 UNK         0.0600 
    151 H151        4.9872  -20.2472  -45.5659 H         1 UNK         0.0600 
    152 H152        5.4345  -19.1710  -44.2540 H         1 UNK         0.0600 
    153 H153        3.9054  -18.9434  -45.0886 H         1 UNK         0.0600 
    154 H154        2.2093  -19.7895  -42.7955 H         1 UNK         0.3000 
    155 H155        3.0603  -18.8187  -39.6514 H         1 UNK         0.0600 
    156 H156        2.9735  -16.5076  -41.6563 H         1 UNK         0.0600 
    157 H157        4.2827  -16.7982  -40.5187 H         1 UNK         0.0600 
    158 H158        2.6800  -16.4084  -39.9208 H         1 UNK         0.0600 
    159 H159        0.9530  -17.7750  -41.2890 H         1 UNK         0.3000 
    160 H160       -0.9530  -19.5646  -41.9513 H         1 UNK         0.0600 
    161 H161       -1.5654  -20.7447  -39.1869 H         1 UNK         0.0600 
    162 H162       -1.3309  -21.6517  -40.6631 H         1 UNK         0.0600 
    163 H163       -2.7152  -20.5818  -40.5121 H         1 UNK         0.0600 
    164 H164       -1.6080  -17.5929  -41.1804 H         1 UNK         0.3000 
    165 H165       -2.7043  -16.3846  -38.1369 H         1 UNK         0.0600 
    166 H166       -0.1421  -15.3310  -39.4395 H         1 UNK         0.0600 
    167 H167       -1.2873  -14.3427  -38.5304 H         1 UNK         0.0600 
    168 H168       -0.3977  -15.6277  -37.7284 H         1 UNK         0.0600 
    169 H169       -2.2367  -15.2616  -40.7846 H         1 UNK         0.3000 
    170 H170       -5.4052  -16.2935  -42.0879 H         1 UNK         0.0600 
    171 H171       -4.2822  -13.5175  -41.3840 H         1 UNK         0.0600 
    172 H172       -5.5520  -13.8522  -42.5595 H         1 UNK         0.0600 
    173 H173       -5.8407  -14.1395  -40.8519 H         1 UNK         0.0600 
    174 H174       -2.5920  -15.9040  -42.4722 H         1 UNK         0.3000 
    175 H175       -2.0926  -16.9392  -44.7659 H         1 UNK         0.0600 
    176 H176       -2.8856  -14.7316  -46.7237 H         1 UNK         0.0600 
    177 H177       -1.6716  -15.9779  -47.0122 H         1 UNK         0.0600 
    178 H178       -3.3582  -16.4237  -46.8285 H         1 UNK         0.0600 
    179 H179       -1.0213  -14.3058  -45.1548 H         1 UNK         0.3000 
    180 H180        0.3828  -13.2652  -43.7060 H         1 UNK         0.0600 
    181 H181        1.7320  -13.1911  -41.6253 H         1 UNK         0.0600 
    182 H182        1.2853  -14.8456  -41.2300 H         1 UNK         0.0600 
    183 H183        0.0729  -13.5703  -41.2105 H         1 UNK         0.0600 
    184 H184        1.5855  -15.7533  -44.2715 H         1 UNK         0.3000 
    185 H185        4.6441  -14.3980  -45.4568 H         1 UNK         0.0600 
    186 H186        4.0276  -16.8630  -43.7456 H         1 UNK         0.0600 
    187 H187        5.4720  -16.5887  -44.7160 H         1 UNK         0.0600 
    188 H188        5.1637  -15.5955  -43.3007 H         1 UNK         0.0600 
    189 H189        3.2967  -16.8166  -46.0932 H         1 UNK         0.3000 
    190 H190        1.2743  -19.9537  -46.6986 H         1 UNK         0.3000 
    191 H191       -1.0743  -18.4452  -46.4804 H         1 UNK         0.0600 
    192 H192        1.3281  -18.9204  -44.6839 H         1 UNK         0.0600 
    193 H193       -0.0258  -17.9960  -44.0741 H         1 UNK         0.0600 
    194 H194        0.8253  -17.4587  -45.5124 H         1 UNK         0.0600 
    195 H195       -0.0954  -21.3167  -44.5687 H         1 UNK         0.3000 
    196 H196       -2.3960  -21.4877  -42.9235 H         1 UNK         0.0600 
    197 H197       -0.5147  -23.7088  -43.8957 H         1 UNK         0.0600 
    198 H198       -0.2206  -22.6734  -42.5044 H         1 UNK         0.0600 
    199 H199       -1.5746  -23.7948  -42.4940 H         1 UNK         0.0600 
    200 H200       -1.9314  -22.4103  -46.2585 H         1 UNK         0.3000 
    201 H201       -4.4897  -23.8963  -46.4282 H         1 UNK         0.0600 
    202 H202       -2.2704  -23.4090  -48.4791 H         1 UNK         0.0600 
    203 H203       -3.6853  -24.4354  -48.7133 H         1 UNK         0.0600 
    204 H204       -2.4774  -24.8645  -47.5156 H         1 UNK         0.0600 
    205 H205       -4.0666  -20.8463  -45.9796 H         1 UNK         0.3000 
    206 H206       -5.0859  -18.9426  -46.4060 H         1 UNK         0.0600 
    207 H207       -7.1617  -20.2582  -46.1011 H         1 UNK         0.0600 
    208 H208       -7.4129  -18.9760  -47.2742 H         1 UNK         0.0600 
    209 H209       -7.2132  -20.6352  -47.8204 H         1 UNK         0.0600 
    210 H210       -2.9780  -19.2676  -47.8843 H         1 UNK         0.3000 
    211 H211       -1.7708  -18.4614  -49.5418 H         1 UNK         0.0600 
    212 H212       -2.6020  -16.7642  -51.1352 H         1 UNK         0.0600 
    213 H213       -3.1347  -16.3676  -49.5099 H         1 UNK         0.0600 
    214 H214       -4.2625  -17.0712  -50.6705 H         1 UNK         0.0600 
    215 H215       -2.7140  -20.9855  -49.5206 H         1 UNK         0.3000 
    216 H216       -3.1622  -22.8960  -50.5955 H         1 UNK         0.0600 
    217 H217       -1.5003  -21.5571  -52.7737 H         1 UNK         0.0600 
    218 H218       -1.8604  -23.2777  -52.7129 H         1 UNK         0.0600 
    219 H219       -0.8916  -22.5390  -51.4474 H         1 UNK         0.0600 
    220 H220       -5.3981  -21.9186  -50.4774 H         1 UNK         0.3000 
    221 H221       -6.6749  -20.5622  -52.4613 H         1 UNK         0.0600 
    222 H222       -7.5389  -20.8038  -50.1827 H         1 UNK         0.0600 
    223 H223       -7.8553  -22.5212  -50.4262 H         1 UNK         0.0600 
    224 H224       -8.7872  -21.3126  -51.3058 H         1 UNK         0.0600 
    225 H225       -6.0866  -24.0005  -52.6018 H         1 UNK         0.3000 
    226 H226       -8.0646  -24.6909  -54.5785 H         1 UNK         0.0600 
    227 H227       -5.4007  -26.0181  -53.8380 H         1 UNK         0.0600 
    228 H228       -6.9752  -26.3910  -53.1345 H         1 UNK         0.0600 
    229 H229       -6.6627  -26.7435  -54.8265 H         1 UNK         0.0600 
    230 H230       -4.8804  -23.1873  -54.7365 H         1 UNK         0.3000 
    231 H231       -4.8336  -23.2972  -57.7270 H         1 UNK         0.0600 
    232 H232       -2.6344  -22.6992  -55.6777 H         1 UNK         0.0600 
    233 H233       -2.4404  -22.6064  -57.4247 H         1 UNK         0.0600 
    234 H234       -2.7796  -24.1529  -56.6607 H         1 UNK         0.0600 
    235 H235       -4.6501  -21.1892  -54.8757 H         1 UNK         0.3000 
    236 H236       -5.1589  -19.1476  -54.3763 H         1 UNK         0.0600 
    237 H237       -7.3192  -19.5141  -55.5362 H         1 UNK         0.0600 
    238 H238       -6.8094  -17.8383  -55.6763 H         1 UNK         0.0600 
    239 H239       -6.6364  -18.9208  -57.0499 H         1 UNK         0.0600 
    240 H240       -3.8108  -19.3541  -57.6345 H         1 UNK         0.3000 
    241 H241       -2.1816  -18.3136  -58.6993 H         1 UNK         0.0600 
    242 H242       -4.2403  -15.0653  -58.6923 H         1 UNK         0.3800 
    243 H243       -4.7465  -16.6570  -58.1875 H         1 UNK         0.3800 
    244 H244       -0.2678  -17.2851  -57.4332 H         1 UNK         0.0800 
    245 H245       -1.1949  -17.3711  -55.9643 H         1 UNK         0.0800 
    246 H246       -1.8475  -19.4663  -54.7572 H         1 UNK         0.0800 
    247 H247       -1.0879  -21.0146  -54.9664 H         1 UNK         0.0800 
@<TRIPOS>BOND
     1    1    2 1    
     2    1  127 1    
     3    1  128 1    
     4    1  129 1    
     5    2    3 2    
     6    2    4 am   BACKBONE|DICT|INTERRES
     7    4    5 1    
     8    4  130 1    
     9    5    6 1    
    10    5   65 1    
    11    5  131 1    
    12    6    7 1    
    13    6  132 1    
    14    6  133 1    
    15    7    8 1    
    16    8    9 1    
    17    8  134 1    
    18    8  135 1    
    19    9   10 ar   
    20    9   14 ar   
    21   10   11 ar   
    22   10  136 1    
    23   11   12 ar   
    24   11  126 1    
    25   12   13 ar   
    26   12  137 1    
    27   13   14 ar   
    28   13   15 1    
    29   14  138 1    
    30   15   16 1    
    31   15  139 1    
    32   15  140 1    
    33   16   17 1    
    34   17   18 1    
    35   17  141 1    
    36   17  142 1    
    37   18   19 1    
    38   18   67 1    
    39   18  143 1    
    40   19   20 am   BACKBONE|DICT|INTERRES
    41   19  144 1    
    42   20   21 2    
    43   20   22 1    
    44   22   23 1    
    45   22   24 1    
    46   22  145 1    
    47   23  146 1    
    48   23  147 1    
    49   23  148 1    
    50   24   25 am   BACKBONE|DICT|INTERRES
    51   24  149 1    
    52   25   26 2    
    53   25   27 1    
    54   27   28 1    
    55   27   29 1    
    56   27  150 1    
    57   28  151 1    
    58   28  152 1    
    59   28  153 1    
    60   29   30 am   BACKBONE|DICT|INTERRES
    61   29  154 1    
    62   30   31 2    
    63   30   32 1    
    64   32   33 1    
    65   32   34 1    
    66   32  155 1    
    67   33  156 1    
    68   33  157 1    
    69   33  158 1    
    70   34   35 am   BACKBONE|DICT|INTERRES
    71   34  159 1    
    72   35   36 2    
    73   35   37 1    
    74   37   38 1    
    75   37   39 1    
    76   37  160 1    
    77   38  161 1    
    78   38  162 1    
    79   38  163 1    
    80   39   40 am   BACKBONE|DICT|INTERRES
    81   39  164 1    
    82   40   41 2    
    83   40   42 1    
    84   42   43 1    
    85   42   44 1    
    86   42  165 1    
    87   43  166 1    
    88   43  167 1    
    89   43  168 1    
    90   44   45 am   BACKBONE|DICT|INTERRES
    91   44  169 1    
    92   45   46 2    
    93   45   47 1    
    94   47   48 1    
    95   47   49 1    
    96   47  170 1    
    97   48  171 1    
    98   48  172 1    
    99   48  173 1    
   100   49   50 am   BACKBONE|DICT|INTERRES
   101   49  174 1    
   102   50   51 2    
   103   50   52 1    
   104   52   53 1    
   105   52   54 1    
   106   52  175 1    
   107   53  176 1    
   108   53  177 1    
   109   53  178 1    
   110   54   55 am   BACKBONE|DICT|INTERRES
   111   54  179 1    
   112   55   56 2    
   113   55   57 1    
   114   57   58 1    
   115   57   59 1    
   116   57  180 1    
   117   58  181 1    
   118   58  182 1    
   119   58  183 1    
   120   59   60 am   BACKBONE|DICT|INTERRES
   121   59  184 1    
   122   60   61 2    
   123   60   62 1    
   124   62   63 1    
   125   62   64 1    
   126   62  185 1    
   127   63  186 1    
   128   63  187 1    
   129   63  188 1    
   130   64   65 am   BACKBONE|DICT|INTERRES
   131   64  189 1    
   132   65   66 2    
   133   67   68 2    
   134   67   69 am   BACKBONE|DICT|INTERRES
   135   69   70 1    
   136   69  190 1    
   137   70   71 1    
   138   70   72 1    
   139   70  191 1    
   140   71  192 1    
   141   71  193 1    
   142   71  194 1    
   143   72   73 2    
   144   72   74 am   BACKBONE|DICT|INTERRES
   145   74   75 1    
   146   74  195 1    
   147   75   76 1    
   148   75   77 1    
   149   75  196 1    
   150   76  197 1    
   151   76  198 1    
   152   76  199 1    
   153   77   78 2    
   154   77   79 am   BACKBONE|DICT|INTERRES
   155   79   80 1    
   156   79  200 1    
   157   80   81 1    
   158   80   82 1    
   159   80  201 1    
   160   81  202 1    
   161   81  203 1    
   162   81  204 1    
   163   82   83 2    
   164   82   84 am   BACKBONE|DICT|INTERRES
   165   84   85 1    
   166   84  205 1    
   167   85   86 1    
   168   85   87 1    
   169   85  206 1    
   170   86  207 1    
   171   86  208 1    
   172   86  209 1    
   173   87   88 2    
   174   87   89 am   BACKBONE|DICT|INTERRES
   175   89   90 1    
   176   89  210 1    
   177   90   91 1    
   178   90   92 1    
   179   90  211 1    
   180   91  212 1    
   181   91  213 1    
   182   91  214 1    
   183   92   93 2    
   184   92   94 am   BACKBONE|DICT|INTERRES
   185   94   95 1    
   186   94  215 1    
   187   95   96 1    
   188   95   97 1    
   189   95  216 1    
   190   96  217 1    
   191   96  218 1    
   192   96  219 1    
   193   97   98 2    
   194   97   99 am   BACKBONE|DICT|INTERRES
   195   99  100 1    
   196   99  220 1    
   197  100  101 1    
   198  100  102 1    
   199  100  221 1    
   200  101  222 1    
   201  101  223 1    
   202  101  224 1    
   203  102  103 2    
   204  102  104 am   BACKBONE|DICT|INTERRES
   205  104  105 1    
   206  104  225 1    
   207  105  106 1    
   208  105  107 1    
   209  105  226 1    
   210  106  227 1    
   211  106  228 1    
   212  106  229 1    
   213  107  108 2    
   214  107  109 am   BACKBONE|DICT|INTERRES
   215  109  110 1    
   216  109  230 1    
   217  110  111 1    
   218  110  112 1    
   219  110  231 1    
   220  111  232 1    
   221  111  233 1    
   222  111  234 1    
   223  112  113 2    
   224  112  114 am   BACKBONE|DICT|INTERRES
   225  114  115 1    
   226  114  235 1    
   227  115  116 1    
   228  115  117 1    
   229  115  236 1    
   230  116  237 1    
   231  116  238 1    
   232  116  239 1    
   233  117  118 2    
   234  117  119 am   BACKBONE|DICT|INTERRES
   235  119  120 1    
   236  119  240 1    
   237  120  121 1    
   238  120  124 1    
   239  120  241 1    
   240  121  122 am   BACKBONE|DICT|INTERRES
   241  121  123 2    
   242  122  242 1    
   243  122  243 1    
   244  124  125 1    
   245  124  244 1    
   246  124  245 1    
   247  125  126 1    
   248  126  246 1    
   249  126  247 1    
@<TRIPOS>SUBSTRUCTURE
     1 UNK         1 GROUP             0       ****    0 ROOT    
