@<TRIPOS>MOLECULE
3R540
247   249    1
SMALL
USER_CHARGES


@<TRIPOS>ATOM
      1 CA         -3.5969  -14.6565  -51.6467 C.3       0 UNK        -0.1800 
      2 C          -2.3011  -13.8722  -51.4924 C.2       0 UNK         0.5000 
      3 O          -2.2213  -12.7297  -51.9431 O.2       0 UNK        -0.5000 
      4 N          -1.2936  -14.4845  -50.8582 N.am      1 UNK        -0.5000 
      5 CA          0.0146  -13.8973  -50.5517 C.3       1 UNK         0.1400 
      6 C6          1.0490  -14.9729  -50.1128 C.3       23 UNK        -0.0398 
      7 S7          0.5600  -16.0074  -48.6802 S.3       23 UNK        -0.2404 
      8 C8         -0.2751  -17.4307  -49.4494 C.3       23 UNK        -0.0205 
      9 C9          0.6964  -18.4807  -49.9591 C.ar      23 UNK        -0.0193 
     10 C10         1.1282  -18.4542  -51.2860 C.ar      23 UNK        -0.1150 
     11 C11         1.9769  -19.4465  -51.7820 C.ar      23 UNK        -0.0193 
     12 C12         2.3855  -20.4839  -50.9389 C.ar      23 UNK        -0.1150 
     13 C13         1.9604  -20.5207  -49.6067 C.ar      23 UNK        -0.0193 
     14 C14         1.1263  -19.5104  -49.1193 C.ar      23 UNK        -0.1150 
     15 C15         2.3847  -21.6597  -48.6969 C.3       23 UNK        -0.0205 
     16 S16         1.0879  -22.9262  -48.6130 S.3       23 UNK        -0.2404 
     17 C17         1.9168  -24.2501  -47.6636 C.3       23 UNK        -0.0398 
     18 CA          1.1197  -24.7694  -46.4374 C.3       11 UNK         0.1400 
     19 N           1.1008  -23.7841  -45.3530 N.am      11 UNK        -0.5000 
     20 C           0.8755  -24.0695  -44.0631 C.2       10 UNK         0.5000 
     21 O           0.7178  -25.2173  -43.6408 O.2       10 UNK        -0.5000 
     22 CA          0.8277  -22.8714  -43.0870 C.3       10 UNK         0.1400 
     23 CB          1.0117  -23.2895  -41.6138 C.3       10 UNK        -0.1800 
     24 N           1.7568  -21.7857  -43.4219 N.am      10 UNK        -0.5000 
     25 C           3.0894  -21.8686  -43.5628 C.2       9 UNK         0.5000 
     26 O           3.7339  -22.9141  -43.4710 O.2       9 UNK        -0.5000 
     27 CA          3.8321  -20.5510  -43.8431 C.3       9 UNK         0.1400 
     28 CB          3.6654  -20.1277  -45.3089 C.3       9 UNK        -0.1800 
     29 N           3.3988  -19.4651  -42.9652 N.am      9 UNK        -0.5000 
     30 C           3.6987  -19.3891  -41.6609 C.2       8 UNK         0.5000 
     31 O           4.3760  -20.2266  -41.0631 O.2       8 UNK        -0.5000 
     32 CA          3.1615  -18.1688  -40.8930 C.3       8 UNK         0.1400 
     33 CB          4.0354  -16.9332  -41.1579 C.3       8 UNK        -0.1800 
     34 N           1.7679  -17.8667  -41.2162 N.am      8 UNK        -0.5000 
     35 C           0.7269  -18.6306  -40.8562 C.2       7 UNK         0.5000 
     36 O           0.8301  -19.6510  -40.1747 O.2       7 UNK        -0.5000 
     37 CA         -0.6660  -18.1886  -41.3425 C.3       7 UNK         0.1400 
     38 CB         -1.2585  -17.1323  -40.3977 C.3       7 UNK        -0.1800 
     39 N          -0.6662  -17.6734  -42.7122 N.am      7 UNK        -0.5000 
     40 C          -0.3541  -18.3987  -43.7962 C.2       6 UNK         0.5000 
     41 O          -0.0384  -19.5880  -43.7608 O.2       6 UNK        -0.5000 
     42 CA         -0.3394  -17.6546  -45.1421 C.3       6 UNK         0.1400 
     43 CB         -1.7680  -17.3916  -45.6448 C.3       6 UNK        -0.1800 
     44 N           0.3864  -16.3898  -45.0619 N.am      6 UNK        -0.5000 
     45 C           1.6815  -16.2657  -44.7411 C.2       5 UNK         0.5000 
     46 O           2.4277  -17.2151  -44.5044 O.2       5 UNK        -0.5000 
     47 CA          2.2172  -14.8326  -44.5998 C.3       5 UNK         0.1400 
     48 CB          2.5112  -14.2170  -45.9753 C.3       5 UNK        -0.1800 
     49 N           1.2959  -13.9742  -43.8534 N.am      5 UNK        -0.5000 
     50 C           1.0126  -14.1237  -42.5510 C.2       4 UNK         0.5000 
     51 O           1.5102  -14.9934  -41.8375 O.2       4 UNK        -0.5000 
     52 CA         -0.0245  -13.1586  -41.9515 C.3       4 UNK         0.1400 
     53 CB          0.6326  -11.8235  -41.5708 C.3       4 UNK        -0.1800 
     54 N          -1.1455  -12.9081  -42.8564 N.am      4 UNK        -0.5000 
     55 C          -2.0588  -13.8265  -43.2010 C.2       3 UNK         0.5000 
     56 O          -2.0648  -14.9833  -42.7791 O.2       3 UNK        -0.5000 
     57 CA         -3.1098  -13.3830  -44.2360 C.3       3 UNK         0.1400 
     58 CB         -4.2336  -12.5805  -43.5632 C.3       3 UNK        -0.1800 
     59 N          -2.5366  -12.5996  -45.3372 N.am      3 UNK        -0.5000 
     60 C          -1.6179  -13.0754  -46.1864 C.2       2 UNK         0.5000 
     61 O          -1.1377  -14.2079  -46.0987 O.2       2 UNK        -0.5000 
     62 CA         -1.1321  -12.1417  -47.3026 C.3       2 UNK         0.1400 
     63 CB          0.0337  -11.2728  -46.7872 C.3       2 UNK        -0.1800 
     64 N          -0.7420  -13.0101  -48.4102 N.am      2 UNK        -0.5000 
     65 C          -0.1125  -12.7235  -49.5536 C.2       1 UNK         0.5000 
     66 O           0.3031  -11.6060  -49.8626 O.2       1 UNK        -0.5000 
     67 C          -0.3077  -25.2389  -46.8088 C.2       11 UNK         0.5000 
     68 O          -1.2946  -24.6828  -46.3198 O.2       11 UNK        -0.5000 
     69 N          -0.3987  -26.2227  -47.7146 N.am      12 UNK        -0.5000 
     70 CA         -1.6604  -26.7484  -48.2432 C.3       12 UNK         0.1400 
     71 CB         -1.3687  -27.9182  -49.1948 C.3       12 UNK        -0.1800 
     72 C          -2.5282  -25.6831  -48.9417 C.2       12 UNK         0.5000 
     73 O          -3.7402  -25.6682  -48.7338 O.2       12 UNK        -0.5000 
     74 N          -1.8952  -24.7867  -49.7140 N.am      13 UNK        -0.5000 
     75 CA         -2.5649  -23.6704  -50.3886 C.3       13 UNK         0.1400 
     76 CB         -1.6151  -23.0325  -51.4141 C.3       13 UNK        -0.1800 
     77 C          -3.0909  -22.6129  -49.4016 C.2       13 UNK         0.5000 
     78 O          -4.1730  -22.0704  -49.6126 O.2       13 UNK        -0.5000 
     79 N          -2.3418  -22.3648  -48.3186 N.am      14 UNK        -0.5000 
     80 CA         -2.7514  -21.4837  -47.2260 C.3       14 UNK         0.1400 
     81 CB         -1.5535  -21.2032  -46.3079 C.3       14 UNK        -0.1800 
     82 C          -3.9274  -22.0681  -46.4240 C.2       14 UNK         0.5000 
     83 O          -4.8702  -21.3408  -46.1122 O.2       14 UNK        -0.5000 
     84 N          -3.8560  -23.3728  -46.1263 N.am      15 UNK        -0.5000 
     85 CA         -4.8789  -24.1235  -45.4001 C.3       15 UNK         0.1400 
     86 CB         -4.3229  -25.5053  -45.0230 C.3       15 UNK        -0.1800 
     87 C          -6.1967  -24.2577  -46.1849 C.2       15 UNK         0.5000 
     88 O          -7.2673  -24.0555  -45.6105 O.2       15 UNK        -0.5000 
     89 N          -6.0988  -24.5865  -47.4803 N.am      16 UNK        -0.5000 
     90 CA         -7.2443  -24.7372  -48.3800 C.3       16 UNK         0.1400 
     91 CB         -6.8216  -25.5796  -49.5941 C.3       16 UNK        -0.1800 
     92 C          -7.8279  -23.3956  -48.8583 C.2       16 UNK         0.5000 
     93 O          -8.9648  -23.3741  -49.3297 O.2       16 UNK        -0.5000 
     94 N          -7.0265  -22.3227  -48.7953 N.am      17 UNK        -0.5000 
     95 CA         -7.2423  -20.9621  -49.3096 C.3       17 UNK         0.1400 
     96 CB         -8.5114  -20.3178  -48.7209 C.3       17 UNK        -0.1800 
     97 C          -7.2153  -20.8615  -50.8497 C.2       17 UNK         0.5000 
     98 O          -6.7680  -19.8449  -51.3824 O.2       17 UNK        -0.5000 
     99 N          -7.6649  -21.9127  -51.5449 N.am      18 UNK        -0.5000 
    100 CA        -7.5231  -22.1004  -52.9847 C.3       18 UNK         0.1400 
    101 CB        -8.3408  -23.3301  -53.4076 C.3       18 UNK        -0.1800 
    102 C         -6.0445  -22.2718  -53.3806 C.2       18 UNK         0.5000 
    103 O         -5.2920  -22.9347  -52.6647 O.2       18 UNK        -0.5000 
    104 N         -5.6724  -21.6786  -54.5224 N.am      19 UNK        -0.5000 
    105 CA        -4.3334  -21.6678  -55.1282 C.3       19 UNK         0.1400 
    106 CB        -3.8291  -23.0977  -55.4187 C.3       19 UNK        -0.1800 
    107 C         -3.2862  -20.8222  -54.3696 C.2       19 UNK         0.5000 
    108 O         -2.1160  -20.8467  -54.7463 O.2       19 UNK        -0.5000 
    109 N         -3.7114  -20.0412  -53.3643 N.am      20 UNK        -0.5000 
    110 CA        -2.8664  -19.1152  -52.5972 C.3       20 UNK         0.1400 
    111 CB        -3.5982  -18.7436  -51.2989 C.3       20 UNK        -0.1800 
    112 C         -2.4726  -17.8424  -53.3798 C.2       20 UNK         0.5000 
    113 O         -1.6435  -17.0648  -52.9041 O.2       20 UNK        -0.5000 
    114 N         -3.0617  -17.6536  -54.5704 N.am      21 UNK        -0.5000 
    115 CA        -2.8438  -16.5434  -55.5036 C.3       21 UNK         0.1400 
    116 CB        -3.8161  -16.7021  -56.6830 C.3       21 UNK        -0.1800 
    117 C         -1.3944  -16.3877  -56.0133 C.2       21 UNK         0.5000 
    118 O         -1.0668  -15.3424  -56.5764 O.2       21 UNK        -0.5000 
    119 N         -0.5492  -17.4023  -55.7900 N.am      22 UNK        -0.5000 
    120 CA         0.9134  -17.3345  -55.9302 C.3       22 UNK         0.1400 
    121 C          1.6156  -16.3217  -54.9742 C.2       22 UNK         0.5000 
    122 N          0.9776  -15.8529  -53.9070 N.am      22 UNK        -0.7600 
    123 O          2.7596  -15.9466  -55.2150 O.2       22 UNK        -0.5000 
    124 C124        1.5659  -18.7423  -55.8470 C.3       23 UNK        -0.0398 
    125 S125        1.0712  -19.7078  -54.3738 S.3       23 UNK        -0.2404 
    126 C126        2.4452  -19.3807  -53.2269 C.3       23 UNK        -0.0205 
    127 H127       -3.5473  -15.6225  -51.1444 H         1 UNK         0.0600 
    128 H128       -3.8057  -14.8328  -52.7016 H         1 UNK         0.0600 
    129 H129       -4.4292  -14.0958  -51.2214 H         1 UNK         0.0600 
    130 H130       -1.4276  -15.4294  -50.5341 H         1 UNK         0.3000 
    131 H131        0.3883  -13.4670  -51.4834 H         1 UNK         0.0600 
    132 H132        1.9993  -14.4951  -49.8693 H         1 UNK         0.0800 
    133 H133        1.2703  -15.6270  -50.9544 H         1 UNK         0.0800 
    134 H134       -0.9146  -17.0966  -50.2639 H         1 UNK         0.0800 
    135 H135       -0.9399  -17.8845  -48.7133 H         1 UNK         0.0800 
    136 H136        0.7890  -17.6700  -51.9449 H         1 UNK         0.1150 
    137 H137        3.0296  -21.2642  -51.3190 H         1 UNK         0.1150 
    138 H138        0.7958  -19.5368  -48.0916 H         1 UNK         0.1150 
    139 H139        3.3148  -22.1049  -49.0539 H         1 UNK         0.0800 
    140 H140        2.5790  -21.2794  -47.6958 H         1 UNK         0.0800 
    141 H141        2.8985  -23.9053  -47.3354 H         1 UNK         0.0800 
    142 H142        2.1217  -25.0704  -48.3529 H         1 UNK         0.0800 
    143 H143        1.6466  -25.6506  -46.0650 H         1 UNK         0.0600 
    144 H144        1.1940  -22.8173  -45.6238 H         1 UNK         0.3000 
    145 H145       -0.1733  -22.4488  -43.1845 H         1 UNK         0.0600 
    146 H146        0.9421  -22.4277  -40.9497 H         1 UNK         0.0600 
    147 H147        0.2412  -23.9972  -41.3060 H         1 UNK         0.0600 
    148 H148        1.9796  -23.7632  -41.4470 H         1 UNK         0.0600 
    149 H149        1.3142  -20.8754  -43.5305 H         1 UNK         0.3000 
    150 H150        4.8961  -20.7235  -43.6669 H         1 UNK         0.0600 
    151 H151        4.0517  -20.8990  -45.9752 H         1 UNK         0.0600 
    152 H152        4.2188  -19.2125  -45.5200 H         1 UNK         0.0600 
    153 H153        2.6195  -19.9503  -45.5638 H         1 UNK         0.0600 
    154 H154        2.8757  -18.7084  -43.3990 H         1 UNK         0.3000 
    155 H155        3.2191  -18.3965  -39.8265 H         1 UNK         0.0600 
    156 H156        5.0818  -17.1366  -40.9270 H         1 UNK         0.0600 
    157 H157        3.7243  -16.0917  -40.5388 H         1 UNK         0.0600 
    158 H158        3.9833  -16.6184  -42.2007 H         1 UNK         0.0600 
    159 H159        1.5955  -17.0054  -41.7245 H         1 UNK         0.3000 
    160 H160       -1.3156  -19.0661  -41.3199 H         1 UNK         0.0600 
    161 H161       -0.6762  -16.2103  -40.4104 H         1 UNK         0.0600 
    162 H162       -1.2803  -17.4945  -39.3691 H         1 UNK         0.0600 
    163 H163       -2.2827  -16.8845  -40.6769 H         1 UNK         0.0600 
    164 H164       -0.9367  -16.7024  -42.8314 H         1 UNK         0.3000 
    165 H165        0.1717  -18.2858  -45.8718 H         1 UNK         0.0600 
    166 H166       -1.7587  -16.9135  -46.6239 H         1 UNK         0.0600 
    167 H167       -2.3341  -18.3175  -45.7408 H         1 UNK         0.0600 
    168 H168       -2.3191  -16.7394  -44.9667 H         1 UNK         0.0600 
    169 H169       -0.1451  -15.5522  -45.2879 H         1 UNK         0.3000 
    170 H170        3.1564  -14.8822  -44.0448 H         1 UNK         0.0600 
    171 H171        2.9585  -13.2277  -45.8789 H         1 UNK         0.0600 
    172 H172        3.2105  -14.8372  -46.5375 H         1 UNK         0.0600 
    173 H173        1.6069  -14.1230  -46.5759 H         1 UNK         0.0600 
    174 H174        0.8056  -13.2662  -44.3773 H         1 UNK         0.3000 
    175 H175       -0.4179  -13.6166  -41.0413 H         1 UNK         0.0600 
    176 H176        1.4643  -11.9810  -40.8827 H         1 UNK         0.0600 
    177 H177        1.0238  -11.3011  -42.4447 H         1 UNK         0.0600 
    178 H178       -0.0777  -11.1623  -41.0741 H         1 UNK         0.0600 
    179 H179       -1.2146  -11.9847  -43.2575 H         1 UNK         0.3000 
    180 H180       -3.5484  -14.2871  -44.6640 H         1 UNK         0.0600 
    181 H181       -4.6840  -13.1484  -42.7480 H         1 UNK         0.0600 
    182 H182       -3.8670  -11.6417  -43.1463 H         1 UNK         0.0600 
    183 H183       -5.0285  -12.3458  -44.2714 H         1 UNK         0.0600 
    184 H184       -2.8872  -11.6603  -45.4586 H         1 UNK         0.3000 
    185 H185       -1.9584  -11.5075  -47.6279 H         1 UNK         0.0600 
    186 H186       -0.2389  -10.7540  -45.8673 H         1 UNK         0.0600 
    187 H187        0.9220  -11.8663  -46.5772 H         1 UNK         0.0600 
    188 H188        0.3094  -10.5040  -47.5080 H         1 UNK         0.0600 
    189 H189       -0.9738  -13.9815  -48.2355 H         1 UNK         0.3000 
    190 H190        0.4454  -26.6397  -48.0789 H         1 UNK         0.3000 
    191 H191       -2.2344  -27.1346  -47.3984 H         1 UNK         0.0600 
    192 H192       -0.7613  -27.6055  -50.0450 H         1 UNK         0.0600 
    193 H193       -2.2943  -28.3394  -49.5899 H         1 UNK         0.0600 
    194 H194       -0.8410  -28.7223  -48.6818 H         1 UNK         0.0600 
    195 H195       -0.8931  -24.8508  -49.8172 H         1 UNK         0.3000 
    196 H196       -3.4247  -24.0711  -50.9300 H         1 UNK         0.0600 
    197 H197       -1.2814  -23.7613  -52.1526 H         1 UNK         0.0600 
    198 H198       -0.7328  -22.6002  -50.9421 H         1 UNK         0.0600 
    199 H199       -2.1182  -22.2313  -51.9558 H         1 UNK         0.0600 
    200 H200       -1.4717  -22.8646  -48.2028 H         1 UNK         0.3000 
    201 H201       -3.0782  -20.5343  -47.6559 H         1 UNK         0.0600 
    202 H202       -1.8549  -20.5918  -45.4583 H         1 UNK         0.0600 
    203 H203       -1.1267  -22.1187  -45.9030 H         1 UNK         0.0600 
    204 H204       -0.7645  -20.6698  -46.8351 H         1 UNK         0.0600 
    205 H205       -3.0118  -23.8819  -46.3768 H         1 UNK         0.3000 
    206 H206       -5.0958  -23.5833  -44.4762 H         1 UNK         0.0600 
    207 H207       -3.4297  -25.4148  -44.4044 H         1 UNK         0.0600 
    208 H208       -5.0558  -26.0808  -44.4563 H         1 UNK         0.0600 
    209 H209       -4.0582  -26.0874  -45.9062 H         1 UNK         0.0600 
    210 H210       -5.1837  -24.7938  -47.8741 H         1 UNK         0.3000 
    211 H211       -8.0357  -25.2741  -47.8528 H         1 UNK         0.0600 
    212 H212       -7.6664  -25.7613  -50.2597 H         1 UNK         0.0600 
    213 H213       -6.4358  -26.5515  -49.2861 H         1 UNK         0.0600 
    214 H214       -6.0465  -25.0802  -50.1780 H         1 UNK         0.0600 
    215 H215       -6.0811  -22.4856  -48.4721 H         1 UNK         0.3000 
    216 H216       -6.3885  -20.3842  -48.9517 H         1 UNK         0.0600 
    217 H217       -8.5745  -19.2657  -49.0008 H         1 UNK         0.0600 
    218 H218       -8.5085  -20.3655  -47.6319 H         1 UNK         0.0600 
    219 H219       -9.4209  -20.8013  -49.0777 H         1 UNK         0.0600 
    220 H220       -8.0461  -22.6881  -51.0177 H         1 UNK         0.3000 
    221 H221       -7.9305  -21.2188  -53.4838 H         1 UNK         0.0600 
    222 H222       -7.9843  -24.2371  -52.9171 H         1 UNK         0.0600 
    223 H223       -9.3954  -23.2074  -53.1598 H         1 UNK         0.0600 
    224 H224       -8.2761  -23.4915  -54.4844 H         1 UNK         0.0600 
    225 H225       -6.3732  -21.1608  -55.0352 H         1 UNK         0.3000 
    226 H226       -4.4584  -21.1738  -56.0927 H         1 UNK         0.0600 
    227 H227       -4.5806  -23.6830  -55.9485 H         1 UNK         0.0600 
    228 H228       -2.9363  -23.0764  -56.0446 H         1 UNK         0.0600 
    229 H229       -3.5675  -23.6318  -54.5049 H         1 UNK         0.0600 
    230 H230       -4.6858  -20.0831  -53.0989 H         1 UNK         0.3000 
    231 H231       -1.9402  -19.6300  -52.3321 H         1 UNK         0.0600 
    232 H232       -3.8550  -19.6320  -50.7226 H         1 UNK         0.0600 
    233 H233       -4.5206  -18.1979  -51.5007 H         1 UNK         0.0600 
    234 H234       -2.9797  -18.1149  -50.6601 H         1 UNK         0.0600 
    235 H235       -3.7265  -18.3520  -54.8656 H         1 UNK         0.3000 
    236 H236       -3.0926  -15.6210  -54.9759 H         1 UNK         0.0600 
    237 H237       -3.7180  -15.8749  -57.3874 H         1 UNK         0.0600 
    238 H238       -4.8519  -16.7138  -56.3430 H         1 UNK         0.0600 
    239 H239       -3.6312  -17.6255  -57.2334 H         1 UNK         0.0600 
    240 H240       -0.9004  -18.2239  -55.3182 H         1 UNK         0.3000 
    241 H241        1.1070  -16.9570  -56.9359 H         1 UNK         0.0600 
    242 H242        1.4417  -15.1784  -53.3235 H         1 UNK         0.3800 
    243 H243        0.0464  -16.1792  -53.6727 H         1 UNK         0.3800 
    244 H244        1.2660  -19.3204  -56.7219 H         1 UNK         0.0800 
    245 H245        2.6542  -18.6799  -55.9039 H         1 UNK         0.0800 
    246 H246        2.8680  -18.3927  -53.4094 H         1 UNK         0.0800 
    247 H247        3.2458  -20.0979  -53.4135 H         1 UNK         0.0800 
@<TRIPOS>BOND
     1    1    2 1    
     2    1  127 1    
     3    1  128 1    
     4    1  129 1    
     5    2    3 2    
     6    2    4 am   BACKBONE|DICT|INTERRES
     7    4    5 1    
     8    4  130 1    
     9    5    6 1    
    10    5   65 1    
    11    5  131 1    
    12    6    7 1    
    13    6  132 1    
    14    6  133 1    
    15    7    8 1    
    16    8    9 1    
    17    8  134 1    
    18    8  135 1    
    19    9   10 ar   
    20    9   14 ar   
    21   10   11 ar   
    22   10  136 1    
    23   11   12 ar   
    24   11  126 1    
    25   12   13 ar   
    26   12  137 1    
    27   13   14 ar   
    28   13   15 1    
    29   14  138 1    
    30   15   16 1    
    31   15  139 1    
    32   15  140 1    
    33   16   17 1    
    34   17   18 1    
    35   17  141 1    
    36   17  142 1    
    37   18   19 1    
    38   18   67 1    
    39   18  143 1    
    40   19   20 am   BACKBONE|DICT|INTERRES
    41   19  144 1    
    42   20   21 2    
    43   20   22 1    
    44   22   23 1    
    45   22   24 1    
    46   22  145 1    
    47   23  146 1    
    48   23  147 1    
    49   23  148 1    
    50   24   25 am   BACKBONE|DICT|INTERRES
    51   24  149 1    
    52   25   26 2    
    53   25   27 1    
    54   27   28 1    
    55   27   29 1    
    56   27  150 1    
    57   28  151 1    
    58   28  152 1    
    59   28  153 1    
    60   29   30 am   BACKBONE|DICT|INTERRES
    61   29  154 1    
    62   30   31 2    
    63   30   32 1    
    64   32   33 1    
    65   32   34 1    
    66   32  155 1    
    67   33  156 1    
    68   33  157 1    
    69   33  158 1    
    70   34   35 am   BACKBONE|DICT|INTERRES
    71   34  159 1    
    72   35   36 2    
    73   35   37 1    
    74   37   38 1    
    75   37   39 1    
    76   37  160 1    
    77   38  161 1    
    78   38  162 1    
    79   38  163 1    
    80   39   40 am   BACKBONE|DICT|INTERRES
    81   39  164 1    
    82   40   41 2    
    83   40   42 1    
    84   42   43 1    
    85   42   44 1    
    86   42  165 1    
    87   43  166 1    
    88   43  167 1    
    89   43  168 1    
    90   44   45 am   BACKBONE|DICT|INTERRES
    91   44  169 1    
    92   45   46 2    
    93   45   47 1    
    94   47   48 1    
    95   47   49 1    
    96   47  170 1    
    97   48  171 1    
    98   48  172 1    
    99   48  173 1    
   100   49   50 am   BACKBONE|DICT|INTERRES
   101   49  174 1    
   102   50   51 2    
   103   50   52 1    
   104   52   53 1    
   105   52   54 1    
   106   52  175 1    
   107   53  176 1    
   108   53  177 1    
   109   53  178 1    
   110   54   55 am   BACKBONE|DICT|INTERRES
   111   54  179 1    
   112   55   56 2    
   113   55   57 1    
   114   57   58 1    
   115   57   59 1    
   116   57  180 1    
   117   58  181 1    
   118   58  182 1    
   119   58  183 1    
   120   59   60 am   BACKBONE|DICT|INTERRES
   121   59  184 1    
   122   60   61 2    
   123   60   62 1    
   124   62   63 1    
   125   62   64 1    
   126   62  185 1    
   127   63  186 1    
   128   63  187 1    
   129   63  188 1    
   130   64   65 am   BACKBONE|DICT|INTERRES
   131   64  189 1    
   132   65   66 2    
   133   67   68 2    
   134   67   69 am   BACKBONE|DICT|INTERRES
   135   69   70 1    
   136   69  190 1    
   137   70   71 1    
   138   70   72 1    
   139   70  191 1    
   140   71  192 1    
   141   71  193 1    
   142   71  194 1    
   143   72   73 2    
   144   72   74 am   BACKBONE|DICT|INTERRES
   145   74   75 1    
   146   74  195 1    
   147   75   76 1    
   148   75   77 1    
   149   75  196 1    
   150   76  197 1    
   151   76  198 1    
   152   76  199 1    
   153   77   78 2    
   154   77   79 am   BACKBONE|DICT|INTERRES
   155   79   80 1    
   156   79  200 1    
   157   80   81 1    
   158   80   82 1    
   159   80  201 1    
   160   81  202 1    
   161   81  203 1    
   162   81  204 1    
   163   82   83 2    
   164   82   84 am   BACKBONE|DICT|INTERRES
   165   84   85 1    
   166   84  205 1    
   167   85   86 1    
   168   85   87 1    
   169   85  206 1    
   170   86  207 1    
   171   86  208 1    
   172   86  209 1    
   173   87   88 2    
   174   87   89 am   BACKBONE|DICT|INTERRES
   175   89   90 1    
   176   89  210 1    
   177   90   91 1    
   178   90   92 1    
   179   90  211 1    
   180   91  212 1    
   181   91  213 1    
   182   91  214 1    
   183   92   93 2    
   184   92   94 am   BACKBONE|DICT|INTERRES
   185   94   95 1    
   186   94  215 1    
   187   95   96 1    
   188   95   97 1    
   189   95  216 1    
   190   96  217 1    
   191   96  218 1    
   192   96  219 1    
   193   97   98 2    
   194   97   99 am   BACKBONE|DICT|INTERRES
   195   99  100 1    
   196   99  220 1    
   197  100  101 1    
   198  100  102 1    
   199  100  221 1    
   200  101  222 1    
   201  101  223 1    
   202  101  224 1    
   203  102  103 2    
   204  102  104 am   BACKBONE|DICT|INTERRES
   205  104  105 1    
   206  104  225 1    
   207  105  106 1    
   208  105  107 1    
   209  105  226 1    
   210  106  227 1    
   211  106  228 1    
   212  106  229 1    
   213  107  108 2    
   214  107  109 am   BACKBONE|DICT|INTERRES
   215  109  110 1    
   216  109  230 1    
   217  110  111 1    
   218  110  112 1    
   219  110  231 1    
   220  111  232 1    
   221  111  233 1    
   222  111  234 1    
   223  112  113 2    
   224  112  114 am   BACKBONE|DICT|INTERRES
   225  114  115 1    
   226  114  235 1    
   227  115  116 1    
   228  115  117 1    
   229  115  236 1    
   230  116  237 1    
   231  116  238 1    
   232  116  239 1    
   233  117  118 2    
   234  117  119 am   BACKBONE|DICT|INTERRES
   235  119  120 1    
   236  119  240 1    
   237  120  121 1    
   238  120  124 1    
   239  120  241 1    
   240  121  122 am   BACKBONE|DICT|INTERRES
   241  121  123 2    
   242  122  242 1    
   243  122  243 1    
   244  124  125 1    
   245  124  244 1    
   246  124  245 1    
   247  125  126 1    
   248  126  246 1    
   249  126  247 1    
@<TRIPOS>SUBSTRUCTURE
     1 UNK         1 GROUP             0       ****    0 ROOT    
