@<TRIPOS>MOLECULE
3R540
247   249    1
SMALL
USER_CHARGES


@<TRIPOS>ATOM
      1 CA          0.4134  -11.3754  -44.6247 C.3       0 UNK        -0.1800 
      2 C           1.5578  -11.2672  -45.6202 C.2       0 UNK         0.5000 
      3 O           2.6326  -10.7832  -45.2661 O.2       0 UNK        -0.5000 
      4 N           1.3450  -11.7343  -46.8595 N.am      1 UNK        -0.5000 
      5 CA          2.3099  -11.6581  -47.9697 C.3       1 UNK         0.1400 
      6 C6          1.6174  -11.9024  -49.3446 C.3       23 UNK        -0.0398 
      7 S7          1.7390  -13.5663  -50.0934 S.3       23 UNK        -0.2404 
      8 C8          0.5823  -14.5399  -49.0831 C.3       23 UNK        -0.0205 
      9 C9          0.5619  -15.9845  -49.5567 C.ar      23 UNK        -0.0193 
     10 C10        -0.5321  -16.4895  -50.2657 C.ar      23 UNK        -0.1150 
     11 C11        -0.5161  -17.8000  -50.7534 C.ar      23 UNK        -0.0193 
     12 C12         0.6026  -18.6064  -50.5254 C.ar      23 UNK        -0.1150 
     13 C13         1.6948  -18.1189  -49.8006 C.ar      23 UNK        -0.0193 
     14 C14         1.6634  -16.8095  -49.3140 C.ar      23 UNK        -0.1150 
     15 C15         2.9253  -18.9854  -49.5592 C.3       23 UNK        -0.0205 
     16 S16         2.5396  -20.6192  -48.8504 S.3       23 UNK        -0.2404 
     17 C17         1.6706  -20.1661  -47.3108 C.3       23 UNK        -0.0398 
     18 CA          0.5539  -21.1692  -46.9432 C.3       11 UNK         0.1400 
     19 N           0.1410  -21.0182  -45.5480 N.am      11 UNK        -0.5000 
     20 C          -0.6208  -21.8948  -44.8813 C.2       10 UNK         0.5000 
     21 O          -1.0451  -22.9415  -45.3692 O.2       10 UNK        -0.5000 
     22 CA         -1.0081  -21.5191  -43.4413 C.3       10 UNK         0.1400 
     23 CB          0.1591  -21.7782  -42.4773 C.3       10 UNK        -0.1800 
     24 N          -1.4501  -20.1290  -43.3249 N.am      10 UNK        -0.5000 
     25 C          -2.5387  -19.6315  -43.9298 C.2       9 UNK         0.5000 
     26 O          -3.3014  -20.3021  -44.6253 O.2       9 UNK        -0.5000 
     27 CA         -2.8011  -18.1248  -43.7646 C.3       9 UNK         0.1400 
     28 CB         -3.4210  -17.8283  -42.3910 C.3       9 UNK        -0.1800 
     29 N          -1.5975  -17.3141  -43.9508 N.am      9 UNK        -0.5000 
     30 C          -0.8939  -17.2468  -45.0904 C.2       8 UNK         0.5000 
     31 O          -1.1930  -17.8501  -46.1183 O.2       8 UNK        -0.5000 
     32 CA          0.3949  -16.4105  -45.0644 C.3       8 UNK         0.1400 
     33 CB          0.0837  -14.9090  -45.1309 C.3       8 UNK        -0.1800 
     34 N           1.2135  -16.6909  -43.8873 N.am      8 UNK        -0.5000 
     35 C           1.7558  -17.8846  -43.6067 C.2       7 UNK         0.5000 
     36 O           1.6490  -18.8766  -44.3269 O.2       7 UNK        -0.5000 
     37 CA          2.5034  -17.9992  -42.2700 C.3       7 UNK         0.1400 
     38 CB          3.9088  -17.3892  -42.3779 C.3       7 UNK        -0.1800 
     39 N           1.7660  -17.3628  -41.1789 N.am      7 UNK        -0.5000 
     40 C           0.5915  -17.8027  -40.7033 C.2       6 UNK         0.5000 
     41 O           0.0160  -18.8095  -41.1154 O.2       6 UNK        -0.5000 
     42 CA         -0.0714  -16.9437  -39.6131 C.3       6 UNK         0.1400 
     43 CB          0.5374  -17.2457  -38.2357 C.3       6 UNK        -0.1800 
     44 N           0.0358  -15.5111  -39.8910 N.am      6 UNK        -0.5000 
     45 C          -0.5582  -14.8962  -40.9231 C.2       5 UNK         0.5000 
     46 O          -1.2712  -15.4686  -41.7459 O.2       5 UNK        -0.5000 
     47 CA         -0.2677  -13.3961  -41.0886 C.3       5 UNK         0.1400 
     48 CB         -1.1904  -12.5600  -40.1897 C.3       5 UNK        -0.1800 
     49 N           1.1293  -13.0490  -40.8147 N.am      5 UNK        -0.5000 
     50 C           2.1705  -13.4719  -41.5418 C.2       4 UNK         0.5000 
     51 O           2.0737  -14.2405  -42.5033 O.2       4 UNK        -0.5000 
     52 CA          3.5518  -12.9531  -41.1320 C.3       4 UNK         0.1400 
     53 CB          4.3172  -13.9916  -40.2948 C.3       4 UNK        -0.1800 
     54 N           4.2740  -12.6435  -42.3569 N.am      4 UNK        -0.5000 
     55 C           5.2890  -11.7827  -42.4813 C.2       3 UNK         0.5000 
     56 O           5.8197  -11.2179  -41.5234 O.2       3 UNK        -0.5000 
     57 CA          5.7540  -11.4512  -43.9147 C.3       3 UNK         0.1400 
     58 CB          7.2882  -11.3422  -44.0418 C.3       3 UNK        -0.1800 
     59 N           5.1644  -12.3201  -44.9424 N.am      3 UNK        -0.5000 
     60 C           5.4883  -13.5837  -45.2612 C.2       2 UNK         0.5000 
     61 O           6.4045  -14.2089  -44.7276 O.2       2 UNK        -0.5000 
     62 CA          4.6274  -14.2915  -46.3341 C.3       2 UNK         0.1400 
     63 CB          4.0456  -15.6025  -45.7806 C.3       2 UNK        -0.1800 
     64 N           3.5158  -13.4728  -46.8223 N.am      2 UNK        -0.5000 
     65 C           3.5976  -12.4885  -47.7294 C.2       1 UNK         0.5000 
     66 O           4.6340  -12.1963  -48.3266 O.2       1 UNK        -0.5000 
     67 C          -0.6502  -21.1138  -47.9102 C.2       11 UNK         0.5000 
     68 O          -0.7307  -21.9383  -48.8215 O.2       11 UNK        -0.5000 
     69 N          -1.5960  -20.1950  -47.6653 N.am      12 UNK        -0.5000 
     70 CA         -2.8470  -20.0865  -48.4144 C.3       12 UNK         0.1400 
     71 CB         -3.5917  -18.8019  -48.0252 C.3       12 UNK        -0.1800 
     72 C          -3.7485  -21.3205  -48.2563 C.2       12 UNK         0.5000 
     73 O          -4.2985  -21.7868  -49.2500 O.2       12 UNK        -0.5000 
     74 N          -3.8533  -21.8582  -47.0339 N.am      13 UNK        -0.5000 
     75 CA         -4.5732  -23.1014  -46.7530 C.3       13 UNK         0.1400 
     76 CB         -4.6865  -23.2976  -45.2338 C.3       13 UNK        -0.1800 
     77 C          -3.9224  -24.3309  -47.4165 C.2       13 UNK         0.5000 
     78 O          -4.6377  -25.2136  -47.8911 O.2       13 UNK        -0.5000 
     79 N          -2.5830  -24.3620  -47.4439 N.am      14 UNK        -0.5000 
     80 CA         -1.7876  -25.4329  -48.0402 C.3       14 UNK         0.1400 
     81 CB         -0.3351  -25.3242  -47.5528 C.3       14 UNK        -0.1800 
     82 C          -1.8353  -25.4629  -49.5787 C.2       14 UNK         0.5000 
     83 O          -1.7359  -26.5524  -50.1434 O.2       14 UNK        -0.5000 
     84 N          -1.9755  -24.2940  -50.2256 N.am      15 UNK        -0.5000 
     85 CA         -1.9868  -24.0960  -51.6812 C.3       15 UNK         0.1400 
     86 CB         -2.1875  -22.6040  -51.9953 C.3       15 UNK        -0.1800 
     87 C          -3.0361  -24.9704  -52.3971 C.2       15 UNK         0.5000 
     88 O          -4.2300  -24.6583  -52.3640 O.2       15 UNK        -0.5000 
     89 N          -2.5660  -26.0986  -52.9535 N.am      16 UNK        -0.5000 
     90 CA         -3.3279  -27.1978  -53.5673 C.3       16 UNK         0.1400 
     91 CB         -3.9662  -26.7289  -54.8888 C.3       16 UNK        -0.1800 
     92 C          -4.3684  -27.8543  -52.6298 C.2       16 UNK         0.5000 
     93 O          -5.2717  -28.5399  -53.1108 O.2       16 UNK        -0.5000 
     94 N          -4.2484  -27.5970  -51.3174 N.am      17 UNK        -0.5000 
     95 CA         -5.2283  -27.8571  -50.2574 C.3       17 UNK         0.1400 
     96 CB         -5.3272  -29.3707  -49.9772 C.3       17 UNK        -0.1800 
     97 C          -6.6091  -27.2043  -50.5191 C.2       17 UNK         0.5000 
     98 O          -7.6200  -27.7098  -50.0266 O.2       17 UNK        -0.5000 
     99 N          -6.6395  -26.1214  -51.3120 N.am      18 UNK        -0.5000 
    100 CA        -7.8646  -25.5367  -51.8626 C.3       18 UNK         0.1400 
    101 CB        -8.0596  -26.0610  -53.2958 C.3       18 UNK        -0.1800 
    102 C         -7.8783  -24.0000  -51.8548 C.2       18 UNK         0.5000 
    103 O         -8.9586  -23.4230  -51.9826 O.2       18 UNK        -0.5000 
    104 N         -6.7071  -23.3549  -51.7507 N.am      19 UNK        -0.5000 
    105 CA        -6.4566  -21.9048  -51.7395 C.3       19 UNK         0.1400 
    106 CB        -7.2169  -21.1981  -50.6004 C.3       19 UNK        -0.1800 
    107 C         -6.6874  -21.1939  -53.0867 C.2       19 UNK         0.5000 
    108 O         -5.9452  -20.2670  -53.4105 O.2       19 UNK        -0.5000 
    109 N         -7.6667  -21.6559  -53.8741 N.am      20 UNK        -0.5000 
    110 CA        -8.0332  -21.1420  -55.1982 C.3       20 UNK         0.1400 
    111 CB        -9.2893  -21.8845  -55.6795 C.3       20 UNK        -0.1800 
    112 C         -6.9123  -21.2386  -56.2552 C.2       20 UNK         0.5000 
    113 O         -6.9573  -20.5198  -57.2539 O.2       20 UNK        -0.5000 
    114 N         -5.9258  -22.1121  -56.0138 N.am      21 UNK        -0.5000 
    115 CA        -4.7226  -22.2748  -56.8285 C.3       21 UNK         0.1400 
    116 CB        -4.0761  -23.6217  -56.4751 C.3       21 UNK        -0.1800 
    117 C         -3.7001  -21.1305  -56.6656 C.2       21 UNK         0.5000 
    118 O         -2.8057  -21.0119  -57.5043 O.2       21 UNK        -0.5000 
    119 N         -3.8222  -20.3279  -55.5982 N.am      22 UNK        -0.5000 
    120 CA        -2.9673  -19.1633  -55.3282 C.3       22 UNK         0.1400 
    121 C         -3.1625  -18.0284  -56.3749 C.2       22 UNK         0.5000 
    122 N         -2.0855  -17.4300  -56.8655 N.am      22 UNK        -0.7600 
    123 O         -4.2844  -17.6639  -56.7196 O.2       22 UNK        -0.5000 
    124 C124       -3.1833  -18.6431  -53.8846 C.3       23 UNK        -0.0398 
    125 S125       -1.7289  -17.7486  -53.2394 S.3       23 UNK        -0.2404 
    126 C126       -1.7061  -18.3468  -51.5244 C.3       23 UNK        -0.0205 
    127 H127       -0.4563  -11.8725  -45.0544 H         1 UNK         0.0600 
    128 H128        0.7368  -11.9435  -43.7543 H         1 UNK         0.0600 
    129 H129        0.1106  -10.3829  -44.2915 H         1 UNK         0.0600 
    130 H130        0.4375  -12.1111  -47.0914 H         1 UNK         0.3000 
    131 H131        2.6449  -10.6182  -47.9821 H         1 UNK         0.0600 
    132 H132        0.5682  -11.6053  -49.3127 H         1 UNK         0.0800 
    133 H133        2.0702  -11.2265  -50.0716 H         1 UNK         0.0800 
    134 H134        0.8916  -14.5074  -48.0386 H         1 UNK         0.0800 
    135 H135       -0.4142  -14.0987  -49.1355 H         1 UNK         0.0800 
    136 H136       -1.3889  -15.8590  -50.4576 H         1 UNK         0.1150 
    137 H137        0.6228  -19.6179  -50.9067 H         1 UNK         0.1150 
    138 H138        2.5110  -16.4151  -48.7716 H         1 UNK         0.1150 
    139 H139        3.4431  -19.1280  -50.5084 H         1 UNK         0.0800 
    140 H140        3.6303  -18.4804  -48.8969 H         1 UNK         0.0800 
    141 H141        1.2706  -19.1525  -47.3627 H         1 UNK         0.0800 
    142 H142        2.4254  -20.1483  -46.5238 H         1 UNK         0.0800 
    143 H143        0.9790  -22.1719  -47.0263 H         1 UNK         0.0600 
    144 H144        0.4764  -20.1882  -45.0655 H         1 UNK         0.3000 
    145 H145       -1.8411  -22.1599  -43.1446 H         1 UNK         0.0600 
    146 H146       -0.1404  -21.6083  -41.4430 H         1 UNK         0.0600 
    147 H147        0.5055  -22.8098  -42.5502 H         1 UNK         0.0600 
    148 H148        1.0092  -21.1288  -42.6895 H         1 UNK         0.0600 
    149 H149       -0.8875  -19.5208  -42.7373 H         1 UNK         0.3000 
    150 H150       -3.5202  -17.8291  -44.5311 H         1 UNK         0.0600 
    151 H151       -4.3214  -18.4227  -42.2310 H         1 UNK         0.0600 
    152 H152       -3.7048  -16.7793  -42.3061 H         1 UNK         0.0600 
    153 H153       -2.7283  -18.0535  -41.5794 H         1 UNK         0.0600 
    154 H154       -1.3007  -16.7565  -43.1542 H         1 UNK         0.3000 
    155 H155        0.9787  -16.6759  -45.9484 H         1 UNK         0.0600 
    156 H156       -0.4669  -14.5721  -44.2525 H         1 UNK         0.0600 
    157 H157       -0.5205  -14.6717  -46.0071 H         1 UNK         0.0600 
    158 H158        1.0002  -14.3244  -45.1919 H         1 UNK         0.0600 
    159 H159        1.3768  -15.9160  -43.2516 H         1 UNK         0.3000 
    160 H160        2.6093  -19.0603  -42.0341 H         1 UNK         0.0600 
    161 H161        4.4591  -17.4946  -41.4430 H         1 UNK         0.0600 
    162 H162        3.8725  -16.3296  -42.6309 H         1 UNK         0.0600 
    163 H163        4.4894  -17.8881  -43.1548 H         1 UNK         0.0600 
    164 H164        2.1459  -16.5044  -40.8109 H         1 UNK         0.3000 
    165 H165       -1.1315  -17.2048  -39.5827 H         1 UNK         0.0600 
    166 H166        0.0193  -16.6990  -37.4477 H         1 UNK         0.0600 
    167 H167        0.4579  -18.3077  -37.9991 H         1 UNK         0.0600 
    168 H168        1.5938  -16.9777  -38.1921 H         1 UNK         0.0600 
    169 H169        0.6081  -14.9630  -39.2661 H         1 UNK         0.3000 
    170 H170       -0.4843  -13.1366  -42.1262 H         1 UNK         0.0600 
    171 H171       -2.2386  -12.7910  -40.3844 H         1 UNK         0.0600 
    172 H172       -1.0037  -12.7480  -39.1317 H         1 UNK         0.0600 
    173 H173       -1.0556  -11.4935  -40.3706 H         1 UNK         0.0600 
    174 H174        1.2923  -12.4206  -40.0410 H         1 UNK         0.3000 
    175 H175        3.4265  -12.0380  -40.5493 H         1 UNK         0.0600 
    176 H176        5.2749  -13.5957  -39.9569 H         1 UNK         0.0600 
    177 H177        3.7517  -14.2736  -39.4060 H         1 UNK         0.0600 
    178 H178        4.5172  -14.8996  -40.8623 H         1 UNK         0.0600 
    179 H179        3.8747  -13.0554  -43.1897 H         1 UNK         0.3000 
    180 H180        5.3501  -10.4594  -44.1229 H         1 UNK         0.0600 
    181 H181        7.7908  -12.2560  -43.7249 H         1 UNK         0.0600 
    182 H182        7.6721  -10.5332  -43.4195 H         1 UNK         0.0600 
    183 H183        7.5866  -11.1297  -45.0684 H         1 UNK         0.0600 
    184 H184        4.3615  -11.9112  -45.4083 H         1 UNK         0.3000 
    185 H185        5.2826  -14.5327  -47.1735 H         1 UNK         0.0600 
    186 H186        3.4399  -16.1182  -46.5253 H         1 UNK         0.0600 
    187 H187        4.8362  -16.2897  -45.4770 H         1 UNK         0.0600 
    188 H188        3.4218  -15.4162  -44.9071 H         1 UNK         0.0600 
    189 H189        2.6257  -13.6163  -46.3717 H         1 UNK         0.3000 
    190 H190       -1.4488  -19.5066  -46.9307 H         1 UNK         0.3000 
    191 H191       -2.5891  -20.0188  -49.4704 H         1 UNK         0.0600 
    192 H192       -3.8374  -18.7859  -46.9630 H         1 UNK         0.0600 
    193 H193       -4.5247  -18.7067  -48.5820 H         1 UNK         0.0600 
    194 H194       -2.9907  -17.9190  -48.2441 H         1 UNK         0.0600 
    195 H195       -3.4174  -21.3893  -46.2449 H         1 UNK         0.3000 
    196 H196       -5.5825  -23.0034  -47.1583 H         1 UNK         0.0600 
    197 H197       -3.7059  -23.3707  -44.7626 H         1 UNK         0.0600 
    198 H198       -5.2347  -24.2102  -44.9971 H         1 UNK         0.0600 
    199 H199       -5.2188  -22.4677  -44.7686 H         1 UNK         0.0600 
    200 H200       -2.0698  -23.6250  -46.9709 H         1 UNK         0.3000 
    201 H201       -2.1885  -26.3842  -47.6841 H         1 UNK         0.0600 
    202 H202        0.1208  -24.3810  -47.8543 H         1 UNK         0.0600 
    203 H203        0.2763  -26.1297  -47.9614 H         1 UNK         0.0600 
    204 H204       -0.2773  -25.3927  -46.4664 H         1 UNK         0.0600 
    205 H205       -2.0024  -23.4500  -49.6650 H         1 UNK         0.3000 
    206 H206       -0.9989  -24.3759  -52.0516 H         1 UNK         0.0600 
    207 H207       -1.3770  -22.0030  -51.5826 H         1 UNK         0.0600 
    208 H208       -2.2092  -22.4271  -53.0715 H         1 UNK         0.0600 
    209 H209       -3.1220  -22.2277  -51.5833 H         1 UNK         0.0600 
    210 H210       -1.5765  -26.2812  -52.8567 H         1 UNK         0.3000 
    211 H211       -2.6029  -27.9772  -53.8053 H         1 UNK         0.0600 
    212 H212       -4.7510  -25.9925  -54.7150 H         1 UNK         0.0600 
    213 H213       -4.4155  -27.5630  -55.4288 H         1 UNK         0.0600 
    214 H214       -3.2213  -26.2843  -55.5482 H         1 UNK         0.0600 
    215 H215       -3.4262  -27.0782  -51.0235 H         1 UNK         0.3000 
    216 H216       -4.8331  -27.3837  -49.3590 H         1 UNK         0.0600 
    217 H217       -4.3433  -29.8020  -49.7928 H         1 UNK         0.0600 
    218 H218       -5.9358  -29.5673  -49.0940 H         1 UNK         0.0600 
    219 H219       -5.7785  -29.9079  -50.8118 H         1 UNK         0.0600 
    220 H220       -5.7611  -25.7590  -51.6672 H         1 UNK         0.3000 
    221 H221       -8.7258  -25.8445  -51.2663 H         1 UNK         0.0600 
    222 H222       -7.2251  -25.7823  -53.9406 H         1 UNK         0.0600 
    223 H223       -8.1417  -27.1481  -53.3094 H         1 UNK         0.0600 
    224 H224       -8.9706  -25.6610  -53.7429 H         1 UNK         0.0600 
    225 H225       -5.8564  -23.9100  -51.7441 H         1 UNK         0.3000 
    226 H226       -5.3922  -21.8038  -51.5366 H         1 UNK         0.0600 
    227 H227       -7.0394  -21.6896  -49.6439 H         1 UNK         0.0600 
    228 H228       -6.8845  -20.1643  -50.4997 H         1 UNK         0.0600 
    229 H229       -8.2928  -21.1779  -50.7742 H         1 UNK         0.0600 
    230 H230       -8.2536  -22.3888  -53.4891 H         1 UNK         0.3000 
    231 H231       -8.2796  -20.0845  -55.0847 H         1 UNK         0.0600 
    232 H232      -10.1179  -21.7503  -54.9839 H         1 UNK         0.0600 
    233 H233       -9.1072  -22.9551  -55.7820 H         1 UNK         0.0600 
    234 H234       -9.6181  -21.5118  -56.6505 H         1 UNK         0.0600 
    235 H235       -5.9799  -22.6639  -55.1707 H         1 UNK         0.3000 
    236 H236       -5.0174  -22.3021  -57.8796 H         1 UNK         0.0600 
    237 H237       -3.7882  -23.6660  -55.4237 H         1 UNK         0.0600 
    238 H238       -4.7599  -24.4465  -56.6752 H         1 UNK         0.0600 
    239 H239       -3.1782  -23.7964  -57.0693 H         1 UNK         0.0600 
    240 H240       -4.6096  -20.4550  -54.9725 H         1 UNK         0.3000 
    241 H241       -1.9391  -19.5235  -55.4049 H         1 UNK         0.0600 
    242 H242       -2.1993  -16.6848  -57.5349 H         1 UNK         0.3800 
    243 H243       -1.1574  -17.6999  -56.5782 H         1 UNK         0.3800 
    244 H244       -4.0675  -18.0067  -53.8137 H         1 UNK         0.0800 
    245 H245       -3.3750  -19.4874  -53.2209 H         1 UNK         0.0800 
    246 H246       -2.6325  -18.0561  -51.0268 H         1 UNK         0.0800 
    247 H247       -1.6788  -19.4373  -51.5303 H         1 UNK         0.0800 
@<TRIPOS>BOND
     1    1    2 1    
     2    1  127 1    
     3    1  128 1    
     4    1  129 1    
     5    2    3 2    
     6    2    4 am   BACKBONE|DICT|INTERRES
     7    4    5 1    
     8    4  130 1    
     9    5    6 1    
    10    5   65 1    
    11    5  131 1    
    12    6    7 1    
    13    6  132 1    
    14    6  133 1    
    15    7    8 1    
    16    8    9 1    
    17    8  134 1    
    18    8  135 1    
    19    9   10 ar   
    20    9   14 ar   
    21   10   11 ar   
    22   10  136 1    
    23   11   12 ar   
    24   11  126 1    
    25   12   13 ar   
    26   12  137 1    
    27   13   14 ar   
    28   13   15 1    
    29   14  138 1    
    30   15   16 1    
    31   15  139 1    
    32   15  140 1    
    33   16   17 1    
    34   17   18 1    
    35   17  141 1    
    36   17  142 1    
    37   18   19 1    
    38   18   67 1    
    39   18  143 1    
    40   19   20 am   BACKBONE|DICT|INTERRES
    41   19  144 1    
    42   20   21 2    
    43   20   22 1    
    44   22   23 1    
    45   22   24 1    
    46   22  145 1    
    47   23  146 1    
    48   23  147 1    
    49   23  148 1    
    50   24   25 am   BACKBONE|DICT|INTERRES
    51   24  149 1    
    52   25   26 2    
    53   25   27 1    
    54   27   28 1    
    55   27   29 1    
    56   27  150 1    
    57   28  151 1    
    58   28  152 1    
    59   28  153 1    
    60   29   30 am   BACKBONE|DICT|INTERRES
    61   29  154 1    
    62   30   31 2    
    63   30   32 1    
    64   32   33 1    
    65   32   34 1    
    66   32  155 1    
    67   33  156 1    
    68   33  157 1    
    69   33  158 1    
    70   34   35 am   BACKBONE|DICT|INTERRES
    71   34  159 1    
    72   35   36 2    
    73   35   37 1    
    74   37   38 1    
    75   37   39 1    
    76   37  160 1    
    77   38  161 1    
    78   38  162 1    
    79   38  163 1    
    80   39   40 am   BACKBONE|DICT|INTERRES
    81   39  164 1    
    82   40   41 2    
    83   40   42 1    
    84   42   43 1    
    85   42   44 1    
    86   42  165 1    
    87   43  166 1    
    88   43  167 1    
    89   43  168 1    
    90   44   45 am   BACKBONE|DICT|INTERRES
    91   44  169 1    
    92   45   46 2    
    93   45   47 1    
    94   47   48 1    
    95   47   49 1    
    96   47  170 1    
    97   48  171 1    
    98   48  172 1    
    99   48  173 1    
   100   49   50 am   BACKBONE|DICT|INTERRES
   101   49  174 1    
   102   50   51 2    
   103   50   52 1    
   104   52   53 1    
   105   52   54 1    
   106   52  175 1    
   107   53  176 1    
   108   53  177 1    
   109   53  178 1    
   110   54   55 am   BACKBONE|DICT|INTERRES
   111   54  179 1    
   112   55   56 2    
   113   55   57 1    
   114   57   58 1    
   115   57   59 1    
   116   57  180 1    
   117   58  181 1    
   118   58  182 1    
   119   58  183 1    
   120   59   60 am   BACKBONE|DICT|INTERRES
   121   59  184 1    
   122   60   61 2    
   123   60   62 1    
   124   62   63 1    
   125   62   64 1    
   126   62  185 1    
   127   63  186 1    
   128   63  187 1    
   129   63  188 1    
   130   64   65 am   BACKBONE|DICT|INTERRES
   131   64  189 1    
   132   65   66 2    
   133   67   68 2    
   134   67   69 am   BACKBONE|DICT|INTERRES
   135   69   70 1    
   136   69  190 1    
   137   70   71 1    
   138   70   72 1    
   139   70  191 1    
   140   71  192 1    
   141   71  193 1    
   142   71  194 1    
   143   72   73 2    
   144   72   74 am   BACKBONE|DICT|INTERRES
   145   74   75 1    
   146   74  195 1    
   147   75   76 1    
   148   75   77 1    
   149   75  196 1    
   150   76  197 1    
   151   76  198 1    
   152   76  199 1    
   153   77   78 2    
   154   77   79 am   BACKBONE|DICT|INTERRES
   155   79   80 1    
   156   79  200 1    
   157   80   81 1    
   158   80   82 1    
   159   80  201 1    
   160   81  202 1    
   161   81  203 1    
   162   81  204 1    
   163   82   83 2    
   164   82   84 am   BACKBONE|DICT|INTERRES
   165   84   85 1    
   166   84  205 1    
   167   85   86 1    
   168   85   87 1    
   169   85  206 1    
   170   86  207 1    
   171   86  208 1    
   172   86  209 1    
   173   87   88 2    
   174   87   89 am   BACKBONE|DICT|INTERRES
   175   89   90 1    
   176   89  210 1    
   177   90   91 1    
   178   90   92 1    
   179   90  211 1    
   180   91  212 1    
   181   91  213 1    
   182   91  214 1    
   183   92   93 2    
   184   92   94 am   BACKBONE|DICT|INTERRES
   185   94   95 1    
   186   94  215 1    
   187   95   96 1    
   188   95   97 1    
   189   95  216 1    
   190   96  217 1    
   191   96  218 1    
   192   96  219 1    
   193   97   98 2    
   194   97   99 am   BACKBONE|DICT|INTERRES
   195   99  100 1    
   196   99  220 1    
   197  100  101 1    
   198  100  102 1    
   199  100  221 1    
   200  101  222 1    
   201  101  223 1    
   202  101  224 1    
   203  102  103 2    
   204  102  104 am   BACKBONE|DICT|INTERRES
   205  104  105 1    
   206  104  225 1    
   207  105  106 1    
   208  105  107 1    
   209  105  226 1    
   210  106  227 1    
   211  106  228 1    
   212  106  229 1    
   213  107  108 2    
   214  107  109 am   BACKBONE|DICT|INTERRES
   215  109  110 1    
   216  109  230 1    
   217  110  111 1    
   218  110  112 1    
   219  110  231 1    
   220  111  232 1    
   221  111  233 1    
   222  111  234 1    
   223  112  113 2    
   224  112  114 am   BACKBONE|DICT|INTERRES
   225  114  115 1    
   226  114  235 1    
   227  115  116 1    
   228  115  117 1    
   229  115  236 1    
   230  116  237 1    
   231  116  238 1    
   232  116  239 1    
   233  117  118 2    
   234  117  119 am   BACKBONE|DICT|INTERRES
   235  119  120 1    
   236  119  240 1    
   237  120  121 1    
   238  120  124 1    
   239  120  241 1    
   240  121  122 am   BACKBONE|DICT|INTERRES
   241  121  123 2    
   242  122  242 1    
   243  122  243 1    
   244  124  125 1    
   245  124  244 1    
   246  124  245 1    
   247  125  126 1    
   248  126  246 1    
   249  126  247 1    
@<TRIPOS>SUBSTRUCTURE
     1 UNK         1 GROUP             0       ****    0 ROOT    
