@<TRIPOS>MOLECULE
3R540
247   249    1
SMALL
USER_CHARGES


@<TRIPOS>ATOM
      1 CA         -2.3280  -10.2993  -50.7605 C.3       0 UNK        -0.1800 
      2 C          -2.5274  -10.9488  -49.3986 C.2       0 UNK         0.5000 
      3 O          -3.0861  -10.3237  -48.4980 O.2       0 UNK        -0.5000 
      4 N          -2.0623  -12.1964  -49.2451 N.am      1 UNK        -0.5000 
      5 CA         -2.1625  -13.0244  -48.0324 C.3       1 UNK         0.1400 
      6 C6         -3.6320  -13.2489  -47.5741 C.3       23 UNK        -0.0398 
      7 S7         -3.9264  -14.8633  -46.7744 S.3       23 UNK        -0.2404 
      8 C8         -4.2704  -15.9382  -48.2057 C.3       23 UNK        -0.0205 
      9 C9         -3.0053  -16.2637  -48.9856 C.ar      23 UNK        -0.0193 
     10 C10        -2.8279  -15.7977  -50.2908 C.ar      23 UNK        -0.1150 
     11 C11        -1.6651  -16.0977  -51.0094 C.ar      23 UNK        -0.0193 
     12 C12        -0.6731  -16.8791  -50.3961 C.ar      23 UNK        -0.1150 
     13 C13        -0.8434  -17.3623  -49.0960 C.ar      23 UNK        -0.0193 
     14 C14        -2.0090  -17.0433  -48.3967 C.ar      23 UNK        -0.1150 
     15 C15         0.2308  -18.2252  -48.4462 C.3       23 UNK        -0.0205 
     16 S16        -0.0547  -20.0046  -48.7165 S.3       23 UNK        -0.2404 
     17 C17        -1.5577  -20.2687  -47.7210 C.3       23 UNK        -0.0398 
     18 CA         -1.8024  -21.7544  -47.3801 C.3       11 UNK         0.1400 
     19 N          -0.8426  -22.2769  -46.4022 N.am      11 UNK        -0.5000 
     20 C          -0.8015  -23.5523  -45.9830 C.2       10 UNK         0.5000 
     21 O          -1.5267  -24.4363  -46.4387 O.2       10 UNK        -0.5000 
     22 CA          0.1586  -23.9035  -44.8288 C.3       10 UNK         0.1400 
     23 CB          1.4413  -24.5426  -45.3801 C.3       10 UNK        -0.1800 
     24 N           0.5209  -22.7671  -43.9802 N.am      10 UNK        -0.5000 
     25 C          -0.3276  -21.9836  -43.2975 C.2       9 UNK         0.5000 
     26 O          -1.5438  -22.1702  -43.2532 O.2       9 UNK        -0.5000 
     27 CA          0.2800  -20.7484  -42.6013 C.3       9 UNK         0.1400 
     28 CB          0.4983  -21.0225  -41.1065 C.3       9 UNK        -0.1800 
     29 N           1.5441  -20.2972  -43.1937 N.am      9 UNK        -0.5000 
     30 C           1.7095  -19.8821  -44.4555 C.2       8 UNK         0.5000 
     31 O           0.7870  -19.8335  -45.2708 O.2       8 UNK        -0.5000 
     32 CA          3.1382  -19.4665  -44.8654 C.3       8 UNK         0.1400 
     33 CB          3.2110  -18.9722  -46.3211 C.3       8 UNK        -0.1800 
     34 N           3.7282  -18.4520  -43.9825 N.am      8 UNK        -0.5000 
     35 C           4.2694  -18.7004  -42.7818 C.2       7 UNK         0.5000 
     36 O           4.1913  -19.8004  -42.2315 O.2       7 UNK        -0.5000 
     37 CA          5.0660  -17.5856  -42.0810 C.3       7 UNK         0.1400 
     38 CB          6.5693  -17.7848  -42.3694 C.3       7 UNK        -0.1800 
     39 N           4.6598  -16.2161  -42.4241 N.am      7 UNK        -0.5000 
     40 C           5.0321  -15.1424  -41.7082 C.2       6 UNK         0.5000 
     41 O           5.6829  -15.2113  -40.6639 O.2       6 UNK        -0.5000 
     42 CA          4.6246  -13.7539  -42.2332 C.3       6 UNK         0.1400 
     43 CB          5.3431  -13.4165  -43.5499 C.3       6 UNK        -0.1800 
     44 N           3.1816  -13.6163  -42.4018 N.am      6 UNK        -0.5000 
     45 C           2.2950  -13.5496  -41.3980 C.2       5 UNK         0.5000 
     46 O           2.6041  -13.5539  -40.2059 O.2       5 UNK        -0.5000 
     47 CA          0.8069  -13.4844  -41.7936 C.3       5 UNK         0.1400 
     48 CB          0.3623  -12.0354  -42.0449 C.3       5 UNK        -0.1800 
     49 N           0.5209  -14.2979  -42.9747 N.am      5 UNK        -0.5000 
     50 C           0.5630  -15.6371  -42.9849 C.2       4 UNK         0.5000 
     51 O           0.7326  -16.3277  -41.9798 O.2       4 UNK        -0.5000 
     52 CA          0.4344  -16.3217  -44.3525 C.3       4 UNK         0.1400 
     53 CB         -1.0268  -16.6697  -44.6613 C.3       4 UNK        -0.1800 
     54 N           1.0147  -15.5367  -45.4443 N.am      4 UNK        -0.5000 
     55 C           2.3337  -15.3685  -45.6222 C.2       3 UNK         0.5000 
     56 O           3.1900  -15.8668  -44.8906 O.2       3 UNK        -0.5000 
     57 CA          2.7748  -14.4707  -46.7911 C.3       3 UNK         0.1400 
     58 CB          2.7573  -15.2578  -48.1100 C.3       3 UNK        -0.1800 
     59 N           1.9468  -13.2747  -46.9320 N.am      3 UNK        -0.5000 
     60 C           1.8039  -12.3207  -46.0004 C.2       2 UNK         0.5000 
     61 O           2.4049  -12.3215  -44.9274 O.2       2 UNK        -0.5000 
     62 CA          0.7808  -11.2078  -46.2986 C.3       2 UNK         0.1400 
     63 CB          1.4770   -9.9838  -46.9106 C.3       2 UNK        -0.1800 
     64 N          -0.2923  -11.6492  -47.1933 N.am      2 UNK        -0.5000 
     65 C          -1.2063  -12.5855  -46.8962 C.2       1 UNK         0.5000 
     66 O          -1.2502  -13.1449  -45.7994 O.2       1 UNK        -0.5000 
     67 C          -3.2673  -21.9500  -46.9349 C.2       11 UNK         0.5000 
     68 O          -4.1156  -22.2166  -47.7850 O.2       11 UNK        -0.5000 
     69 N          -3.5440  -21.8485  -45.6253 N.am      12 UNK        -0.5000 
     70 CA         -4.8801  -22.0506  -45.0603 C.3       12 UNK         0.1400 
     71 CB         -4.8898  -21.6239  -43.5853 C.3       12 UNK        -0.1800 
     72 C          -5.3691  -23.5020  -45.2158 C.2       12 UNK         0.5000 
     73 O          -6.5395  -23.7179  -45.5321 O.2       12 UNK        -0.5000 
     74 N          -4.4514  -24.4624  -45.0342 N.am      13 UNK        -0.5000 
     75 CA         -4.6886  -25.8870  -45.2650 C.3       13 UNK         0.1400 
     76 CB         -3.5668  -26.7077  -44.6106 C.3       13 UNK        -0.1800 
     77 C          -4.8071  -26.2126  -46.7647 C.2       13 UNK         0.5000 
     78 O          -5.6644  -27.0083  -47.1500 O.2       13 UNK        -0.5000 
     79 N          -3.9812  -25.5573  -47.5914 N.am      14 UNK        -0.5000 
     80 CA         -3.9437  -25.6710  -49.0510 C.3       14 UNK         0.1400 
     81 CB         -2.5551  -25.2304  -49.5409 C.3       14 UNK        -0.1800 
     82 C          -5.0879  -24.9048  -49.7547 C.2       14 UNK         0.5000 
     83 O          -4.8451  -24.1823  -50.7258 O.2       14 UNK        -0.5000 
     84 N          -6.3193  -25.1041  -49.2653 N.am      15 UNK        -0.5000 
     85 CA         -7.5905  -24.6099  -49.8016 C.3       15 UNK         0.1400 
     86 CB         -7.9121  -25.3251  -51.1311 C.3       15 UNK        -0.1800 
     87 C          -7.6597  -23.0725  -49.9137 C.2       15 UNK         0.5000 
     88 O          -8.1426  -22.5532  -50.9200 O.2       15 UNK        -0.5000 
     89 N          -7.1580  -22.3720  -48.8849 N.am      16 UNK        -0.5000 
     90 CA         -7.0426  -20.9090  -48.8013 C.3       16 UNK         0.1400 
     91 CB         -8.4329  -20.2490  -48.6936 C.3       16 UNK        -0.1800 
     92 C          -6.1801  -20.3377  -49.9473 C.2       16 UNK         0.5000 
     93 O          -6.6044  -19.4367  -50.6720 O.2       16 UNK        -0.5000 
     94 N          -4.9883  -20.9294  -50.0896 N.am      17 UNK        -0.5000 
     95 CA         -3.9312  -20.6793  -51.0705 C.3       17 UNK         0.1400 
     96 CB         -3.5092  -19.1999  -51.0787 C.3       17 UNK        -0.1800 
     97 C          -4.2322  -21.1707  -52.4969 C.2       17 UNK         0.5000 
     98 O          -3.3522  -21.0492  -53.3501 O.2       17 UNK        -0.5000 
     99 N          -5.4265  -21.7237  -52.7506 N.am      18 UNK        -0.5000 
    100 CA        -5.8545  -22.1735  -54.0756 C.3       18 UNK         0.1400 
    101 CB        -7.3682  -22.4271  -54.0805 C.3       18 UNK        -0.1800 
    102 C         -5.0951  -23.4166  -54.5688 C.2       18 UNK         0.5000 
    103 O         -4.7797  -23.4912  -55.7567 O.2       18 UNK        -0.5000 
    104 N         -4.7895  -24.3538  -53.6592 N.am      19 UNK        -0.5000 
    105 CA        -4.0132  -25.5563  -53.9753 C.3       19 UNK         0.1400 
    106 CB        -4.3801  -26.6870  -53.0025 C.3       19 UNK        -0.1800 
    107 C         -2.4986  -25.2801  -53.9590 C.2       19 UNK         0.5000 
    108 O         -1.7514  -25.9619  -54.6609 O.2       19 UNK        -0.5000 
    109 N         -2.0750  -24.2735  -53.1805 N.am      20 UNK        -0.5000 
    110 CA        -0.6942  -23.7865  -53.1336 C.3       20 UNK         0.1400 
    111 CB        -0.4769  -23.0036  -51.8278 C.3       20 UNK        -0.1800 
    112 C         -0.3324  -22.8983  -54.3390 C.2       20 UNK         0.5000 
    113 O          0.8536  -22.7059  -54.6076 O.2       20 UNK        -0.5000 
    114 N         -1.3507  -22.3279  -55.0016 N.am      21 UNK        -0.5000 
    115 CA        -1.2741  -21.3289  -56.0733 C.3       21 UNK         0.1400 
    116 CB        -0.7074  -21.9579  -57.3626 C.3       21 UNK        -0.1800 
    117 C         -0.5173  -20.0566  -55.6313 C.2       21 UNK         0.5000 
    118 O          0.2568  -19.4940  -56.4074 O.2       21 UNK        -0.5000 
    119 N         -0.7309  -19.6575  -54.3684 N.am      22 UNK        -0.5000 
    120 CA         0.0055  -18.5987  -53.6527 C.3       22 UNK         0.1400 
    121 C          1.4954  -18.9495  -53.3229 C.2       22 UNK         0.5000 
    122 N          1.9695  -20.1709  -53.5426 N.am      22 UNK        -0.7600 
    123 O          2.2407  -18.1146  -52.8204 O.2       22 UNK        -0.5000 
    124 C124       -0.1804  -17.2061  -54.3265 C.3       23 UNK        -0.0398 
    125 S125        0.0811  -15.7576  -53.2402 S.3       23 UNK        -0.2404 
    126 C126       -1.5464  -15.5524  -52.4353 C.3       23 UNK        -0.0205 
    127 H127       -1.8203  -10.9659  -51.4582 H         1 UNK         0.0600 
    128 H128       -1.7311   -9.3928  -50.6604 H         1 UNK         0.0600 
    129 H129       -3.2920  -10.0281  -51.1908 H         1 UNK         0.0600 
    130 H130       -1.6081  -12.6443  -50.0291 H         1 UNK         0.3000 
    131 H131       -1.7596  -13.9856  -48.3466 H         1 UNK         0.0600 
    132 H132       -4.3071  -13.1818  -48.4282 H         1 UNK         0.0800 
    133 H133       -3.9486  -12.4578  -46.8925 H         1 UNK         0.0800 
    134 H134       -4.7106  -16.8698  -47.8473 H         1 UNK         0.0800 
    135 H135       -5.0215  -15.4737  -48.8463 H         1 UNK         0.0800 
    136 H136       -3.5999  -15.1971  -50.7514 H         1 UNK         0.1150 
    137 H137        0.2374  -17.1277  -50.9200 H         1 UNK         0.1150 
    138 H138       -2.1569  -17.4099  -47.3934 H         1 UNK         0.1150 
    139 H139        1.2095  -17.9676  -48.8529 H         1 UNK         0.0800 
    140 H140        0.2853  -18.0213  -47.3763 H         1 UNK         0.0800 
    141 H141       -2.3918  -19.8652  -48.2953 H         1 UNK         0.0800 
    142 H142       -1.4977  -19.6771  -46.8060 H         1 UNK         0.0800 
    143 H143       -1.6723  -22.3310  -48.2965 H         1 UNK         0.0600 
    144 H144       -0.2144  -21.5973  -45.9878 H         1 UNK         0.3000 
    145 H145       -0.3487  -24.6363  -44.1981 H         1 UNK         0.0600 
    146 H146        2.0923  -24.8819  -44.5741 H         1 UNK         0.0600 
    147 H147        1.2108  -25.4123  -45.9971 H         1 UNK         0.0600 
    148 H148        2.0056  -23.8424  -45.9975 H         1 UNK         0.0600 
    149 H149        1.5000  -22.5251  -43.9526 H         1 UNK         0.3000 
    150 H150       -0.4399  -19.9333  -42.7004 H         1 UNK         0.0600 
    151 H151       -0.4295  -21.3367  -40.6264 H         1 UNK         0.0600 
    152 H152        0.8443  -20.1275  -40.5889 H         1 UNK         0.0600 
    153 H153        1.2357  -21.8099  -40.9460 H         1 UNK         0.0600 
    154 H154        2.3631  -20.2924  -42.5922 H         1 UNK         0.3000 
    155 H155        3.7518  -20.3678  -44.8056 H         1 UNK         0.0600 
    156 H156        2.5769  -18.1024  -46.4823 H         1 UNK         0.0600 
    157 H157        2.8794  -19.7468  -47.0140 H         1 UNK         0.0600 
    158 H158        4.2298  -18.7026  -46.5993 H         1 UNK         0.0600 
    159 H159        3.7545  -17.5091  -44.3601 H         1 UNK         0.3000 
    160 H160        4.8996  -17.7263  -41.0107 H         1 UNK         0.0600 
    161 H161        6.8051  -17.5726  -43.4129 H         1 UNK         0.0600 
    162 H162        6.8781  -18.8112  -42.1658 H         1 UNK         0.0600 
    163 H163        7.1916  -17.1407  -41.7489 H         1 UNK         0.0600 
    164 H164        4.0993  -16.0829  -43.2615 H         1 UNK         0.3000 
    165 H165        4.9422  -13.0166  -41.4927 H         1 UNK         0.0600 
    166 H166        5.0630  -14.0933  -44.3559 H         1 UNK         0.0600 
    167 H167        5.1129  -12.4013  -43.8737 H         1 UNK         0.0600 
    168 H168        6.4251  -13.4820  -43.4299 H         1 UNK         0.0600 
    169 H169        2.8432  -13.5252  -43.3532 H         1 UNK         0.3000 
    170 H170        0.2215  -13.8770  -40.9594 H         1 UNK         0.0600 
    171 H171        0.9270  -11.5704  -42.8526 H         1 UNK         0.0600 
    172 H172       -0.6955  -11.9861  -42.3038 H         1 UNK         0.0600 
    173 H173        0.5080  -11.4253  -41.1527 H         1 UNK         0.0600 
    174 H174        0.3603  -13.8095  -43.8447 H         1 UNK         0.3000 
    175 H175        0.9878  -17.2551  -44.2804 H         1 UNK         0.0600 
    176 H176       -1.6104  -15.7862  -44.9205 H         1 UNK         0.0600 
    177 H177       -1.0834  -17.3768  -45.4853 H         1 UNK         0.0600 
    178 H178       -1.5085  -17.1454  -43.8059 H         1 UNK         0.0600 
    179 H179        0.3684  -15.0533  -46.0512 H         1 UNK         0.3000 
    180 H180        3.7996  -14.1493  -46.5950 H         1 UNK         0.0600 
    181 H181        3.1686  -14.6653  -48.9273 H         1 UNK         0.0600 
    182 H182        1.7457  -15.5545  -48.3894 H         1 UNK         0.0600 
    183 H183        3.3586  -16.1648  -48.0344 H         1 UNK         0.0600 
    184 H184        1.4218  -13.1848  -47.7887 H         1 UNK         0.3000 
    185 H185        0.3304  -10.9100  -45.3495 H         1 UNK         0.0600 
    186 H186        1.9328  -10.2181  -47.8734 H         1 UNK         0.0600 
    187 H187        0.7737   -9.1645  -47.0616 H         1 UNK         0.0600 
    188 H188        2.2668   -9.6158  -46.2541 H         1 UNK         0.0600 
    189 H189       -0.3203  -11.2333  -48.1126 H         1 UNK         0.3000 
    190 H190       -2.7908  -21.6907  -44.9657 H         1 UNK         0.3000 
    191 H191       -5.5748  -21.4055  -45.6021 H         1 UNK         0.0600 
    192 H192       -5.8928  -21.7033  -43.1643 H         1 UNK         0.0600 
    193 H193       -4.5698  -20.5881  -43.4711 H         1 UNK         0.0600 
    194 H194       -4.2312  -22.2472  -42.9796 H         1 UNK         0.0600 
    195 H195       -3.5050  -24.1885  -44.8129 H         1 UNK         0.3000 
    196 H196       -5.6317  -26.1605  -44.7871 H         1 UNK         0.0600 
    197 H197       -2.5919  -26.4822  -45.0435 H         1 UNK         0.0600 
    198 H198       -3.5106  -26.5145  -43.5393 H         1 UNK         0.0600 
    199 H199       -3.7420  -27.7766  -44.7391 H         1 UNK         0.0600 
    200 H200       -3.2837  -24.9456  -47.1791 H         1 UNK         0.3000 
    201 H201       -4.0634  -26.7242  -49.3122 H         1 UNK         0.0600 
    202 H202       -2.4063  -24.1627  -49.3913 H         1 UNK         0.0600 
    203 H203       -2.4273  -25.4353  -50.6030 H         1 UNK         0.0600 
    204 H204       -1.7602  -25.7583  -49.0138 H         1 UNK         0.0600 
    205 H205       -6.3906  -25.7256  -48.4656 H         1 UNK         0.3000 
    206 H206       -8.3589  -24.8933  -49.0811 H         1 UNK         0.0600 
    207 H207       -7.9137  -26.4077  -51.0044 H         1 UNK         0.0600 
    208 H208       -8.8976  -25.0427  -51.5032 H         1 UNK         0.0600 
    209 H209       -7.1861  -25.0828  -51.9070 H         1 UNK         0.0600 
    210 H210       -6.7399  -22.8887  -48.1225 H         1 UNK         0.3000 
    211 H211       -6.5065  -20.6927  -47.8763 H         1 UNK         0.0600 
    212 H212       -8.3409  -19.1753  -48.5265 H         1 UNK         0.0600 
    213 H213       -8.9998  -20.6602  -47.8584 H         1 UNK         0.0600 
    214 H214       -9.0228  -20.3878  -49.6000 H         1 UNK         0.0600 
    215 H215       -4.7642  -21.6538  -49.4097 H         1 UNK         0.3000 
    216 H216       -3.0797  -21.2624  -50.7193 H         1 UNK         0.0600 
    217 H217       -4.2419  -18.5679  -51.5811 H         1 UNK         0.0600 
    218 H218       -2.5582  -19.0673  -51.5935 H         1 UNK         0.0600 
    219 H219       -3.3869  -18.8220  -50.0674 H         1 UNK         0.0600 
    220 H220       -6.0943  -21.8123  -51.9960 H         1 UNK         0.3000 
    221 H221       -5.6519  -21.3634  -54.7795 H         1 UNK         0.0600 
    222 H222       -7.9182  -21.5510  -53.7362 H         1 UNK         0.0600 
    223 H223       -7.6389  -23.2662  -53.4403 H         1 UNK         0.0600 
    224 H224       -7.7201  -22.6590  -55.0864 H         1 UNK         0.0600 
    225 H225       -5.0354  -24.2065  -52.6838 H         1 UNK         0.3000 
    226 H226       -4.2761  -25.8939  -54.9802 H         1 UNK         0.0600 
    227 H227       -4.0531  -26.4730  -51.9875 H         1 UNK         0.0600 
    228 H228       -5.4564  -26.8587  -52.9813 H         1 UNK         0.0600 
    229 H229       -3.9069  -27.6225  -53.3029 H         1 UNK         0.0600 
    230 H230       -2.7590  -23.7730  -52.6325 H         1 UNK         0.3000 
    231 H231       -0.0159  -24.6423  -53.1363 H         1 UNK         0.0600 
    232 H232       -1.1395  -22.1414  -51.7574 H         1 UNK         0.0600 
    233 H233        0.5460  -22.6303  -51.7612 H         1 UNK         0.0600 
    234 H234       -0.6419  -23.6325  -50.9546 H         1 UNK         0.0600 
    235 H235       -2.2817  -22.4861  -54.6390 H         1 UNK         0.3000 
    236 H236       -2.3002  -21.0191  -56.2771 H         1 UNK         0.0600 
    237 H237       -1.2710  -22.8468  -57.6463 H         1 UNK         0.0600 
    238 H238       -0.7648  -21.2580  -58.1970 H         1 UNK         0.0600 
    239 H239        0.3380  -22.2458  -57.2481 H         1 UNK         0.0600 
    240 H240       -1.4157  -20.1713  -53.8257 H         1 UNK         0.3000 
    241 H241       -0.4843  -18.5551  -52.6816 H         1 UNK         0.0600 
    242 H242        2.9290  -20.3659  -53.3065 H         1 UNK         0.3800 
    243 H243        1.4093  -20.8985  -53.9711 H         1 UNK         0.3800 
    244 H244        0.4965  -17.1105  -55.1766 H         1 UNK         0.0800 
    245 H245       -1.1831  -17.1271  -54.7482 H         1 UNK         0.0800 
    246 H246       -2.3255  -16.0028  -53.0514 H         1 UNK         0.0800 
    247 H247       -1.7619  -14.4833  -52.4105 H         1 UNK         0.0800 
@<TRIPOS>BOND
     1    1    2 1    
     2    1  127 1    
     3    1  128 1    
     4    1  129 1    
     5    2    3 2    
     6    2    4 am   BACKBONE|DICT|INTERRES
     7    4    5 1    
     8    4  130 1    
     9    5    6 1    
    10    5   65 1    
    11    5  131 1    
    12    6    7 1    
    13    6  132 1    
    14    6  133 1    
    15    7    8 1    
    16    8    9 1    
    17    8  134 1    
    18    8  135 1    
    19    9   10 ar   
    20    9   14 ar   
    21   10   11 ar   
    22   10  136 1    
    23   11   12 ar   
    24   11  126 1    
    25   12   13 ar   
    26   12  137 1    
    27   13   14 ar   
    28   13   15 1    
    29   14  138 1    
    30   15   16 1    
    31   15  139 1    
    32   15  140 1    
    33   16   17 1    
    34   17   18 1    
    35   17  141 1    
    36   17  142 1    
    37   18   19 1    
    38   18   67 1    
    39   18  143 1    
    40   19   20 am   BACKBONE|DICT|INTERRES
    41   19  144 1    
    42   20   21 2    
    43   20   22 1    
    44   22   23 1    
    45   22   24 1    
    46   22  145 1    
    47   23  146 1    
    48   23  147 1    
    49   23  148 1    
    50   24   25 am   BACKBONE|DICT|INTERRES
    51   24  149 1    
    52   25   26 2    
    53   25   27 1    
    54   27   28 1    
    55   27   29 1    
    56   27  150 1    
    57   28  151 1    
    58   28  152 1    
    59   28  153 1    
    60   29   30 am   BACKBONE|DICT|INTERRES
    61   29  154 1    
    62   30   31 2    
    63   30   32 1    
    64   32   33 1    
    65   32   34 1    
    66   32  155 1    
    67   33  156 1    
    68   33  157 1    
    69   33  158 1    
    70   34   35 am   BACKBONE|DICT|INTERRES
    71   34  159 1    
    72   35   36 2    
    73   35   37 1    
    74   37   38 1    
    75   37   39 1    
    76   37  160 1    
    77   38  161 1    
    78   38  162 1    
    79   38  163 1    
    80   39   40 am   BACKBONE|DICT|INTERRES
    81   39  164 1    
    82   40   41 2    
    83   40   42 1    
    84   42   43 1    
    85   42   44 1    
    86   42  165 1    
    87   43  166 1    
    88   43  167 1    
    89   43  168 1    
    90   44   45 am   BACKBONE|DICT|INTERRES
    91   44  169 1    
    92   45   46 2    
    93   45   47 1    
    94   47   48 1    
    95   47   49 1    
    96   47  170 1    
    97   48  171 1    
    98   48  172 1    
    99   48  173 1    
   100   49   50 am   BACKBONE|DICT|INTERRES
   101   49  174 1    
   102   50   51 2    
   103   50   52 1    
   104   52   53 1    
   105   52   54 1    
   106   52  175 1    
   107   53  176 1    
   108   53  177 1    
   109   53  178 1    
   110   54   55 am   BACKBONE|DICT|INTERRES
   111   54  179 1    
   112   55   56 2    
   113   55   57 1    
   114   57   58 1    
   115   57   59 1    
   116   57  180 1    
   117   58  181 1    
   118   58  182 1    
   119   58  183 1    
   120   59   60 am   BACKBONE|DICT|INTERRES
   121   59  184 1    
   122   60   61 2    
   123   60   62 1    
   124   62   63 1    
   125   62   64 1    
   126   62  185 1    
   127   63  186 1    
   128   63  187 1    
   129   63  188 1    
   130   64   65 am   BACKBONE|DICT|INTERRES
   131   64  189 1    
   132   65   66 2    
   133   67   68 2    
   134   67   69 am   BACKBONE|DICT|INTERRES
   135   69   70 1    
   136   69  190 1    
   137   70   71 1    
   138   70   72 1    
   139   70  191 1    
   140   71  192 1    
   141   71  193 1    
   142   71  194 1    
   143   72   73 2    
   144   72   74 am   BACKBONE|DICT|INTERRES
   145   74   75 1    
   146   74  195 1    
   147   75   76 1    
   148   75   77 1    
   149   75  196 1    
   150   76  197 1    
   151   76  198 1    
   152   76  199 1    
   153   77   78 2    
   154   77   79 am   BACKBONE|DICT|INTERRES
   155   79   80 1    
   156   79  200 1    
   157   80   81 1    
   158   80   82 1    
   159   80  201 1    
   160   81  202 1    
   161   81  203 1    
   162   81  204 1    
   163   82   83 2    
   164   82   84 am   BACKBONE|DICT|INTERRES
   165   84   85 1    
   166   84  205 1    
   167   85   86 1    
   168   85   87 1    
   169   85  206 1    
   170   86  207 1    
   171   86  208 1    
   172   86  209 1    
   173   87   88 2    
   174   87   89 am   BACKBONE|DICT|INTERRES
   175   89   90 1    
   176   89  210 1    
   177   90   91 1    
   178   90   92 1    
   179   90  211 1    
   180   91  212 1    
   181   91  213 1    
   182   91  214 1    
   183   92   93 2    
   184   92   94 am   BACKBONE|DICT|INTERRES
   185   94   95 1    
   186   94  215 1    
   187   95   96 1    
   188   95   97 1    
   189   95  216 1    
   190   96  217 1    
   191   96  218 1    
   192   96  219 1    
   193   97   98 2    
   194   97   99 am   BACKBONE|DICT|INTERRES
   195   99  100 1    
   196   99  220 1    
   197  100  101 1    
   198  100  102 1    
   199  100  221 1    
   200  101  222 1    
   201  101  223 1    
   202  101  224 1    
   203  102  103 2    
   204  102  104 am   BACKBONE|DICT|INTERRES
   205  104  105 1    
   206  104  225 1    
   207  105  106 1    
   208  105  107 1    
   209  105  226 1    
   210  106  227 1    
   211  106  228 1    
   212  106  229 1    
   213  107  108 2    
   214  107  109 am   BACKBONE|DICT|INTERRES
   215  109  110 1    
   216  109  230 1    
   217  110  111 1    
   218  110  112 1    
   219  110  231 1    
   220  111  232 1    
   221  111  233 1    
   222  111  234 1    
   223  112  113 2    
   224  112  114 am   BACKBONE|DICT|INTERRES
   225  114  115 1    
   226  114  235 1    
   227  115  116 1    
   228  115  117 1    
   229  115  236 1    
   230  116  237 1    
   231  116  238 1    
   232  116  239 1    
   233  117  118 2    
   234  117  119 am   BACKBONE|DICT|INTERRES
   235  119  120 1    
   236  119  240 1    
   237  120  121 1    
   238  120  124 1    
   239  120  241 1    
   240  121  122 am   BACKBONE|DICT|INTERRES
   241  121  123 2    
   242  122  242 1    
   243  122  243 1    
   244  124  125 1    
   245  124  244 1    
   246  124  245 1    
   247  125  126 1    
   248  126  246 1    
   249  126  247 1    
@<TRIPOS>SUBSTRUCTURE
     1 UNK         1 GROUP             0       ****    0 ROOT    
