@<TRIPOS>MOLECULE
3R540
247   249    1
SMALL
USER_CHARGES


@<TRIPOS>ATOM
      1 CA         -4.3238  -11.9507  -47.8161 C.3       0 UNK        -0.1800 
      2 C          -3.2264  -12.8779  -47.3160 C.2       0 UNK         0.5000 
      3 O          -2.5603  -12.5666  -46.3292 O.2       0 UNK        -0.5000 
      4 N          -3.0440  -14.0293  -47.9760 N.am      1 UNK        -0.5000 
      5 CA         -1.9945  -15.0171  -47.6765 C.3       1 UNK         0.1400 
      6 C6         -1.7979  -16.0340  -48.8239 C.3       23 UNK        -0.0398 
      7 S7         -1.3423  -15.1936  -50.3779 S.3       23 UNK        -0.2404 
      8 C8          0.4775  -15.2306  -50.2949 C.3       23 UNK        -0.0205 
      9 C9          1.0213  -16.5715  -50.7574 C.ar      23 UNK        -0.0193 
     10 C10         1.0518  -16.8671  -52.1208 C.ar      23 UNK        -0.1150 
     11 C11         1.5019  -18.1096  -52.5685 C.ar      23 UNK        -0.0193 
     12 C12         1.9298  -19.0605  -51.6365 C.ar      23 UNK        -0.1150 
     13 C13         1.9099  -18.7822  -50.2633 C.ar      23 UNK        -0.0193 
     14 C14         1.4703  -17.5207  -49.8352 C.ar      23 UNK        -0.1150 
     15 C15         2.3706  -19.8795  -49.2977 C.3       23 UNK        -0.0205 
     16 S16         2.0640  -19.6007  -47.5136 S.3       23 UNK        -0.2404 
     17 C17         0.2432  -19.6456  -47.4189 C.3       23 UNK        -0.0398 
     18 CA         -0.3312  -21.0760  -47.2978 C.3       11 UNK         0.1400 
     19 N           0.0560  -21.7647  -46.0644 N.am      11 UNK        -0.5000 
     20 C          -0.2437  -23.0430  -45.7909 C.2       10 UNK         0.5000 
     21 O          -0.8326  -23.7899  -46.5727 O.2       10 UNK        -0.5000 
     22 CA          0.1150  -23.5605  -44.3895 C.3       10 UNK         0.1400 
     23 CB          1.5879  -23.9899  -44.3169 C.3       10 UNK        -0.1800 
     24 N          -0.1720  -22.5675  -43.3552 N.am      10 UNK        -0.5000 
     25 C          -1.4078  -22.1896  -42.9975 C.2       9 UNK         0.5000 
     26 O          -2.4352  -22.6639  -43.4798 O.2       9 UNK        -0.5000 
     27 CA         -1.5123  -21.0548  -41.9643 C.3       9 UNK         0.1400 
     28 CB         -1.3098  -21.5924  -40.5400 C.3       9 UNK        -0.1800 
     29 N          -0.5560  -19.9788  -42.2224 N.am      9 UNK        -0.5000 
     30 C          -0.5832  -19.1926  -43.3072 C.2       8 UNK         0.5000 
     31 O          -1.4389  -19.2721  -44.1883 O.2       8 UNK        -0.5000 
     32 CA          0.5654  -18.1797  -43.4493 C.3       8 UNK         0.1400 
     33 CB          0.2481  -16.8951  -42.6766 C.3       8 UNK        -0.1800 
     34 N           1.8667  -18.6748  -43.0011 N.am      8 UNK        -0.5000 
     35 C           2.5120  -19.7439  -43.4863 C.2       7 UNK         0.5000 
     36 O           1.9955  -20.5479  -44.2617 O.2       7 UNK        -0.5000 
     37 CA          3.9637  -19.9683  -43.0050 C.3       7 UNK         0.1400 
     38 CB          4.8675  -20.5077  -44.1328 C.3       7 UNK        -0.1800 
     39 N           4.5782  -18.7995  -42.3515 N.am      7 UNK        -0.5000 
     40 C           4.8408  -17.5992  -42.8933 C.2       6 UNK         0.5000 
     41 O           4.5974  -17.3059  -44.0651 O.2       6 UNK        -0.5000 
     42 CA          5.4412  -16.5591  -41.9259 C.3       6 UNK         0.1400 
     43 CB          6.9387  -16.8188  -41.6629 C.3       6 UNK        -0.1800 
     44 N           5.1820  -15.1751  -42.3407 N.am      6 UNK        -0.5000 
     45 C           5.7413  -14.4677  -43.3321 C.2       5 UNK         0.5000 
     46 O           6.6652  -14.8645  -44.0451 O.2       5 UNK        -0.5000 
     47 CA          5.1302  -13.0705  -43.5699 C.3       5 UNK         0.1400 
     48 CB          6.0971  -12.1221  -44.3015 C.3       5 UNK        -0.1800 
     49 N           3.8883  -13.1587  -44.3382 N.am      5 UNK        -0.5000 
     50 C           2.7137  -13.5986  -43.8697 C.2       4 UNK         0.5000 
     51 O           2.5343  -13.9504  -42.7001 O.2       4 UNK        -0.5000 
     52 CA          1.5685  -13.6837  -44.9007 C.3       4 UNK         0.1400 
     53 CB          1.7552  -14.9214  -45.7950 C.3       4 UNK        -0.1800 
     54 N           0.2382  -13.7296  -44.2850 N.am      4 UNK        -0.5000 
     55 C          -0.3159  -12.7321  -43.5768 C.2       3 UNK         0.5000 
     56 O           0.2169  -11.6295  -43.4352 O.2       3 UNK        -0.5000 
     57 CA         -1.6900  -13.0061  -42.9277 C.3       3 UNK         0.1400 
     58 CB         -2.5171  -11.7235  -42.7238 C.3       3 UNK        -0.1800 
     59 N          -2.4659  -13.9445  -43.7349 N.am      3 UNK        -0.5000 
     60 C          -3.0333  -15.0776  -43.2991 C.2       2 UNK         0.5000 
     61 O          -3.0363  -15.4235  -42.1176 O.2       2 UNK        -0.5000 
     62 CA         -3.6849  -16.0044  -44.3509 C.3       2 UNK         0.1400 
     63 CB         -5.2104  -16.0481  -44.1721 C.3       2 UNK        -0.1800 
     64 N          -3.3851  -15.6266  -45.7340 N.am      2 UNK        -0.5000 
     65 C          -2.1831  -15.7282  -46.3186 C.2       1 UNK         0.5000 
     66 O          -1.2223  -16.2895  -45.7949 O.2       1 UNK        -0.5000 
     67 C          -1.8615  -21.0602  -47.4870 C.2       11 UNK         0.5000 
     68 O          -2.3400  -21.3937  -48.5705 O.2       11 UNK        -0.5000 
     69 N          -2.6025  -20.6984  -46.4331 N.am      12 UNK        -0.5000 
     70 CA         -4.0608  -20.6479  -46.4458 C.3       12 UNK         0.1400 
     71 CB         -4.5580  -19.8722  -45.2179 C.3       12 UNK        -0.1800 
     72 C          -4.7197  -22.0364  -46.5240 C.2       12 UNK         0.5000 
     73 O          -5.5709  -22.2462  -47.3881 O.2       12 UNK        -0.5000 
     74 N          -4.3486  -22.9435  -45.6105 N.am      13 UNK        -0.5000 
     75 CA         -5.0554  -24.2085  -45.4099 C.3       13 UNK         0.1400 
     76 CB         -4.9268  -24.6443  -43.9415 C.3       13 UNK        -0.1800 
     77 C          -4.5830  -25.3351  -46.3406 C.2       13 UNK         0.5000 
     78 O          -5.4244  -26.0500  -46.8865 O.2       13 UNK        -0.5000 
     79 N          -3.2616  -25.5098  -46.4730 N.am      14 UNK        -0.5000 
     80 CA         -2.6688  -26.6552  -47.1653 C.3       14 UNK         0.1400 
     81 CB         -1.3916  -27.1059  -46.4362 C.3       14 UNK        -0.1800 
     82 C          -2.3866  -26.3447  -48.6409 C.2       14 UNK         0.5000 
     83 O          -2.7537  -27.1403  -49.5067 O.2       14 UNK        -0.5000 
     84 N          -1.7424  -25.2003  -48.9051 N.am      15 UNK        -0.5000 
     85 CA         -1.3672  -24.7775  -50.2566 C.3       15 UNK         0.1400 
     86 CB         -0.2143  -23.7650  -50.1746 C.3       15 UNK        -0.1800 
     87 C          -2.5487  -24.1817  -51.0434 C.2       15 UNK         0.5000 
     88 O          -2.5224  -24.2069  -52.2738 O.2       15 UNK        -0.5000 
     89 N          -3.5436  -23.6400  -50.3257 N.am      16 UNK        -0.5000 
     90 CA         -4.7084  -22.9175  -50.8447 C.3       16 UNK         0.1400 
     91 CB         -5.6698  -23.8656  -51.5891 C.3       16 UNK        -0.1800 
     92 C          -4.3117  -21.6645  -51.6534 C.2       16 UNK         0.5000 
     93 O          -4.8943  -21.3686  -52.6984 O.2       16 UNK        -0.5000 
     94 N          -3.3269  -20.9198  -51.1344 N.am      17 UNK        -0.5000 
     95 CA         -2.8566  -19.6420  -51.6723 C.3       17 UNK         0.1400 
     96 CB         -1.6035  -19.2123  -50.9092 C.3       17 UNK        -0.1800 
     97 C          -3.9226  -18.5343  -51.5999 C.2       17 UNK         0.5000 
     98 O          -3.9150  -17.6293  -52.4316 O.2       17 UNK        -0.5000 
     99 N          -4.8668  -18.6652  -50.6570 N.am      18 UNK        -0.5000 
    100 CA        -6.0723  -17.8397  -50.5511 C.3       18 UNK         0.1400 
    101 CB        -6.7858  -18.1770  -49.2330 C.3       18 UNK        -0.1800 
    102 C         -7.0313  -18.0008  -51.7529 C.2       18 UNK         0.5000 
    103 O         -7.7953  -17.0798  -52.0415 O.2       18 UNK        -0.5000 
    104 N         -6.9505  -19.1461  -52.4460 N.am      19 UNK        -0.5000 
    105 CA        -7.6399  -19.4351  -53.7054 C.3       19 UNK         0.1400 
    106 CB        -8.2308  -20.8534  -53.6233 C.3       19 UNK        -0.1800 
    107 C         -6.6932  -19.2989  -54.9191 C.2       19 UNK         0.5000 
    108 O         -7.0844  -19.6575  -56.0303 O.2       19 UNK        -0.5000 
    109 N         -5.4682  -18.7991  -54.6879 N.am      20 UNK        -0.5000 
    110 CA        -4.3712  -18.6034  -55.6409 C.3       20 UNK         0.1400 
    111 CB        -4.7528  -17.5561  -56.7080 C.3       20 UNK        -0.1800 
    112 C         -3.8195  -19.9098  -56.2518 C.2       20 UNK         0.5000 
    113 O         -3.2302  -19.8669  -57.3335 O.2       20 UNK        -0.5000 
    114 N         -4.0018  -21.0464  -55.5625 N.am      21 UNK        -0.5000 
    115 CA        -3.4916  -22.3460  -56.0016 C.3       21 UNK         0.1400 
    116 CB        -4.2815  -23.4718  -55.3219 C.3       21 UNK        -0.1800 
    117 C         -1.9822  -22.4825  -55.7354 C.2       21 UNK         0.5000 
    118 O         -1.2439  -22.8777  -56.6388 O.2       21 UNK        -0.5000 
    119 N         -1.5583  -22.1224  -54.5144 N.am      22 UNK        -0.5000 
    120 CA        -0.1579  -22.1195  -54.0475 C.3       22 UNK         0.1400 
    121 C          0.5255  -23.5248  -54.0685 C.2       22 UNK         0.5000 
    122 N         -0.2059  -24.6039  -53.8260 N.am      22 UNK        -0.7600 
    123 O          1.7276  -23.6474  -54.2901 O.2       22 UNK        -0.5000 
    124 C124        0.7062  -21.0348  -54.7498 C.3       23 UNK        -0.0398 
    125 S125        0.0394  -19.3418  -54.5793 S.3       23 UNK        -0.2404 
    126 C126        1.5169  -18.4086  -54.0594 C.3       23 UNK        -0.0205 
    127 H127       -5.0618  -11.7859  -47.0310 H         1 UNK         0.0600 
    128 H128       -4.8367  -12.3618  -48.6859 H         1 UNK         0.0600 
    129 H129       -3.8999  -10.9861  -48.0951 H         1 UNK         0.0600 
    130 H130       -3.6087  -14.2270  -48.7900 H         1 UNK         0.3000 
    131 H131       -1.0631  -14.4556  -47.5817 H         1 UNK         0.0600 
    132 H132       -2.7132  -16.6035  -48.9941 H         1 UNK         0.0800 
    133 H133       -1.0266  -16.7635  -48.5732 H         1 UNK         0.0800 
    134 H134        0.8745  -14.4420  -50.9357 H         1 UNK         0.0800 
    135 H135        0.8128  -14.9980  -49.2831 H         1 UNK         0.0800 
    136 H136        0.7016  -16.1331  -52.8331 H         1 UNK         0.1150 
    137 H137        2.2707  -20.0261  -51.9827 H         1 UNK         0.1150 
    138 H138        1.4534  -17.2727  -48.7844 H         1 UNK         0.1150 
    139 H139        1.9047  -20.8241  -49.5820 H         1 UNK         0.0800 
    140 H140        3.4440  -20.0170  -49.4327 H         1 UNK         0.0800 
    141 H141       -0.1543  -19.1476  -48.3015 H         1 UNK         0.0800 
    142 H142       -0.0681  -19.0358  -46.5698 H         1 UNK         0.0800 
    143 H143        0.0843  -21.6607  -48.1172 H         1 UNK         0.0600 
    144 H144        0.6000  -21.2325  -45.3900 H         1 UNK         0.3000 
    145 H145       -0.5010  -24.4409  -44.1935 H         1 UNK         0.0600 
    146 H146        1.8327  -24.3946  -43.3349 H         1 UNK         0.0600 
    147 H147        1.8002  -24.7680  -45.0511 H         1 UNK         0.0600 
    148 H148        2.2659  -23.1602  -44.5168 H         1 UNK         0.0600 
    149 H149        0.6191  -22.0689  -42.9747 H         1 UNK         0.3000 
    150 H150       -2.5187  -20.6359  -42.0315 H         1 UNK         0.0600 
    151 H151       -2.0224  -22.3883  -40.3194 H         1 UNK         0.0600 
    152 H152       -1.4605  -20.8082  -39.7979 H         1 UNK         0.0600 
    153 H153       -0.3080  -22.0001  -40.3995 H         1 UNK         0.0600 
    154 H154        0.1884  -19.8520  -41.5528 H         1 UNK         0.3000 
    155 H155        0.6582  -17.9331  -44.5083 H         1 UNK         0.0600 
    156 H156        1.0473  -16.1627  -42.7789 H         1 UNK         0.0600 
    157 H157        0.0994  -17.0836  -41.6128 H         1 UNK         0.0600 
    158 H158       -0.6591  -16.4386  -43.0613 H         1 UNK         0.0600 
    159 H159        2.3683  -18.0853  -42.3549 H         1 UNK         0.3000 
    160 H160        3.9029  -20.7425  -42.2390 H         1 UNK         0.0600 
    161 H161        4.9104  -19.8222  -44.9797 H         1 UNK         0.0600 
    162 H162        4.4978  -21.4626  -44.5085 H         1 UNK         0.0600 
    163 H163        5.8855  -20.6716  -43.7798 H         1 UNK         0.0600 
    164 H164        4.8084  -18.9354  -41.3764 H         1 UNK         0.3000 
    165 H165        4.9181  -16.6695  -40.9746 H         1 UNK         0.0600 
    166 H166        7.5198  -16.8377  -42.5852 H         1 UNK         0.0600 
    167 H167        7.3647  -16.0561  -41.0110 H         1 UNK         0.0600 
    168 H168        7.0861  -17.7819  -41.1733 H         1 UNK         0.0600 
    169 H169        4.3596  -14.7584  -41.9185 H         1 UNK         0.3000 
    170 H170        4.9104  -12.6284  -42.5955 H         1 UNK         0.0600 
    171 H171        7.0397  -12.0331  -43.7599 H         1 UNK         0.0600 
    172 H172        6.3279  -12.4742  -45.3077 H         1 UNK         0.0600 
    173 H173        5.6766  -11.1198  -44.3860 H         1 UNK         0.0600 
    174 H174        3.9618  -12.9244  -45.3175 H         1 UNK         0.3000 
    175 H175        1.6131  -12.7921  -45.5295 H         1 UNK         0.0600 
    176 H176        1.6728  -15.8469  -45.2251 H         1 UNK         0.0600 
    177 H177        1.0158  -14.9510  -46.5932 H         1 UNK         0.0600 
    178 H178        2.7359  -14.9233  -46.2723 H         1 UNK         0.0600 
    179 H179       -0.2585  -14.6063  -44.3578 H         1 UNK         0.3000 
    180 H180       -1.4791  -13.4355  -41.9464 H         1 UNK         0.0600 
    181 H181       -2.7154  -11.2223  -43.6721 H         1 UNK         0.0600 
    182 H182       -1.9971  -11.0161  -42.0768 H         1 UNK         0.0600 
    183 H183       -3.4760  -11.9447  -42.2549 H         1 UNK         0.0600 
    184 H184       -2.5248  -13.7050  -44.7207 H         1 UNK         0.3000 
    185 H185       -3.2859  -17.0053  -44.1760 H         1 UNK         0.0600 
    186 H186       -5.4774  -16.3751  -43.1664 H         1 UNK         0.0600 
    187 H187       -5.6612  -15.0675  -44.3295 H         1 UNK         0.0600 
    188 H188       -5.6709  -16.7464  -44.8712 H         1 UNK         0.0600 
    189 H189       -4.1125  -15.1359  -46.2332 H         1 UNK         0.3000 
    190 H190       -2.1417  -20.3965  -45.5783 H         1 UNK         0.3000 
    191 H191       -4.3686  -20.0896  -47.3328 H         1 UNK         0.0600 
    192 H192       -4.2198  -20.3276  -44.2862 H         1 UNK         0.0600 
    193 H193       -5.6476  -19.8305  -45.1917 H         1 UNK         0.0600 
    194 H194       -4.1943  -18.8466  -45.2398 H         1 UNK         0.0600 
    195 H195       -3.6284  -22.7130  -44.9295 H         1 UNK         0.3000 
    196 H196       -6.1189  -24.0482  -45.6024 H         1 UNK         0.0600 
    197 H197       -5.5224  -25.5371  -43.7471 H         1 UNK         0.0600 
    198 H198       -5.2785  -23.8648  -43.2654 H         1 UNK         0.0600 
    199 H199       -3.8952  -24.8776  -43.6762 H         1 UNK         0.0600 
    200 H200       -2.6207  -24.8373  -46.0707 H         1 UNK         0.3000 
    201 H201       -3.3626  -27.4985  -47.1341 H         1 UNK         0.0600 
    202 H202       -1.5978  -27.3435  -45.3925 H         1 UNK         0.0600 
    203 H203       -0.6103  -26.3472  -46.4578 H         1 UNK         0.0600 
    204 H204       -0.9810  -28.0046  -46.8980 H         1 UNK         0.0600 
    205 H205       -1.4499  -24.6098  -48.1293 H         1 UNK         0.3000 
    206 H206       -1.0053  -25.6515  -50.8025 H         1 UNK         0.0600 
    207 H207        0.5290  -24.0552  -49.4317 H         1 UNK         0.0600 
    208 H208        0.2999  -23.6881  -51.1313 H         1 UNK         0.0600 
    209 H209       -0.5729  -22.7678  -49.9283 H         1 UNK         0.0600 
    210 H210       -3.4372  -23.6347  -49.3210 H         1 UNK         0.3000 
    211 H211       -5.2454  -22.5401  -49.9751 H         1 UNK         0.0600 
    212 H212       -5.2021  -24.3355  -52.4524 H         1 UNK         0.0600 
    213 H213       -6.5539  -23.3338  -51.9418 H         1 UNK         0.0600 
    214 H214       -6.0152  -24.6615  -50.9295 H         1 UNK         0.0600 
    215 H215       -2.9149  -21.2131  -50.2487 H         1 UNK         0.3000 
    216 H216       -2.5924  -19.7876  -52.7216 H         1 UNK         0.0600 
    217 H217       -0.8285  -19.9777  -50.9486 H         1 UNK         0.0600 
    218 H218       -1.8278  -19.0035  -49.8642 H         1 UNK         0.0600 
    219 H219       -1.1921  -18.3019  -51.3417 H         1 UNK         0.0600 
    220 H220       -4.7915  -19.4405  -50.0157 H         1 UNK         0.3000 
    221 H221       -5.7618  -16.7933  -50.5168 H         1 UNK         0.0600 
    222 H222       -7.0972  -19.2219  -49.1994 H         1 UNK         0.0600 
    223 H223       -6.1395  -17.9910  -48.3748 H         1 UNK         0.0600 
    224 H224       -7.6788  -17.5639  -49.1044 H         1 UNK         0.0600 
    225 H225       -6.2772  -19.8459  -52.1595 H         1 UNK         0.3000 
    226 H226       -8.4620  -18.7329  -53.8564 H         1 UNK         0.0600 
    227 H227       -8.8810  -20.9608  -52.7550 H         1 UNK         0.0600 
    228 H228       -8.8302  -21.0804  -54.5057 H         1 UNK         0.0600 
    229 H229       -7.4507  -21.6120  -53.5549 H         1 UNK         0.0600 
    230 H230       -5.2520  -18.5047  -53.7434 H         1 UNK         0.3000 
    231 H231       -3.5459  -18.1859  -55.0629 H         1 UNK         0.0600 
    232 H232       -3.8892  -17.2817  -57.3149 H         1 UNK         0.0600 
    233 H233       -5.1248  -16.6413  -56.2467 H         1 UNK         0.0600 
    234 H234       -5.5219  -17.9284  -57.3852 H         1 UNK         0.0600 
    235 H235       -4.4843  -21.0193  -54.6702 H         1 UNK         0.3000 
    236 H236       -3.6526  -22.4380  -57.0780 H         1 UNK         0.0600 
    237 H237       -5.3490  -23.3878  -55.5264 H         1 UNK         0.0600 
    238 H238       -3.9534  -24.4491  -55.6776 H         1 UNK         0.0600 
    239 H239       -4.1446  -23.4551  -54.2433 H         1 UNK         0.0600 
    240 H240       -2.2510  -21.8555  -53.8318 H         1 UNK         0.3000 
    241 H241       -0.2027  -21.8523  -52.9911 H         1 UNK         0.0600 
    242 H242       -1.1756  -24.5065  -53.5352 H         1 UNK         0.3800 
    243 H243        0.2254  -25.5134  -53.8480 H         1 UNK         0.3800 
    244 H244        1.7180  -21.0557  -54.3439 H         1 UNK         0.0800 
    245 H245        0.8070  -21.2562  -55.8132 H         1 UNK         0.0800 
    246 H246        1.5418  -17.4743  -54.6223 H         1 UNK         0.0800 
    247 H247        2.4342  -18.9331  -54.3290 H         1 UNK         0.0800 
@<TRIPOS>BOND
     1    1    2 1    
     2    1  127 1    
     3    1  128 1    
     4    1  129 1    
     5    2    3 2    
     6    2    4 am   BACKBONE|DICT|INTERRES
     7    4    5 1    
     8    4  130 1    
     9    5    6 1    
    10    5   65 1    
    11    5  131 1    
    12    6    7 1    
    13    6  132 1    
    14    6  133 1    
    15    7    8 1    
    16    8    9 1    
    17    8  134 1    
    18    8  135 1    
    19    9   10 ar   
    20    9   14 ar   
    21   10   11 ar   
    22   10  136 1    
    23   11   12 ar   
    24   11  126 1    
    25   12   13 ar   
    26   12  137 1    
    27   13   14 ar   
    28   13   15 1    
    29   14  138 1    
    30   15   16 1    
    31   15  139 1    
    32   15  140 1    
    33   16   17 1    
    34   17   18 1    
    35   17  141 1    
    36   17  142 1    
    37   18   19 1    
    38   18   67 1    
    39   18  143 1    
    40   19   20 am   BACKBONE|DICT|INTERRES
    41   19  144 1    
    42   20   21 2    
    43   20   22 1    
    44   22   23 1    
    45   22   24 1    
    46   22  145 1    
    47   23  146 1    
    48   23  147 1    
    49   23  148 1    
    50   24   25 am   BACKBONE|DICT|INTERRES
    51   24  149 1    
    52   25   26 2    
    53   25   27 1    
    54   27   28 1    
    55   27   29 1    
    56   27  150 1    
    57   28  151 1    
    58   28  152 1    
    59   28  153 1    
    60   29   30 am   BACKBONE|DICT|INTERRES
    61   29  154 1    
    62   30   31 2    
    63   30   32 1    
    64   32   33 1    
    65   32   34 1    
    66   32  155 1    
    67   33  156 1    
    68   33  157 1    
    69   33  158 1    
    70   34   35 am   BACKBONE|DICT|INTERRES
    71   34  159 1    
    72   35   36 2    
    73   35   37 1    
    74   37   38 1    
    75   37   39 1    
    76   37  160 1    
    77   38  161 1    
    78   38  162 1    
    79   38  163 1    
    80   39   40 am   BACKBONE|DICT|INTERRES
    81   39  164 1    
    82   40   41 2    
    83   40   42 1    
    84   42   43 1    
    85   42   44 1    
    86   42  165 1    
    87   43  166 1    
    88   43  167 1    
    89   43  168 1    
    90   44   45 am   BACKBONE|DICT|INTERRES
    91   44  169 1    
    92   45   46 2    
    93   45   47 1    
    94   47   48 1    
    95   47   49 1    
    96   47  170 1    
    97   48  171 1    
    98   48  172 1    
    99   48  173 1    
   100   49   50 am   BACKBONE|DICT|INTERRES
   101   49  174 1    
   102   50   51 2    
   103   50   52 1    
   104   52   53 1    
   105   52   54 1    
   106   52  175 1    
   107   53  176 1    
   108   53  177 1    
   109   53  178 1    
   110   54   55 am   BACKBONE|DICT|INTERRES
   111   54  179 1    
   112   55   56 2    
   113   55   57 1    
   114   57   58 1    
   115   57   59 1    
   116   57  180 1    
   117   58  181 1    
   118   58  182 1    
   119   58  183 1    
   120   59   60 am   BACKBONE|DICT|INTERRES
   121   59  184 1    
   122   60   61 2    
   123   60   62 1    
   124   62   63 1    
   125   62   64 1    
   126   62  185 1    
   127   63  186 1    
   128   63  187 1    
   129   63  188 1    
   130   64   65 am   BACKBONE|DICT|INTERRES
   131   64  189 1    
   132   65   66 2    
   133   67   68 2    
   134   67   69 am   BACKBONE|DICT|INTERRES
   135   69   70 1    
   136   69  190 1    
   137   70   71 1    
   138   70   72 1    
   139   70  191 1    
   140   71  192 1    
   141   71  193 1    
   142   71  194 1    
   143   72   73 2    
   144   72   74 am   BACKBONE|DICT|INTERRES
   145   74   75 1    
   146   74  195 1    
   147   75   76 1    
   148   75   77 1    
   149   75  196 1    
   150   76  197 1    
   151   76  198 1    
   152   76  199 1    
   153   77   78 2    
   154   77   79 am   BACKBONE|DICT|INTERRES
   155   79   80 1    
   156   79  200 1    
   157   80   81 1    
   158   80   82 1    
   159   80  201 1    
   160   81  202 1    
   161   81  203 1    
   162   81  204 1    
   163   82   83 2    
   164   82   84 am   BACKBONE|DICT|INTERRES
   165   84   85 1    
   166   84  205 1    
   167   85   86 1    
   168   85   87 1    
   169   85  206 1    
   170   86  207 1    
   171   86  208 1    
   172   86  209 1    
   173   87   88 2    
   174   87   89 am   BACKBONE|DICT|INTERRES
   175   89   90 1    
   176   89  210 1    
   177   90   91 1    
   178   90   92 1    
   179   90  211 1    
   180   91  212 1    
   181   91  213 1    
   182   91  214 1    
   183   92   93 2    
   184   92   94 am   BACKBONE|DICT|INTERRES
   185   94   95 1    
   186   94  215 1    
   187   95   96 1    
   188   95   97 1    
   189   95  216 1    
   190   96  217 1    
   191   96  218 1    
   192   96  219 1    
   193   97   98 2    
   194   97   99 am   BACKBONE|DICT|INTERRES
   195   99  100 1    
   196   99  220 1    
   197  100  101 1    
   198  100  102 1    
   199  100  221 1    
   200  101  222 1    
   201  101  223 1    
   202  101  224 1    
   203  102  103 2    
   204  102  104 am   BACKBONE|DICT|INTERRES
   205  104  105 1    
   206  104  225 1    
   207  105  106 1    
   208  105  107 1    
   209  105  226 1    
   210  106  227 1    
   211  106  228 1    
   212  106  229 1    
   213  107  108 2    
   214  107  109 am   BACKBONE|DICT|INTERRES
   215  109  110 1    
   216  109  230 1    
   217  110  111 1    
   218  110  112 1    
   219  110  231 1    
   220  111  232 1    
   221  111  233 1    
   222  111  234 1    
   223  112  113 2    
   224  112  114 am   BACKBONE|DICT|INTERRES
   225  114  115 1    
   226  114  235 1    
   227  115  116 1    
   228  115  117 1    
   229  115  236 1    
   230  116  237 1    
   231  116  238 1    
   232  116  239 1    
   233  117  118 2    
   234  117  119 am   BACKBONE|DICT|INTERRES
   235  119  120 1    
   236  119  240 1    
   237  120  121 1    
   238  120  124 1    
   239  120  241 1    
   240  121  122 am   BACKBONE|DICT|INTERRES
   241  121  123 2    
   242  122  242 1    
   243  122  243 1    
   244  124  125 1    
   245  124  244 1    
   246  124  245 1    
   247  125  126 1    
   248  126  246 1    
   249  126  247 1    
@<TRIPOS>SUBSTRUCTURE
     1 UNK         1 GROUP             0       ****    0 ROOT    
