@<TRIPOS>MOLECULE
3R540
247   249    1
SMALL
USER_CHARGES


@<TRIPOS>ATOM
      1 CA          5.8519  -16.4215  -42.4260 C.3       0 UNK        -0.1800 
      2 C           4.5759  -15.8217  -42.9985 C.2       0 UNK         0.5000 
      3 O           3.5997  -15.6556  -42.2690 O.2       0 UNK        -0.5000 
      4 N           4.5823  -15.5009  -44.2998 N.am      1 UNK        -0.5000 
      5 CA          3.4360  -14.9402  -45.0274 C.3       1 UNK         0.1400 
      6 C6          3.6068  -15.0855  -46.5639 C.3       23 UNK        -0.0398 
      7 S7          2.0586  -15.5740  -47.3886 S.3       23 UNK        -0.2404 
      8 C8          2.5887  -15.6158  -49.1255 C.3       23 UNK        -0.0205 
      9 C9          1.8385  -16.6861  -49.9011 C.ar      23 UNK        -0.0193 
     10 C10         0.6228  -16.3954  -50.5273 C.ar      23 UNK        -0.1150 
     11 C11        -0.0551  -17.3732  -51.2653 C.ar      23 UNK        -0.0193 
     12 C12         0.5019  -18.6557  -51.3612 C.ar      23 UNK        -0.1150 
     13 C13         1.7174  -18.9590  -50.7399 C.ar      23 UNK        -0.0193 
     14 C14         2.3765  -17.9704  -50.0065 C.ar      23 UNK        -0.1150 
     15 C15         2.3428  -20.3408  -50.8850 C.3       23 UNK        -0.0205 
     16 S16         1.2318  -21.6867  -50.3718 S.3       23 UNK        -0.2404 
     17 C17         0.9142  -21.2568  -48.6324 C.3       23 UNK        -0.0398 
     18 CA          0.3363  -22.4410  -47.8221 C.3       11 UNK         0.1400 
     19 N           0.5023  -22.2116  -46.3888 N.am      11 UNK        -0.5000 
     20 C           0.3455  -23.1183  -45.4183 C.2       10 UNK         0.5000 
     21 O           0.0242  -24.2860  -45.6336 O.2       10 UNK        -0.5000 
     22 CA          0.5133  -22.6255  -43.9651 C.3       10 UNK         0.1400 
     23 CB          1.2654  -23.6414  -43.0827 C.3       10 UNK        -0.1800 
     24 N           1.0950  -21.2812  -43.8600 N.am      10 UNK        -0.5000 
     25 C           2.3393  -20.8807  -44.1663 C.2       9 UNK         0.5000 
     26 O           3.2348  -21.6383  -44.5389 O.2       9 UNK        -0.5000 
     27 CA          2.6198  -19.3645  -44.0920 C.3       9 UNK         0.1400 
     28 CB          2.7339  -18.7869  -45.5109 C.3       9 UNK        -0.1800 
     29 N           1.5910  -18.6200  -43.3605 N.am      9 UNK        -0.5000 
     30 C           1.4215  -18.6593  -42.0307 C.2       8 UNK         0.5000 
     31 O           2.1869  -19.2370  -41.2586 O.2       8 UNK        -0.5000 
     32 CA          0.1398  -18.0053  -41.4847 C.3       8 UNK         0.1400 
     33 CB          0.3694  -16.5186  -41.1719 C.3       8 UNK        -0.1800 
     34 N          -0.9804  -18.1528  -42.4199 N.am      8 UNK        -0.5000 
     35 C          -1.6763  -19.2870  -42.5942 C.2       7 UNK         0.5000 
     36 O          -1.4634  -20.3177  -41.9572 O.2       7 UNK        -0.5000 
     37 CA         -2.7654  -19.2957  -43.6845 C.3       7 UNK         0.1400 
     38 CB         -4.1211  -18.8728  -43.1015 C.3       7 UNK        -0.1800 
     39 N          -2.4394  -18.4305  -44.8172 N.am      7 UNK        -0.5000 
     40 C          -1.5201  -18.7117  -45.7496 C.2       6 UNK         0.5000 
     41 O          -0.9284  -19.7888  -45.8157 O.2       6 UNK        -0.5000 
     42 CA         -1.1955  -17.6089  -46.7755 C.3       6 UNK         0.1400 
     43 CB         -1.9695  -17.8514  -48.0739 C.3       6 UNK        -0.1800 
     44 N          -1.4778  -16.2467  -46.3141 N.am      6 UNK        -0.5000 
     45 C          -0.9390  -15.6629  -45.2376 C.2       5 UNK         0.5000 
     46 O          -0.1647  -16.2381  -44.4712 O.2       5 UNK        -0.5000 
     47 CA         -1.3251  -14.1922  -45.0079 C.3       5 UNK         0.1400 
     48 CB         -1.0887  -13.7407  -43.5555 C.3       5 UNK        -0.1800 
     49 N          -0.5526  -13.3480  -45.9134 N.am      5 UNK        -0.5000 
     50 C          -0.8568  -13.1165  -47.1975 C.2       4 UNK         0.5000 
     51 O          -1.8937  -13.5251  -47.7246 O.2       4 UNK        -0.5000 
     52 CA          0.1812  -12.3370  -48.0363 C.3       4 UNK         0.1400 
     53 CB         -0.4314  -11.6709  -49.2863 C.3       4 UNK        -0.1800 
     54 N           0.9797  -11.3787  -47.2609 N.am      4 UNK        -0.5000 
     55 C           0.5452  -10.2747  -46.6349 C.2       3 UNK         0.5000 
     56 O          -0.6303   -9.9060  -46.6217 O.2       3 UNK        -0.5000 
     57 CA          1.6198   -9.4768  -45.8749 C.3       3 UNK         0.1400 
     58 CB          1.0465   -8.3177  -45.0366 C.3       3 UNK        -0.1800 
     59 N           2.3657  -10.3888  -45.0150 N.am      3 UNK        -0.5000 
     60 C           3.6384  -10.2735  -44.6312 C.2       2 UNK         0.5000 
     61 O           4.3805   -9.3573  -44.9869 O.2       2 UNK        -0.5000 
     62 CA          4.1717  -11.3642  -43.6778 C.3       2 UNK         0.1400 
     63 CB          3.4482  -11.3171  -42.3173 C.3       2 UNK        -0.1800 
     64 N           4.1692  -12.7318  -44.2191 N.am      2 UNK        -0.5000 
     65 C           3.1315  -13.4812  -44.6254 C.2       1 UNK         0.5000 
     66 O           1.9723  -13.0741  -44.6840 O.2       1 UNK        -0.5000 
     67 C          -1.1406  -22.7153  -48.1717 C.2       11 UNK         0.5000 
     68 O          -1.4296  -23.6213  -48.9554 O.2       11 UNK        -0.5000 
     69 N          -2.0531  -21.9592  -47.5439 N.am      12 UNK        -0.5000 
     70 CA         -3.4973  -22.1634  -47.6645 C.3       12 UNK         0.1400 
     71 CB         -4.2396  -20.9096  -47.1801 C.3       12 UNK        -0.1800 
     72 C          -3.9752  -23.4103  -46.8981 C.2       12 UNK         0.5000 
     73 O          -4.8944  -24.0856  -47.3587 O.2       12 UNK        -0.5000 
     74 N          -3.3289  -23.7054  -45.7602 N.am      13 UNK        -0.5000 
     75 CA         -3.6262  -24.8586  -44.9067 C.3       13 UNK         0.1400 
     76 CB         -2.9345  -24.6833  -43.5457 C.3       13 UNK        -0.1800 
     77 C          -3.2239  -26.1927  -45.5614 C.2       13 UNK         0.5000 
     78 O          -3.9891  -27.1555  -45.5047 O.2       13 UNK        -0.5000 
     79 N          -2.0475  -26.2121  -46.2029 N.am      14 UNK        -0.5000 
     80 CA         -1.5358  -27.3424  -46.9816 C.3       14 UNK         0.1400 
     81 CB         -0.0198  -27.1633  -47.1640 C.3       14 UNK        -0.1800 
     82 C          -2.2172  -27.4952  -48.3568 C.2       14 UNK         0.5000 
     83 O          -2.0349  -28.5262  -49.0046 O.2       14 UNK        -0.5000 
     84 N          -2.9497  -26.4569  -48.7885 N.am      15 UNK        -0.5000 
     85 CA         -3.5929  -26.2822  -50.0965 C.3       15 UNK         0.1400 
     86 CB         -4.6458  -27.3766  -50.3640 C.3       15 UNK        -0.1800 
     87 C          -2.5889  -26.1219  -51.2586 C.2       15 UNK         0.5000 
     88 O          -2.9751  -26.2258  -52.4238 O.2       15 UNK        -0.5000 
     89 N          -1.3292  -25.8045  -50.9283 N.am      16 UNK        -0.5000 
     90 CA         -0.2473  -25.4877  -51.8623 C.3       16 UNK         0.1400 
     91 CB          1.0773  -25.4436  -51.0863 C.3       16 UNK        -0.1800 
     92 C          -0.4880  -24.1696  -52.6244 C.2       16 UNK         0.5000 
     93 O           0.0390  -23.9953  -53.7233 O.2       16 UNK        -0.5000 
     94 N          -1.3224  -23.2935  -52.0464 N.am      17 UNK        -0.5000 
     95 CA         -1.8400  -22.0681  -52.6545 C.3       17 UNK         0.1400 
     96 CB         -2.5662  -21.2635  -51.5637 C.3       17 UNK        -0.1800 
     97 C          -2.7754  -22.3200  -53.8593 C.2       17 UNK         0.5000 
     98 O          -3.0277  -21.3899  -54.6241 O.2       17 UNK        -0.5000 
     99 N          -3.2845  -23.5576  -53.9963 N.am      18 UNK        -0.5000 
    100 CA        -4.1614  -24.0795  -55.0571 C.3       18 UNK         0.1400 
    101 CB        -3.4872  -23.9640  -56.4393 C.3       18 UNK        -0.1800 
    102 C         -5.5938  -23.5014  -55.0637 C.2       18 UNK         0.5000 
    103 O         -6.4007  -23.8837  -55.9125 O.2       18 UNK        -0.5000 
    104 N         -5.8961  -22.6242  -54.1055 N.am      19 UNK        -0.5000 
    105 CA        -7.1644  -21.9547  -53.8631 C.3       19 UNK         0.1400 
    106 CB        -7.4360  -20.9043  -54.9556 C.3       19 UNK        -0.1800 
    107 C         -7.0624  -21.2994  -52.4795 C.2       19 UNK         0.5000 
    108 O         -5.9476  -21.1066  -51.9804 O.2       19 UNK        -0.5000 
    109 N         -8.2172  -20.9640  -51.8894 N.am      20 UNK        -0.5000 
    110 CA        -8.3542  -20.3185  -50.5811 C.3       20 UNK         0.1400 
    111 CB        -9.8479  -20.1433  -50.2616 C.3       20 UNK        -0.1800 
    112 C         -7.6044  -18.9742  -50.5296 C.2       20 UNK         0.5000 
    113 O         -8.0793  -17.9860  -51.0930 O.2       20 UNK        -0.5000 
    114 N         -6.4068  -19.0003  -49.9284 N.am      21 UNK        -0.5000 
    115 CA        -5.4204  -17.9169  -49.8677 C.3       21 UNK         0.1400 
    116 CB        -5.8699  -16.8316  -48.8693 C.3       21 UNK        -0.1800 
    117 C         -5.0443  -17.3557  -51.2562 C.2       21 UNK         0.5000 
    118 O         -4.9168  -16.1418  -51.4198 O.2       21 UNK        -0.5000 
    119 N         -4.8965  -18.2645  -52.2302 N.am      22 UNK        -0.5000 
    120 CA        -4.6609  -17.9891  -53.6593 C.3       22 UNK         0.1400 
    121 C         -5.8926  -17.3921  -54.4114 C.2       22 UNK         0.5000 
    122 N         -7.0784  -17.3094  -53.8180 N.am      22 UNK        -0.7600 
    123 O         -5.7849  -17.0272  -55.5789 O.2       22 UNK        -0.5000 
    124 C124       -3.3587  -17.1817  -53.9468 C.3       23 UNK        -0.0398 
    125 S125       -1.8320  -18.0084  -53.3824 S.3       23 UNK        -0.2404 
    126 C126       -1.3922  -17.0125  -51.9156 C.3       23 UNK        -0.0205 
    127 H127        6.6313  -16.5171  -43.1822 H         1 UNK         0.0600 
    128 H128        6.2332  -15.7933  -41.6210 H         1 UNK         0.0600 
    129 H129        5.6486  -17.4124  -42.0199 H         1 UNK         0.0600 
    130 H130        5.4196  -15.6607  -44.8420 H         1 UNK         0.3000 
    131 H131        2.5660  -15.5244  -44.7170 H         1 UNK         0.0600 
    132 H132        4.3329  -15.8674  -46.7917 H         1 UNK         0.0800 
    133 H133        3.9994  -14.1772  -47.0255 H         1 UNK         0.0800 
    134 H134        3.6610  -15.8083  -49.1851 H         1 UNK         0.0800 
    135 H135        2.4302  -14.6365  -49.5789 H         1 UNK         0.0800 
    136 H136        0.2033  -15.4031  -50.4374 H         1 UNK         0.1150 
    137 H137       -0.0043  -19.4299  -51.9182 H         1 UNK         0.1150 
    138 H138        3.3180  -18.1948  -49.5249 H         1 UNK         0.1150 
    139 H139        2.6154  -20.4926  -51.9301 H         1 UNK         0.0800 
    140 H140        3.2689  -20.4130  -50.3127 H         1 UNK         0.0800 
    141 H141        1.8652  -20.9445  -48.1976 H         1 UNK         0.0800 
    142 H142        0.2616  -20.3830  -48.5867 H         1 UNK         0.0800 
    143 H143        0.9053  -23.3402  -48.0684 H         1 UNK         0.0600 
    144 H144        0.6418  -21.2516  -46.1031 H         1 UNK         0.3000 
    145 H145       -0.4976  -22.5356  -43.5659 H         1 UNK         0.0600 
    146 H146        1.3672  -23.2759  -42.0608 H         1 UNK         0.0600 
    147 H147        0.7290  -24.5897  -43.0351 H         1 UNK         0.0600 
    148 H148        2.2635  -23.8542  -43.4659 H         1 UNK         0.0600 
    149 H149        0.4467  -20.5620  -43.5722 H         1 UNK         0.3000 
    150 H150        3.5770  -19.2277  -43.5847 H         1 UNK         0.0600 
    151 H151        3.4941  -19.3109  -46.0918 H         1 UNK         0.0600 
    152 H152        3.0220  -17.7393  -45.4814 H         1 UNK         0.0600 
    153 H153        1.7939  -18.8623  -46.0575 H         1 UNK         0.0600 
    154 H154        0.9461  -18.0612  -43.9066 H         1 UNK         0.3000 
    155 H155       -0.1213  -18.5071  -40.5505 H         1 UNK         0.0600 
    156 H156       -0.5409  -16.0434  -40.8065 H         1 UNK         0.0600 
    157 H157        0.7112  -15.9655  -42.0467 H         1 UNK         0.0600 
    158 H158        1.1322  -16.4002  -40.4015 H         1 UNK         0.0600 
    159 H159       -1.1397  -17.3720  -43.0447 H         1 UNK         0.3000 
    160 H160       -2.8577  -20.3221  -44.0456 H         1 UNK         0.0600 
    161 H161       -4.0997  -17.8464  -42.7333 H         1 UNK         0.0600 
    162 H162       -4.4048  -19.5157  -42.2671 H         1 UNK         0.0600 
    163 H163       -4.9109  -18.9457  -43.8496 H         1 UNK         0.0600 
    164 H164       -2.8955  -17.5311  -44.8513 H         1 UNK         0.3000 
    165 H165       -0.1285  -17.6713  -46.9953 H         1 UNK         0.0600 
    166 H166       -3.0416  -17.7715  -47.9013 H         1 UNK         0.0600 
    167 H167       -1.6976  -17.1169  -48.8303 H         1 UNK         0.0600 
    168 H168       -1.7636  -18.8399  -48.4870 H         1 UNK         0.0600 
    169 H169       -2.0505  -15.6731  -46.9203 H         1 UNK         0.3000 
    170 H170       -2.3902  -14.0783  -45.2199 H         1 UNK         0.0600 
    171 H171       -1.6913  -14.3301  -42.8636 H         1 UNK         0.0600 
    172 H172       -0.0474  -13.8530  -43.2538 H         1 UNK         0.0600 
    173 H173       -1.3639  -12.6949  -43.4190 H         1 UNK         0.0600 
    174 H174        0.3589  -13.0624  -45.5648 H         1 UNK         0.3000 
    175 H175        0.8875  -13.0841  -48.3953 H         1 UNK         0.0600 
    176 H176        0.3271  -11.1432  -49.8643 H         1 UNK         0.0600 
    177 H177       -0.8789  -12.4154  -49.9458 H         1 UNK         0.0600 
    178 H178       -1.2127  -10.9569  -49.0247 H         1 UNK         0.0600 
    179 H179        1.9617  -11.6007  -47.1790 H         1 UNK         0.3000 
    180 H180        2.2920   -9.0600  -46.6277 H         1 UNK         0.0600 
    181 H181        1.8402   -7.7547  -44.5455 H         1 UNK         0.0600 
    182 H182        0.4933   -7.6168  -45.6629 H         1 UNK         0.0600 
    183 H183        0.3667   -8.6806  -44.2649 H         1 UNK         0.0600 
    184 H184        1.8798  -11.2377  -44.7343 H         1 UNK         0.3000 
    185 H185        5.2198  -11.1242  -43.4914 H         1 UNK         0.0600 
    186 H186        3.9082  -12.0027  -41.6055 H         1 UNK         0.0600 
    187 H187        3.4964  -10.3175  -41.8837 H         1 UNK         0.0600 
    188 H188        2.3947  -11.5856  -42.4021 H         1 UNK         0.0600 
    189 H189        5.0768  -13.1749  -44.2380 H         1 UNK         0.3000 
    190 H190       -1.7312  -21.2377  -46.9068 H         1 UNK         0.3000 
    191 H191       -3.7395  -22.3110  -48.7191 H         1 UNK         0.0600 
    192 H192       -5.3186  -21.0292  -47.2857 H         1 UNK         0.0600 
    193 H193       -3.9528  -20.0352  -47.7611 H         1 UNK         0.0600 
    194 H194       -4.0361  -20.6986  -46.1307 H         1 UNK         0.0600 
    195 H195       -2.5681  -23.1105  -45.4737 H         1 UNK         0.3000 
    196 H196       -4.7047  -24.8823  -44.7361 H         1 UNK         0.0600 
    197 H197       -3.2066  -25.4923  -42.8668 H         1 UNK         0.0600 
    198 H198       -3.2275  -23.7476  -43.0689 H         1 UNK         0.0600 
    199 H199       -1.8487  -24.6894  -43.6379 H         1 UNK         0.0600 
    200 H200       -1.4352  -25.4029  -46.1355 H         1 UNK         0.3000 
    201 H201       -1.7097  -28.2632  -46.4211 H         1 UNK         0.0600 
    202 H202        0.4886  -27.1056  -46.2013 H         1 UNK         0.0600 
    203 H203        0.2130  -26.2533  -47.7192 H         1 UNK         0.0600 
    204 H204        0.4137  -28.0021  -47.7100 H         1 UNK         0.0600 
    205 H205       -3.0192  -25.6607  -48.1701 H         1 UNK         0.3000 
    206 H206       -4.1234  -25.3309  -50.0345 H         1 UNK         0.0600 
    207 H207       -5.3377  -27.4704  -49.5269 H         1 UNK         0.0600 
    208 H208       -5.2385  -27.1396  -51.2482 H         1 UNK         0.0600 
    209 H209       -4.1875  -28.3511  -50.5335 H         1 UNK         0.0600 
    210 H210       -1.1361  -25.6385  -49.9499 H         1 UNK         0.3000 
    211 H211       -0.1895  -26.2893  -52.6013 H         1 UNK         0.0600 
    212 H212        1.0492  -24.7035  -50.2864 H         1 UNK         0.0600 
    213 H213        1.9094  -25.1873  -51.7433 H         1 UNK         0.0600 
    214 H214        1.3023  -26.4112  -50.6373 H         1 UNK         0.0600 
    215 H215       -1.6351  -23.4997  -51.1053 H         1 UNK         0.3000 
    216 H216       -0.9927  -21.4810  -53.0140 H         1 UNK         0.0600 
    217 H217       -2.9878  -20.3446  -51.9686 H         1 UNK         0.0600 
    218 H218       -1.8856  -20.9794  -50.7610 H         1 UNK         0.0600 
    219 H219       -3.3865  -21.8321  -51.1252 H         1 UNK         0.0600 
    220 H220       -3.0187  -24.2492  -53.3051 H         1 UNK         0.3000 
    221 H221       -4.2751  -25.1426  -54.8402 H         1 UNK         0.0600 
    222 H222       -3.4023  -22.9271  -56.7652 H         1 UNK         0.0600 
    223 H223       -2.4865  -24.3962  -56.4271 H         1 UNK         0.0600 
    224 H224       -4.0603  -24.4962  -57.1993 H         1 UNK         0.0600 
    225 H225       -5.1804  -22.3695  -53.4358 H         1 UNK         0.3000 
    226 H226       -7.9654  -22.6961  -53.8454 H         1 UNK         0.0600 
    227 H227       -8.3284  -20.3186  -54.7318 H         1 UNK         0.0600 
    228 H228       -6.6023  -20.2097  -55.0561 H         1 UNK         0.0600 
    229 H229       -7.5946  -21.3732  -55.9266 H         1 UNK         0.0600 
    230 H230       -9.0794  -21.1366  -52.3855 H         1 UNK         0.3000 
    231 H231       -7.9274  -20.9871  -49.8306 H         1 UNK         0.0600 
    232 H232       -9.9853  -19.6581  -49.2944 H         1 UNK         0.0600 
    233 H233      -10.3574  -21.1061  -50.2163 H         1 UNK         0.0600 
    234 H234      -10.3531  -19.5316  -51.0103 H         1 UNK         0.0600 
    235 H235       -6.0895  -19.8905  -49.5720 H         1 UNK         0.3000 
    236 H236       -4.5083  -18.3708  -49.4849 H         1 UNK         0.0600 
    237 H237       -6.7719  -16.3217  -49.2091 H         1 UNK         0.0600 
    238 H238       -6.0753  -17.2603  -47.8885 H         1 UNK         0.0600 
    239 H239       -5.0949  -16.0757  -48.7357 H         1 UNK         0.0600 
    240 H240       -5.0756  -19.2376  -52.0058 H         1 UNK         0.3000 
    241 H241       -4.5265  -18.9733  -54.1096 H         1 UNK         0.0600 
    242 H242       -7.8547  -16.9290  -54.3350 H         1 UNK         0.3800 
    243 H243       -7.2138  -17.5759  -52.8491 H         1 UNK         0.3800 
    244 H244       -3.4189  -16.1776  -53.5264 H         1 UNK         0.0800 
    245 H245       -3.2389  -17.0376  -55.0216 H         1 UNK         0.0800 
    246 H246       -1.3805  -15.9609  -52.2064 H         1 UNK         0.0800 
    247 H247       -2.1764  -17.1215  -51.1684 H         1 UNK         0.0800 
@<TRIPOS>BOND
     1    1    2 1    
     2    1  127 1    
     3    1  128 1    
     4    1  129 1    
     5    2    3 2    
     6    2    4 am   BACKBONE|DICT|INTERRES
     7    4    5 1    
     8    4  130 1    
     9    5    6 1    
    10    5   65 1    
    11    5  131 1    
    12    6    7 1    
    13    6  132 1    
    14    6  133 1    
    15    7    8 1    
    16    8    9 1    
    17    8  134 1    
    18    8  135 1    
    19    9   10 ar   
    20    9   14 ar   
    21   10   11 ar   
    22   10  136 1    
    23   11   12 ar   
    24   11  126 1    
    25   12   13 ar   
    26   12  137 1    
    27   13   14 ar   
    28   13   15 1    
    29   14  138 1    
    30   15   16 1    
    31   15  139 1    
    32   15  140 1    
    33   16   17 1    
    34   17   18 1    
    35   17  141 1    
    36   17  142 1    
    37   18   19 1    
    38   18   67 1    
    39   18  143 1    
    40   19   20 am   BACKBONE|DICT|INTERRES
    41   19  144 1    
    42   20   21 2    
    43   20   22 1    
    44   22   23 1    
    45   22   24 1    
    46   22  145 1    
    47   23  146 1    
    48   23  147 1    
    49   23  148 1    
    50   24   25 am   BACKBONE|DICT|INTERRES
    51   24  149 1    
    52   25   26 2    
    53   25   27 1    
    54   27   28 1    
    55   27   29 1    
    56   27  150 1    
    57   28  151 1    
    58   28  152 1    
    59   28  153 1    
    60   29   30 am   BACKBONE|DICT|INTERRES
    61   29  154 1    
    62   30   31 2    
    63   30   32 1    
    64   32   33 1    
    65   32   34 1    
    66   32  155 1    
    67   33  156 1    
    68   33  157 1    
    69   33  158 1    
    70   34   35 am   BACKBONE|DICT|INTERRES
    71   34  159 1    
    72   35   36 2    
    73   35   37 1    
    74   37   38 1    
    75   37   39 1    
    76   37  160 1    
    77   38  161 1    
    78   38  162 1    
    79   38  163 1    
    80   39   40 am   BACKBONE|DICT|INTERRES
    81   39  164 1    
    82   40   41 2    
    83   40   42 1    
    84   42   43 1    
    85   42   44 1    
    86   42  165 1    
    87   43  166 1    
    88   43  167 1    
    89   43  168 1    
    90   44   45 am   BACKBONE|DICT|INTERRES
    91   44  169 1    
    92   45   46 2    
    93   45   47 1    
    94   47   48 1    
    95   47   49 1    
    96   47  170 1    
    97   48  171 1    
    98   48  172 1    
    99   48  173 1    
   100   49   50 am   BACKBONE|DICT|INTERRES
   101   49  174 1    
   102   50   51 2    
   103   50   52 1    
   104   52   53 1    
   105   52   54 1    
   106   52  175 1    
   107   53  176 1    
   108   53  177 1    
   109   53  178 1    
   110   54   55 am   BACKBONE|DICT|INTERRES
   111   54  179 1    
   112   55   56 2    
   113   55   57 1    
   114   57   58 1    
   115   57   59 1    
   116   57  180 1    
   117   58  181 1    
   118   58  182 1    
   119   58  183 1    
   120   59   60 am   BACKBONE|DICT|INTERRES
   121   59  184 1    
   122   60   61 2    
   123   60   62 1    
   124   62   63 1    
   125   62   64 1    
   126   62  185 1    
   127   63  186 1    
   128   63  187 1    
   129   63  188 1    
   130   64   65 am   BACKBONE|DICT|INTERRES
   131   64  189 1    
   132   65   66 2    
   133   67   68 2    
   134   67   69 am   BACKBONE|DICT|INTERRES
   135   69   70 1    
   136   69  190 1    
   137   70   71 1    
   138   70   72 1    
   139   70  191 1    
   140   71  192 1    
   141   71  193 1    
   142   71  194 1    
   143   72   73 2    
   144   72   74 am   BACKBONE|DICT|INTERRES
   145   74   75 1    
   146   74  195 1    
   147   75   76 1    
   148   75   77 1    
   149   75  196 1    
   150   76  197 1    
   151   76  198 1    
   152   76  199 1    
   153   77   78 2    
   154   77   79 am   BACKBONE|DICT|INTERRES
   155   79   80 1    
   156   79  200 1    
   157   80   81 1    
   158   80   82 1    
   159   80  201 1    
   160   81  202 1    
   161   81  203 1    
   162   81  204 1    
   163   82   83 2    
   164   82   84 am   BACKBONE|DICT|INTERRES
   165   84   85 1    
   166   84  205 1    
   167   85   86 1    
   168   85   87 1    
   169   85  206 1    
   170   86  207 1    
   171   86  208 1    
   172   86  209 1    
   173   87   88 2    
   174   87   89 am   BACKBONE|DICT|INTERRES
   175   89   90 1    
   176   89  210 1    
   177   90   91 1    
   178   90   92 1    
   179   90  211 1    
   180   91  212 1    
   181   91  213 1    
   182   91  214 1    
   183   92   93 2    
   184   92   94 am   BACKBONE|DICT|INTERRES
   185   94   95 1    
   186   94  215 1    
   187   95   96 1    
   188   95   97 1    
   189   95  216 1    
   190   96  217 1    
   191   96  218 1    
   192   96  219 1    
   193   97   98 2    
   194   97   99 am   BACKBONE|DICT|INTERRES
   195   99  100 1    
   196   99  220 1    
   197  100  101 1    
   198  100  102 1    
   199  100  221 1    
   200  101  222 1    
   201  101  223 1    
   202  101  224 1    
   203  102  103 2    
   204  102  104 am   BACKBONE|DICT|INTERRES
   205  104  105 1    
   206  104  225 1    
   207  105  106 1    
   208  105  107 1    
   209  105  226 1    
   210  106  227 1    
   211  106  228 1    
   212  106  229 1    
   213  107  108 2    
   214  107  109 am   BACKBONE|DICT|INTERRES
   215  109  110 1    
   216  109  230 1    
   217  110  111 1    
   218  110  112 1    
   219  110  231 1    
   220  111  232 1    
   221  111  233 1    
   222  111  234 1    
   223  112  113 2    
   224  112  114 am   BACKBONE|DICT|INTERRES
   225  114  115 1    
   226  114  235 1    
   227  115  116 1    
   228  115  117 1    
   229  115  236 1    
   230  116  237 1    
   231  116  238 1    
   232  116  239 1    
   233  117  118 2    
   234  117  119 am   BACKBONE|DICT|INTERRES
   235  119  120 1    
   236  119  240 1    
   237  120  121 1    
   238  120  124 1    
   239  120  241 1    
   240  121  122 am   BACKBONE|DICT|INTERRES
   241  121  123 2    
   242  122  242 1    
   243  122  243 1    
   244  124  125 1    
   245  124  244 1    
   246  124  245 1    
   247  125  126 1    
   248  126  246 1    
   249  126  247 1    
@<TRIPOS>SUBSTRUCTURE
     1 UNK         1 GROUP             0       ****    0 ROOT    
