@<TRIPOS>MOLECULE
3R540
247   249    1
SMALL
USER_CHARGES


@<TRIPOS>ATOM
      1 CA          1.8859  -15.7840  -52.8835 C.3       0 UNK        -0.1800 
      2 C           2.4162  -14.4893  -52.2872 C.2       0 UNK         0.5000 
      3 O           3.4640  -14.0034  -52.7143 O.2       0 UNK        -0.5000 
      4 N           1.7032  -13.9309  -51.3058 N.am      1 UNK        -0.5000 
      5 CA          2.0611  -12.7169  -50.5763 C.3       1 UNK         0.1400 
      6 C6          3.2891  -12.9127  -49.6348 C.3       23 UNK        -0.0398 
      7 S7          2.9577  -13.6997  -48.0158 S.3       23 UNK        -0.2404 
      8 C8          3.4813  -15.4263  -48.2804 C.3       23 UNK        -0.0205 
      9 C9          2.4385  -16.3590  -48.8980 C.ar      23 UNK        -0.0193 
     10 C10         1.0786  -16.0348  -48.9974 C.ar      23 UNK        -0.1150 
     11 C11         0.1685  -16.9294  -49.5679 C.ar      23 UNK        -0.0193 
     12 C12         0.6161  -18.1747  -50.0176 C.ar      23 UNK        -0.1150 
     13 C13         1.9634  -18.5262  -49.8926 C.ar      23 UNK        -0.0193 
     14 C14         2.8653  -17.6112  -49.3453 C.ar      23 UNK        -0.1150 
     15 C15         2.4569  -19.8973  -50.3257 C.3       23 UNK        -0.0205 
     16 S16         2.5466  -21.0448  -48.9117 S.3       23 UNK        -0.2404 
     17 C17         0.7823  -21.4322  -48.6961 C.3       23 UNK        -0.0398 
     18 CA          0.5427  -22.6761  -47.8084 C.3       11 UNK         0.1400 
     19 N           0.7313  -22.3951  -46.3818 N.am      11 UNK        -0.5000 
     20 C           0.6844  -23.3200  -45.4115 C.2       10 UNK         0.5000 
     21 O           0.5457  -24.5260  -45.6192 O.2       10 UNK        -0.5000 
     22 CA          0.7398  -22.8086  -43.9605 C.3       10 UNK         0.1400 
     23 CB          2.1774  -22.4542  -43.5520 C.3       10 UNK        -0.1800 
     24 N          -0.1445  -21.6635  -43.7335 N.am      10 UNK        -0.5000 
     25 C          -1.4791  -21.7050  -43.8628 C.2       9 UNK         0.5000 
     26 O          -2.1058  -22.7231  -44.1493 O.2       9 UNK        -0.5000 
     27 CA         -2.2484  -20.3864  -43.6820 C.3       9 UNK         0.1400 
     28 CB         -2.4715  -20.0889  -42.1920 C.3       9 UNK        -0.1800 
     29 N          -1.5889  -19.2512  -44.3243 N.am      9 UNK        -0.5000 
     30 C          -1.3652  -19.1418  -45.6419 C.2       8 UNK         0.5000 
     31 O          -1.7247  -19.9771  -46.4712 O.2       8 UNK        -0.5000 
     32 CA         -0.5516  -17.9203  -46.1032 C.3       8 UNK         0.1400 
     33 CB         -1.4175  -16.6523  -46.1147 C.3       8 UNK        -0.1800 
     34 N           0.6364  -17.6970  -45.2814 N.am      8 UNK        -0.5000 
     35 C           1.6371  -18.5786  -45.1428 C.2       7 UNK         0.5000 
     36 O           1.6899  -19.6598  -45.7291 O.2       7 UNK        -0.5000 
     37 CA          2.7271  -18.2169  -44.1214 C.3       7 UNK         0.1400 
     38 CB          3.7511  -17.2440  -44.7237 C.3       7 UNK        -0.1800 
     39 N           2.1531  -17.6414  -42.9047 N.am      7 UNK        -0.5000 
     40 C           1.4483  -18.3394  -42.0028 C.2       6 UNK         0.5000 
     41 O           1.2416  -19.5501  -42.0855 O.2       6 UNK        -0.5000 
     42 CA          0.8423  -17.5437  -40.8317 C.3       6 UNK         0.1400 
     43 CB          1.8875  -17.3204  -39.7287 C.3       6 UNK        -0.1800 
     44 N           0.2922  -16.2525  -41.2485 N.am      6 UNK        -0.5000 
     45 C          -0.7690  -16.1089  -42.0545 C.2       5 UNK         0.5000 
     46 O          -1.4136  -17.0531  -42.5060 O.2       5 UNK        -0.5000 
     47 CA         -1.1559  -14.6748  -42.4589 C.3       5 UNK         0.1400 
     48 CB         -2.1468  -14.0789  -41.4486 C.3       5 UNK        -0.1800 
     49 N          -0.0177  -13.7663  -42.6085 N.am      5 UNK        -0.5000 
     50 C           1.0191  -13.9370  -43.4383 C.2       4 UNK         0.5000 
     51 O           1.1626  -14.9298  -44.1554 O.2       4 UNK        -0.5000 
     52 CA          2.0449  -12.7867  -43.4689 C.3       4 UNK         0.1400 
     53 CB          3.3564  -13.1811  -44.1666 C.3       4 UNK        -0.1800 
     54 N           1.4842  -11.6020  -44.1217 N.am      4 UNK        -0.5000 
     55 C           0.6212  -10.7443  -43.5632 C.2       3 UNK         0.5000 
     56 O           0.2342  -10.8465  -42.3975 O.2       3 UNK        -0.5000 
     57 CA          0.0674   -9.5979  -44.4341 C.3       3 UNK         0.1400 
     58 CB          0.9656   -8.3490  -44.3444 C.3       3 UNK        -0.1800 
     59 N          -0.2301   -9.9534  -45.8310 N.am      3 UNK        -0.5000 
     60 C           0.6188  -10.2477  -46.8243 C.2       2 UNK         0.5000 
     61 O           1.8440  -10.3092  -46.6891 O.2       2 UNK        -0.5000 
     62 CA         -0.0165  -10.5157  -48.1988 C.3       2 UNK         0.1400 
     63 CB         -0.5313   -9.2149  -48.8383 C.3       2 UNK        -0.1800 
     64 N           0.9893  -11.1089  -49.0723 N.am      2 UNK        -0.5000 
     65 C           0.8018  -12.1562  -49.8807 C.2       1 UNK         0.5000 
     66 O          -0.2978  -12.6829  -50.0737 O.2       1 UNK        -0.5000 
     67 C          -0.8504  -23.2723  -48.0908 C.2       11 UNK         0.5000 
     68 O          -0.9423  -24.2967  -48.7687 O.2       11 UNK        -0.5000 
     69 N          -1.9042  -22.6388  -47.5569 N.am      12 UNK        -0.5000 
     70 CA         -3.2908  -23.0679  -47.7326 C.3       12 UNK         0.1400 
     71 CB         -4.2434  -22.0082  -47.1621 C.3       12 UNK        -0.1800 
     72 C          -3.5783  -24.4543  -47.1309 C.2       12 UNK         0.5000 
     73 O          -4.2616  -25.2571  -47.7653 O.2       12 UNK        -0.5000 
     74 N          -3.0202  -24.7313  -45.9446 N.am      13 UNK        -0.5000 
     75 CA         -3.1006  -26.0277  -45.2716 C.3       13 UNK         0.1400 
     76 CB         -2.5504  -25.9039  -43.8429 C.3       13 UNK        -0.1800 
     77 C          -2.3694  -27.1445  -46.0371 C.2       13 UNK         0.5000 
     78 O          -2.8793  -28.2636  -46.0998 O.2       13 UNK        -0.5000 
     79 N          -1.2048  -26.8215  -46.6180 N.am      14 UNK        -0.5000 
     80 CA         -0.4162  -27.7353  -47.4449 C.3       14 UNK         0.1400 
     81 CB          0.9820  -27.1438  -47.6809 C.3       14 UNK        -0.1800 
     82 C          -1.1059  -28.0667  -48.7809 C.2       14 UNK         0.5000 
     83 O          -1.1094  -29.2288  -49.1897 O.2       14 UNK        -0.5000 
     84 N          -1.6849  -27.0471  -49.4295 N.am      15 UNK        -0.5000 
     85 CA         -2.4204  -27.1828  -50.6877 C.3       15 UNK         0.1400 
     86 CB         -2.5750  -25.7960  -51.3279 C.3       15 UNK        -0.1800 
     87 C          -3.8058  -27.8328  -50.5192 C.2       15 UNK         0.5000 
     88 O          -4.2797  -28.4836  -51.4510 O.2       15 UNK        -0.5000 
     89 N          -4.4348  -27.6091  -49.3554 N.am      16 UNK        -0.5000 
     90 CA         -5.8320  -27.9101  -49.0231 C.3       16 UNK         0.1400 
     91 CB         -6.0919  -29.4308  -49.0100 C.3       16 UNK        -0.1800 
     92 C          -6.8133  -27.1220  -49.9196 C.2       16 UNK         0.5000 
     93 O          -7.8432  -27.6533  -50.3394 O.2       16 UNK        -0.5000 
     94 N          -6.4536  -25.8668  -50.2124 N.am      17 UNK        -0.5000 
     95 CA         -7.1179  -24.9535  -51.1371 C.3       17 UNK         0.1400 
     96 CB         -6.8954  -25.4255  -52.5893 C.3       17 UNK        -0.1800 
     97 C          -6.5421  -23.5436  -50.9254 C.2       17 UNK         0.5000 
     98 O          -5.6083  -23.3755  -50.1375 O.2       17 UNK        -0.5000 
     99 N          -7.0827  -22.5530  -51.6465 N.am      18 UNK        -0.5000 
    100 CA        -6.5887  -21.1739  -51.6792 C.3       18 UNK         0.1400 
    101 CB        -7.6925  -20.2570  -52.2358 C.3       18 UNK        -0.1800 
    102 C         -5.2808  -21.0731  -52.4917 C.2       18 UNK         0.5000 
    103 O         -5.2971  -20.6443  -53.6486 O.2       18 UNK        -0.5000 
    104 N         -4.1791  -21.5223  -51.8786 N.am      19 UNK        -0.5000 
    105 CA        -2.8212  -21.5349  -52.4201 C.3       19 UNK         0.1400 
    106 CB        -1.8639  -22.0406  -51.3351 C.3       19 UNK        -0.1800 
    107 C         -2.3753  -20.1470  -52.9072 C.2       19 UNK         0.5000 
    108 O         -2.4562  -19.1855  -52.1437 O.2       19 UNK        -0.5000 
    109 N         -1.9505  -20.0699  -54.1763 N.am      20 UNK        -0.5000 
    110 CA        -1.5402  -18.8514  -54.8889 C.3       20 UNK         0.1400 
    111 CB        -0.2240  -18.3029  -54.3002 C.3       20 UNK        -0.1800 
    112 C         -2.6484  -17.7742  -54.9798 C.2       20 UNK         0.5000 
    113 O         -2.3400  -16.5940  -55.1515 O.2       20 UNK        -0.5000 
    114 N         -3.9156  -18.2065  -54.8710 N.am      21 UNK        -0.5000 
    115 CA        -5.1348  -17.3959  -54.8056 C.3       21 UNK         0.1400 
    116 CB        -5.3601  -16.6130  -56.1167 C.3       21 UNK        -0.1800 
    117 C         -5.2095  -16.5086  -53.5433 C.2       21 UNK         0.5000 
    118 O         -5.8226  -15.4398  -53.5814 O.2       21 UNK        -0.5000 
    119 N         -4.6096  -16.9713  -52.4411 N.am      22 UNK        -0.5000 
    120 CA        -4.6139  -16.3132  -51.1301 C.3       22 UNK         0.1400 
    121 C         -4.7600  -17.3332  -49.9646 C.2       22 UNK         0.5000 
    122 N         -4.7344  -16.8801  -48.7175 N.am      22 UNK        -0.7600 
    123 O         -4.9450  -18.5307  -50.1677 O.2       22 UNK        -0.5000 
    124 C124       -3.4441  -15.2983  -50.9687 C.3       23 UNK        -0.0398 
    125 S125       -1.7693  -15.9559  -51.2953 S.3       23 UNK        -0.2404 
    126 C126       -1.3052  -16.5662  -49.6487 C.3       23 UNK        -0.0205 
    127 H127        0.9894  -16.1245  -52.3677 H         1 UNK         0.0600 
    128 H128        2.6362  -16.5706  -52.8039 H         1 UNK         0.0600 
    129 H129        1.6430  -15.6430  -53.9363 H         1 UNK         0.0600 
    130 H130        0.8198  -14.3348  -51.0168 H         1 UNK         0.3000 
    131 H131        2.3349  -11.9713  -51.3257 H         1 UNK         0.0600 
    132 H132        3.7253  -11.9366  -49.4193 H         1 UNK         0.0800 
    133 H133        4.0833  -13.4573  -50.1454 H         1 UNK         0.0800 
    134 H134        4.3886  -15.4354  -48.8859 H         1 UNK         0.0800 
    135 H135        3.7615  -15.8372  -47.3115 H         1 UNK         0.0800 
    136 H136        0.7142  -15.0861  -48.6327 H         1 UNK         0.1150 
    137 H137       -0.0900  -18.8730  -50.4458 H         1 UNK         0.1150 
    138 H138        3.9063  -17.8865  -49.2490 H         1 UNK         0.1150 
    139 H139        1.8177  -20.3085  -51.1086 H         1 UNK         0.0800 
    140 H140        3.4508  -19.8039  -50.7658 H         1 UNK         0.0800 
    141 H141        0.3790  -21.5927  -49.6953 H         1 UNK         0.0800 
    142 H142        0.2685  -20.5587  -48.2917 H         1 UNK         0.0800 
    143 H143        1.2700  -23.4418  -48.0873 H         1 UNK         0.0600 
    144 H144        0.8906  -21.4237  -46.1281 H         1 UNK         0.3000 
    145 H145        0.3986  -23.6194  -43.3136 H         1 UNK         0.0600 
    146 H146        2.2292  -22.1702  -42.5008 H         1 UNK         0.0600 
    147 H147        2.8432  -23.3067  -43.6917 H         1 UNK         0.0600 
    148 H148        2.5749  -21.6283  -44.1412 H         1 UNK         0.0600 
    149 H149        0.2968  -20.7943  -43.4537 H         1 UNK         0.3000 
    150 H150       -3.2265  -20.5074  -44.1516 H         1 UNK         0.0600 
    151 H151       -2.9627  -20.9264  -41.6949 H         1 UNK         0.0600 
    152 H152       -3.1069  -19.2136  -42.0565 H         1 UNK         0.0600 
    153 H153       -1.5308  -19.9034  -41.6729 H         1 UNK         0.0600 
    154 H154       -1.3046  -18.4910  -43.7116 H         1 UNK         0.3000 
    155 H155       -0.2120  -18.1196  -47.1198 H         1 UNK         0.0600 
    156 H156       -0.8540  -15.7924  -46.4776 H         1 UNK         0.0600 
    157 H157       -2.2836  -16.7795  -46.7646 H         1 UNK         0.0600 
    158 H158       -1.7918  -16.4108  -45.1210 H         1 UNK         0.0600 
    159 H159        0.6954  -16.8144  -44.7840 H         1 UNK         0.3000 
    160 H160        3.2523  -19.1358  -43.8523 H         1 UNK         0.0600 
    161 H161        3.2922  -16.2953  -45.0019 H         1 UNK         0.0600 
    162 H162        4.2048  -17.6662  -45.6213 H         1 UNK         0.0600 
    163 H163        4.5563  -17.0329  -44.0201 H         1 UNK         0.0600 
    164 H164        2.2149  -16.6385  -42.8052 H         1 UNK         0.3000 
    165 H165        0.0277  -18.1387  -40.4133 H         1 UNK         0.0600 
    166 H166        1.4460  -16.8299  -38.8609 H         1 UNK         0.0600 
    167 H167        2.3028  -18.2697  -39.3876 H         1 UNK         0.0600 
    168 H168        2.7178  -16.7048  -40.0767 H         1 UNK         0.0600 
    169 H169        0.7648  -15.4227  -40.9218 H         1 UNK         0.3000 
    170 H170       -1.6538  -14.7309  -43.4282 H         1 UNK         0.0600 
    171 H171       -3.0217  -14.7205  -41.3340 H         1 UNK         0.0600 
    172 H172       -1.6943  -13.9603  -40.4633 H         1 UNK         0.0600 
    173 H173       -2.5025  -13.1012  -41.7745 H         1 UNK         0.0600 
    174 H174       -0.0715  -12.8853  -42.1093 H         1 UNK         0.3000 
    175 H175        2.2904  -12.5363  -42.4347 H         1 UNK         0.0600 
    176 H176        3.8201  -14.0356  -43.6723 H         1 UNK         0.0600 
    177 H177        3.1899  -13.4565  -45.2059 H         1 UNK         0.0600 
    178 H178        4.0764  -12.3630  -44.1479 H         1 UNK         0.0600 
    179 H179        1.7577  -11.4318  -45.0845 H         1 UNK         0.3000 
    180 H180       -0.8962   -9.3279  -43.9990 H         1 UNK         0.0600 
    181 H181        1.9695   -8.5376  -44.7255 H         1 UNK         0.0600 
    182 H182        1.0698   -8.0206  -43.3096 H         1 UNK         0.0600 
    183 H183        0.5427   -7.5173  -44.9078 H         1 UNK         0.0600 
    184 H184       -1.2166   -9.9626  -46.0511 H         1 UNK         0.3000 
    185 H185       -0.8498  -11.2066  -48.0538 H         1 UNK         0.0600 
    186 H186       -1.3009   -8.7481  -48.2226 H         1 UNK         0.0600 
    187 H187        0.2708   -8.4877  -48.9706 H         1 UNK         0.0600 
    188 H188       -0.9728   -9.4069  -49.8164 H         1 UNK         0.0600 
    189 H189        1.9304  -10.7893  -48.8827 H         1 UNK         0.3000 
    190 H190       -1.7583  -21.7792  -47.0323 H         1 UNK         0.3000 
    191 H191       -3.4648  -23.1368  -48.8064 H         1 UNK         0.0600 
    192 H192       -4.0890  -21.8626  -46.0928 H         1 UNK         0.0600 
    193 H193       -5.2837  -22.3005  -47.3111 H         1 UNK         0.0600 
    194 H194       -4.1031  -21.0468  -47.6570 H         1 UNK         0.0600 
    195 H195       -2.5152  -23.9968  -45.4536 H         1 UNK         0.3000 
    196 H196       -4.1546  -26.3056  -45.2067 H         1 UNK         0.0600 
    197 H197       -2.6002  -26.8592  -43.3191 H         1 UNK         0.0600 
    198 H198       -3.1260  -25.1839  -43.2609 H         1 UNK         0.0600 
    199 H199       -1.5090  -25.5797  -43.8403 H         1 UNK         0.0600 
    200 H200       -0.8306  -25.8880  -46.4860 H         1 UNK         0.3000 
    201 H201       -0.2959  -28.6700  -46.8931 H         1 UNK         0.0600 
    202 H202        1.5060  -26.9857  -46.7382 H         1 UNK         0.0600 
    203 H203        0.9343  -26.1862  -48.1999 H         1 UNK         0.0600 
    204 H204        1.5936  -27.8152  -48.2847 H         1 UNK         0.0600 
    205 H205       -1.5814  -26.1069  -49.0566 H         1 UNK         0.3000 
    206 H206       -1.8360  -27.8088  -51.3653 H         1 UNK         0.0600 
    207 H207       -1.6034  -25.3357  -51.5074 H         1 UNK         0.0600 
    208 H208       -3.0885  -25.8604  -52.2881 H         1 UNK         0.0600 
    209 H209       -3.1554  -25.1276  -50.6902 H         1 UNK         0.0600 
    210 H210       -3.9746  -26.9964  -48.6900 H         1 UNK         0.3000 
    211 H211       -5.9866  -27.5429  -48.0075 H         1 UNK         0.0600 
    212 H212       -6.0308  -29.8646  -50.0083 H         1 UNK         0.0600 
    213 H213       -7.0859  -29.6517  -48.6199 H         1 UNK         0.0600 
    214 H214       -5.3719  -29.9466  -48.3745 H         1 UNK         0.0600 
    215 H215       -5.6358  -25.4682  -49.7622 H         1 UNK         0.3000 
    216 H216       -8.1853  -24.9279  -50.9103 H         1 UNK         0.0600 
    217 H217       -5.8340  -25.4569  -52.8392 H         1 UNK         0.0600 
    218 H218       -7.3828  -24.7629  -53.3049 H         1 UNK         0.0600 
    219 H219       -7.3038  -26.4225  -52.7538 H         1 UNK         0.0600 
    220 H220       -7.8300  -22.7706  -52.2895 H         1 UNK         0.3000 
    221 H221       -6.3742  -20.8511  -50.6579 H         1 UNK         0.0600 
    222 H222       -8.5819  -20.2849  -51.6063 H         1 UNK         0.0600 
    223 H223       -7.9869  -20.5423  -53.2466 H         1 UNK         0.0600 
    224 H224       -7.3527  -19.2208  -52.2712 H         1 UNK         0.0600 
    225 H225       -4.2971  -21.9072  -50.9499 H         1 UNK         0.3000 
    226 H226       -2.8057  -22.2371  -53.2557 H         1 UNK         0.0600 
    227 H227       -2.1507  -23.0285  -50.9830 H         1 UNK         0.0600 
    228 H228       -0.8443  -22.1118  -51.7153 H         1 UNK         0.0600 
    229 H229       -1.8563  -21.3719  -50.4731 H         1 UNK         0.0600 
    230 H230       -1.9424  -20.9146  -54.7311 H         1 UNK         0.3000 
    231 H231       -1.3373  -19.1549  -55.9167 H         1 UNK         0.0600 
    232 H232       -0.3628  -17.9285  -53.2858 H         1 UNK         0.0600 
    233 H233        0.1634  -17.4809  -54.9026 H         1 UNK         0.0600 
    234 H234        0.5474  -19.0721  -54.2693 H         1 UNK         0.0600 
    235 H235       -4.0626  -19.1942  -54.6957 H         1 UNK         0.3000 
    236 H236       -5.9561  -18.1077  -54.7113 H         1 UNK         0.0600 
    237 H237       -6.3484  -16.1523  -56.1306 H         1 UNK         0.0600 
    238 H238       -4.6286  -15.8151  -56.2457 H         1 UNK         0.0600 
    239 H239       -5.2984  -17.2699  -56.9843 H         1 UNK         0.0600 
    240 H240       -4.1014  -17.8498  -52.4654 H         1 UNK         0.3000 
    241 H241       -5.5392  -15.7380  -51.0647 H         1 UNK         0.0600 
    242 H242       -4.8559  -17.5415  -47.9677 H         1 UNK         0.3800 
    243 H243       -4.6458  -15.9002  -48.5034 H         1 UNK         0.3800 
    244 H244       -3.4632  -14.8195  -49.9895 H         1 UNK         0.0800 
    245 H245       -3.5977  -14.4837  -51.6775 H         1 UNK         0.0800 
    246 H246       -1.9065  -17.4423  -49.4025 H         1 UNK         0.0800 
    247 H247       -1.5424  -15.8026  -48.9076 H         1 UNK         0.0800 
@<TRIPOS>BOND
     1    1    2 1    
     2    1  127 1    
     3    1  128 1    
     4    1  129 1    
     5    2    3 2    
     6    2    4 am   BACKBONE|DICT|INTERRES
     7    4    5 1    
     8    4  130 1    
     9    5    6 1    
    10    5   65 1    
    11    5  131 1    
    12    6    7 1    
    13    6  132 1    
    14    6  133 1    
    15    7    8 1    
    16    8    9 1    
    17    8  134 1    
    18    8  135 1    
    19    9   10 ar   
    20    9   14 ar   
    21   10   11 ar   
    22   10  136 1    
    23   11   12 ar   
    24   11  126 1    
    25   12   13 ar   
    26   12  137 1    
    27   13   14 ar   
    28   13   15 1    
    29   14  138 1    
    30   15   16 1    
    31   15  139 1    
    32   15  140 1    
    33   16   17 1    
    34   17   18 1    
    35   17  141 1    
    36   17  142 1    
    37   18   19 1    
    38   18   67 1    
    39   18  143 1    
    40   19   20 am   BACKBONE|DICT|INTERRES
    41   19  144 1    
    42   20   21 2    
    43   20   22 1    
    44   22   23 1    
    45   22   24 1    
    46   22  145 1    
    47   23  146 1    
    48   23  147 1    
    49   23  148 1    
    50   24   25 am   BACKBONE|DICT|INTERRES
    51   24  149 1    
    52   25   26 2    
    53   25   27 1    
    54   27   28 1    
    55   27   29 1    
    56   27  150 1    
    57   28  151 1    
    58   28  152 1    
    59   28  153 1    
    60   29   30 am   BACKBONE|DICT|INTERRES
    61   29  154 1    
    62   30   31 2    
    63   30   32 1    
    64   32   33 1    
    65   32   34 1    
    66   32  155 1    
    67   33  156 1    
    68   33  157 1    
    69   33  158 1    
    70   34   35 am   BACKBONE|DICT|INTERRES
    71   34  159 1    
    72   35   36 2    
    73   35   37 1    
    74   37   38 1    
    75   37   39 1    
    76   37  160 1    
    77   38  161 1    
    78   38  162 1    
    79   38  163 1    
    80   39   40 am   BACKBONE|DICT|INTERRES
    81   39  164 1    
    82   40   41 2    
    83   40   42 1    
    84   42   43 1    
    85   42   44 1    
    86   42  165 1    
    87   43  166 1    
    88   43  167 1    
    89   43  168 1    
    90   44   45 am   BACKBONE|DICT|INTERRES
    91   44  169 1    
    92   45   46 2    
    93   45   47 1    
    94   47   48 1    
    95   47   49 1    
    96   47  170 1    
    97   48  171 1    
    98   48  172 1    
    99   48  173 1    
   100   49   50 am   BACKBONE|DICT|INTERRES
   101   49  174 1    
   102   50   51 2    
   103   50   52 1    
   104   52   53 1    
   105   52   54 1    
   106   52  175 1    
   107   53  176 1    
   108   53  177 1    
   109   53  178 1    
   110   54   55 am   BACKBONE|DICT|INTERRES
   111   54  179 1    
   112   55   56 2    
   113   55   57 1    
   114   57   58 1    
   115   57   59 1    
   116   57  180 1    
   117   58  181 1    
   118   58  182 1    
   119   58  183 1    
   120   59   60 am   BACKBONE|DICT|INTERRES
   121   59  184 1    
   122   60   61 2    
   123   60   62 1    
   124   62   63 1    
   125   62   64 1    
   126   62  185 1    
   127   63  186 1    
   128   63  187 1    
   129   63  188 1    
   130   64   65 am   BACKBONE|DICT|INTERRES
   131   64  189 1    
   132   65   66 2    
   133   67   68 2    
   134   67   69 am   BACKBONE|DICT|INTERRES
   135   69   70 1    
   136   69  190 1    
   137   70   71 1    
   138   70   72 1    
   139   70  191 1    
   140   71  192 1    
   141   71  193 1    
   142   71  194 1    
   143   72   73 2    
   144   72   74 am   BACKBONE|DICT|INTERRES
   145   74   75 1    
   146   74  195 1    
   147   75   76 1    
   148   75   77 1    
   149   75  196 1    
   150   76  197 1    
   151   76  198 1    
   152   76  199 1    
   153   77   78 2    
   154   77   79 am   BACKBONE|DICT|INTERRES
   155   79   80 1    
   156   79  200 1    
   157   80   81 1    
   158   80   82 1    
   159   80  201 1    
   160   81  202 1    
   161   81  203 1    
   162   81  204 1    
   163   82   83 2    
   164   82   84 am   BACKBONE|DICT|INTERRES
   165   84   85 1    
   166   84  205 1    
   167   85   86 1    
   168   85   87 1    
   169   85  206 1    
   170   86  207 1    
   171   86  208 1    
   172   86  209 1    
   173   87   88 2    
   174   87   89 am   BACKBONE|DICT|INTERRES
   175   89   90 1    
   176   89  210 1    
   177   90   91 1    
   178   90   92 1    
   179   90  211 1    
   180   91  212 1    
   181   91  213 1    
   182   91  214 1    
   183   92   93 2    
   184   92   94 am   BACKBONE|DICT|INTERRES
   185   94   95 1    
   186   94  215 1    
   187   95   96 1    
   188   95   97 1    
   189   95  216 1    
   190   96  217 1    
   191   96  218 1    
   192   96  219 1    
   193   97   98 2    
   194   97   99 am   BACKBONE|DICT|INTERRES
   195   99  100 1    
   196   99  220 1    
   197  100  101 1    
   198  100  102 1    
   199  100  221 1    
   200  101  222 1    
   201  101  223 1    
   202  101  224 1    
   203  102  103 2    
   204  102  104 am   BACKBONE|DICT|INTERRES
   205  104  105 1    
   206  104  225 1    
   207  105  106 1    
   208  105  107 1    
   209  105  226 1    
   210  106  227 1    
   211  106  228 1    
   212  106  229 1    
   213  107  108 2    
   214  107  109 am   BACKBONE|DICT|INTERRES
   215  109  110 1    
   216  109  230 1    
   217  110  111 1    
   218  110  112 1    
   219  110  231 1    
   220  111  232 1    
   221  111  233 1    
   222  111  234 1    
   223  112  113 2    
   224  112  114 am   BACKBONE|DICT|INTERRES
   225  114  115 1    
   226  114  235 1    
   227  115  116 1    
   228  115  117 1    
   229  115  236 1    
   230  116  237 1    
   231  116  238 1    
   232  116  239 1    
   233  117  118 2    
   234  117  119 am   BACKBONE|DICT|INTERRES
   235  119  120 1    
   236  119  240 1    
   237  120  121 1    
   238  120  124 1    
   239  120  241 1    
   240  121  122 am   BACKBONE|DICT|INTERRES
   241  121  123 2    
   242  122  242 1    
   243  122  243 1    
   244  124  125 1    
   245  124  244 1    
   246  124  245 1    
   247  125  126 1    
   248  126  246 1    
   249  126  247 1    
@<TRIPOS>SUBSTRUCTURE
     1 UNK         1 GROUP             0       ****    0 ROOT    
