@<TRIPOS>MOLECULE
3R540
247   249    1
SMALL
USER_CHARGES


@<TRIPOS>ATOM
      1 CA          8.0215  -15.0651  -46.2375 C.3       0 UNK        -0.1800 
      2 C           7.1232  -14.9236  -47.4579 C.2       0 UNK         0.5000 
      3 O           7.0779  -13.8530  -48.0632 O.2       0 UNK        -0.5000 
      4 N           6.4045  -15.9982  -47.8152 N.am      1 UNK        -0.5000 
      5 CA          5.4711  -16.0880  -48.9514 C.3       1 UNK         0.1400 
      6 C6          6.1607  -15.8568  -50.3337 C.3       23 UNK        -0.0398 
      7 S7          6.0508  -17.2971  -51.4488 S.3       23 UNK        -0.2404 
      8 C8          4.4773  -16.9921  -52.3300 C.3       23 UNK        -0.0205 
      9 C9          3.3439  -17.9764  -52.0272 C.ar      23 UNK        -0.0193 
     10 C10         2.2151  -17.9551  -52.8515 C.ar      23 UNK        -0.1150 
     11 C11         1.1479  -18.8324  -52.6379 C.ar      23 UNK        -0.0193 
     12 C12         1.2139  -19.7530  -51.5878 C.ar      23 UNK        -0.1150 
     13 C13         2.3251  -19.7751  -50.7392 C.ar      23 UNK        -0.0193 
     14 C14         3.3825  -18.8889  -50.9645 C.ar      23 UNK        -0.1150 
     15 C15         2.3947  -20.7406  -49.5668 C.3       23 UNK        -0.0205 
     16 S16         1.6373  -20.0333  -48.0699 S.3       23 UNK        -0.2404 
     17 C17        -0.0569  -20.7100  -48.1512 C.3       23 UNK        -0.0398 
     18 CA         -0.1754  -22.0374  -47.3672 C.3       11 UNK         0.1400 
     19 N           0.1263  -21.8816  -45.9418 N.am      11 UNK        -0.5000 
     20 C           0.3762  -22.9009  -45.1100 C.2       10 UNK         0.5000 
     21 O           0.3781  -24.0812  -45.4580 O.2       10 UNK        -0.5000 
     22 CA          0.6134  -22.5448  -43.6344 C.3       10 UNK         0.1400 
     23 CB          2.0323  -21.9962  -43.4186 C.3       10 UNK        -0.1800 
     24 N          -0.3710  -21.5808  -43.1450 N.am      10 UNK        -0.5000 
     25 C          -1.6663  -21.8596  -42.9440 C.2       9 UNK         0.5000 
     26 O          -2.1652  -22.9682  -43.1370 O.2       9 UNK        -0.5000 
     27 CA         -2.5608  -20.6928  -42.4850 C.3       9 UNK         0.1400 
     28 CB         -2.4542  -20.4918  -40.9662 C.3       9 UNK        -0.1800 
     29 N          -2.2463  -19.4351  -43.1648 N.am      9 UNK        -0.5000 
     30 C          -2.4122  -19.2294  -44.4786 C.2       8 UNK         0.5000 
     31 O          -2.8595  -20.0734  -45.2505 O.2       8 UNK        -0.5000 
     32 CA         -1.9501  -17.8750  -45.0371 C.3       8 UNK         0.1400 
     33 CB         -3.0555  -16.8239  -44.8631 C.3       8 UNK        -0.1800 
     34 N          -0.6938  -17.3896  -44.4561 N.am      8 UNK        -0.5000 
     35 C           0.4681  -18.0633  -44.4903 C.2       7 UNK         0.5000 
     36 O           0.5704  -19.1980  -44.9557 O.2       7 UNK        -0.5000 
     37 CA          1.7242  -17.3919  -43.9076 C.3       7 UNK         0.1400 
     38 CB          2.8922  -17.4424  -44.9086 C.3       7 UNK        -0.1800 
     39 N           1.4782  -16.0023  -43.5158 N.am      7 UNK        -0.5000 
     40 C           1.4389  -15.5686  -42.2497 C.2       6 UNK         0.5000 
     41 O           1.6198  -16.2989  -41.2743 O.2       6 UNK        -0.5000 
     42 CA          1.1528  -14.0726  -42.0068 C.3       6 UNK         0.1400 
     43 CB          2.4645  -13.3155  -41.7459 C.3       6 UNK        -0.1800 
     44 N           0.4090  -13.3724  -43.0584 N.am      6 UNK        -0.5000 
     45 C          -0.8214  -13.6772  -43.4917 C.2       5 UNK         0.5000 
     46 O          -1.4169  -14.7058  -43.1726 O.2       5 UNK        -0.5000 
     47 CA         -1.5164  -12.6603  -44.4146 C.3       5 UNK         0.1400 
     48 CB         -0.7957  -11.2987  -44.5224 C.3       5 UNK        -0.1800 
     49 N          -1.6831  -13.2275  -45.7486 N.am      5 UNK        -0.5000 
     50 C          -2.7087  -12.9596  -46.5704 C.2       4 UNK         0.5000 
     51 O          -3.6699  -12.2622  -46.2423 O.2       4 UNK        -0.5000 
     52 CA         -2.6580  -13.5220  -48.0071 C.3       4 UNK         0.1400 
     53 CB         -2.6705  -12.3809  -49.0379 C.3       4 UNK        -0.1800 
     54 N          -1.4684  -14.3363  -48.2444 N.am      4 UNK        -0.5000 
     55 C          -1.4247  -15.6720  -48.1964 C.2       3 UNK         0.5000 
     56 O          -2.4169  -16.3835  -48.0477 O.2       3 UNK        -0.5000 
     57 CA         -0.0385  -16.3308  -48.3352 C.3       3 UNK         0.1400 
     58 CB          0.0868  -17.0114  -49.6993 C.3       3 UNK        -0.1800 
     59 N           1.0994  -15.4203  -48.1783 N.am      3 UNK        -0.5000 
     60 C           1.4461  -14.7730  -47.0619 C.2       2 UNK         0.5000 
     61 O           0.7699  -14.7969  -46.0329 O.2       2 UNK        -0.5000 
     62 CA          2.7776  -13.9953  -47.1004 C.3       2 UNK         0.1400 
     63 CB          3.1190  -13.3517  -45.7444 C.3       2 UNK        -0.1800 
     64 N           3.9021  -14.8415  -47.5060 N.am      2 UNK        -0.5000 
     65 C           4.1952  -15.2283  -48.7563 C.2       1 UNK         0.5000 
     66 O           3.4861  -14.9429  -49.7225 O.2       1 UNK        -0.5000 
     67 C          -1.5359  -22.7279  -47.6018 C.2       11 UNK         0.5000 
     68 O          -1.6686  -23.4694  -48.5777 O.2       11 UNK        -0.5000 
     69 N          -2.5035  -22.5220  -46.6967 N.am      12 UNK        -0.5000 
     70 CA         -3.7781  -23.2364  -46.6781 C.3       12 UNK         0.1400 
     71 CB         -4.7859  -22.5239  -45.7657 C.3       12 UNK        -0.1800 
     72 C          -3.6165  -24.7107  -46.2812 C.2       12 UNK         0.5000 
     73 O          -4.1775  -25.5740  -46.9551 O.2       12 UNK        -0.5000 
     74 N          -2.8211  -24.9824  -45.2356 N.am      13 UNK        -0.5000 
     75 CA         -2.4914  -26.3348  -44.7723 C.3       13 UNK         0.1400 
     76 CB         -1.7121  -26.2534  -43.4513 C.3       13 UNK        -0.1800 
     77 C          -1.7117  -27.1565  -45.8173 C.2       13 UNK         0.5000 
     78 O          -1.9568  -28.3549  -45.9580 O.2       13 UNK        -0.5000 
     79 N          -0.8211  -26.4863  -46.5604 N.am      14 UNK        -0.5000 
     80 CA         -0.0855  -27.0399  -47.6989 C.3       14 UNK         0.1400 
     81 CB          1.0997  -26.1120  -48.0117 C.3       14 UNK        -0.1800 
     82 C          -0.9518  -27.2330  -48.9621 C.2       14 UNK         0.5000 
     83 O          -0.5000  -27.8923  -49.8987 O.2       14 UNK        -0.5000 
     84 N          -2.1526  -26.6323  -48.9821 N.am      15 UNK        -0.5000 
     85 CA         -3.1114  -26.5652  -50.0922 C.3       15 UNK         0.1400 
     86 CB         -3.6421  -27.9664  -50.4572 C.3       15 UNK        -0.1800 
     87 C          -2.5859  -25.7825  -51.3160 C.2       15 UNK         0.5000 
     88 O          -3.0990  -25.9515  -52.4230 O.2       15 UNK        -0.5000 
     89 N          -1.5898  -24.9172  -51.0897 N.am      16 UNK        -0.5000 
     90 CA         -1.0188  -24.0050  -52.0784 C.3       16 UNK         0.1400 
     91 CB          0.3947  -23.6135  -51.6255 C.3       16 UNK        -0.1800 
     92 C          -1.8928  -22.7520  -52.2559 C.2       16 UNK         0.5000 
     93 O          -1.9681  -22.2096  -53.3580 O.2       16 UNK        -0.5000 
     94 N          -2.5489  -22.3335  -51.1679 N.am      17 UNK        -0.5000 
     95 CA         -3.5029  -21.2353  -51.1197 C.3       17 UNK         0.1400 
     96 CB         -2.7807  -19.9377  -50.7141 C.3       17 UNK        -0.1800 
     97 C          -4.6063  -21.6477  -50.1388 C.2       17 UNK         0.5000 
     98 O          -4.7126  -21.0721  -49.0568 O.2       17 UNK        -0.5000 
     99 N          -5.3805  -22.6726  -50.5271 N.am      18 UNK        -0.5000 
    100 CA        -6.3753  -23.3993  -49.7212 C.3       18 UNK         0.1400 
    101 CB        -7.1348  -24.3707  -50.6372 C.3       18 UNK        -0.1800 
    102 C         -7.3689  -22.5353  -48.9146 C.2       18 UNK         0.5000 
    103 O         -7.7805  -22.9462  -47.8295 O.2       18 UNK        -0.5000 
    104 N         -7.7131  -21.3565  -49.4448 N.am      19 UNK        -0.5000 
    105 CA        -8.5231  -20.3356  -48.7801 C.3       19 UNK         0.1400 
    106 CB        -9.9721  -20.4232  -49.2955 C.3       19 UNK        -0.1800 
    107 C         -7.8951  -18.9407  -48.9735 C.2       19 UNK         0.5000 
    108 O         -8.6220  -17.9675  -49.1777 O.2       19 UNK        -0.5000 
    109 N         -6.5518  -18.8746  -48.9476 N.am      20 UNK        -0.5000 
    110 CA        -5.7116  -17.6917  -49.2036 C.3       20 UNK         0.1400 
    111 CB        -5.9287  -16.6163  -48.1194 C.3       20 UNK        -0.1800 
    112 C         -5.8763  -17.1410  -50.6405 C.2       20 UNK         0.5000 
    113 O         -5.7423  -15.9378  -50.8712 O.2       20 UNK        -0.5000 
    114 N         -6.1885  -18.0485  -51.5781 N.am      21 UNK        -0.5000 
    115 CA        -6.6754  -17.7761  -52.9326 C.3       21 UNK         0.1400 
    116 CB        -6.9993  -19.1150  -53.6141 C.3       21 UNK        -0.1800 
    117 C         -5.7421  -16.9337  -53.8204 C.2       21 UNK         0.5000 
    118 O         -6.2355  -16.1890  -54.6686 O.2       21 UNK        -0.5000 
    119 N         -4.4258  -17.0584  -53.6142 N.am      22 UNK        -0.5000 
    120 CA        -3.4043  -16.2594  -54.3087 C.3       22 UNK         0.1400 
    121 C         -3.1749  -14.8377  -53.7091 C.2       22 UNK         0.5000 
    122 N         -3.8185  -14.4566  -52.6106 N.am      22 UNK        -0.7600 
    123 O         -2.4136  -14.0527  -54.2680 O.2       22 UNK        -0.5000 
    124 C124       -2.0887  -17.0550  -54.5092 C.3       23 UNK        -0.0398 
    125 S125       -1.2382  -17.4921  -52.9579 S.3       23 UNK        -0.2404 
    126 C126       -0.0743  -18.7639  -53.5405 C.3       23 UNK        -0.0205 
    127 H127        7.7324  -14.3433  -45.4735 H         1 UNK         0.0600 
    128 H128        9.0592  -14.8755  -46.5118 H         1 UNK         0.0600 
    129 H129        7.9619  -16.0630  -45.8025 H         1 UNK         0.0600 
    130 H130        6.4990  -16.8466  -47.2735 H         1 UNK         0.3000 
    131 H131        5.1059  -17.1149  -48.9150 H         1 UNK         0.0600 
    132 H132        5.7983  -14.9641  -50.8462 H         1 UNK         0.0800 
    133 H133        7.2272  -15.6718  -50.2018 H         1 UNK         0.0800 
    134 H134        4.6918  -17.0302  -53.3990 H         1 UNK         0.0800 
    135 H135        4.1221  -15.9808  -52.1310 H         1 UNK         0.0800 
    136 H136        2.1617  -17.2444  -53.6646 H         1 UNK         0.1150 
    137 H137        0.3930  -20.4340  -51.4195 H         1 UNK         0.1150 
    138 H138        4.2305  -18.9206  -50.2977 H         1 UNK         0.1150 
    139 H139        3.4371  -20.9749  -49.3458 H         1 UNK         0.0800 
    140 H140        1.9275  -21.6905  -49.8210 H         1 UNK         0.0800 
    141 H141       -0.7457  -19.9650  -47.7486 H         1 UNK         0.0800 
    142 H142       -0.3294  -20.8515  -49.1972 H         1 UNK         0.0800 
    143 H143        0.5762  -22.7159  -47.7760 H         1 UNK         0.0600 
    144 H144        0.1873  -20.9288  -45.5889 H         1 UNK         0.3000 
    145 H145        0.5134  -23.4614  -43.0490 H         1 UNK         0.0600 
    146 H146        2.7810  -22.7194  -43.7443 H         1 UNK         0.0600 
    147 H147        2.2185  -21.7884  -42.3649 H         1 UNK         0.0600 
    148 H148        2.2039  -21.0758  -43.9773 H         1 UNK         0.0600 
    149 H149       -0.0577  -20.6276  -43.0372 H         1 UNK         0.3000 
    150 H150       -3.5941  -20.9547  -42.7223 H         1 UNK         0.0600 
    151 H151       -1.4478  -20.1967  -40.6669 H         1 UNK         0.0600 
    152 H152       -2.6991  -21.4116  -40.4332 H         1 UNK         0.0600 
    153 H153       -3.1463  -19.7236  -40.6208 H         1 UNK         0.0600 
    154 H154       -1.8614  -18.6894  -42.6038 H         1 UNK         0.3000 
    155 H155       -1.7767  -18.0175  -46.1044 H         1 UNK         0.0600 
    156 H156       -2.7747  -15.8764  -45.3207 H         1 UNK         0.0600 
    157 H157       -3.2740  -16.6370  -43.8113 H         1 UNK         0.0600 
    158 H158       -3.9805  -17.1496  -45.3402 H         1 UNK         0.0600 
    159 H159       -0.7195  -16.4694  -44.0301 H         1 UNK         0.3000 
    160 H160        2.0152  -17.9875  -43.0405 H         1 UNK         0.0600 
    161 H161        2.6169  -17.0291  -45.8770 H         1 UNK         0.0600 
    162 H162        3.2081  -18.4721  -45.0817 H         1 UNK         0.0600 
    163 H163        3.7590  -16.8951  -44.5383 H         1 UNK         0.0600 
    164 H164        1.2629  -15.3577  -44.2720 H         1 UNK         0.3000 
    165 H165        0.5472  -14.0148  -41.1001 H         1 UNK         0.0600 
    166 H166        2.2737  -12.2846  -41.4469 H         1 UNK         0.0600 
    167 H167        3.0348  -13.7832  -40.9420 H         1 UNK         0.0600 
    168 H168        3.1014  -13.2966  -42.6306 H         1 UNK         0.0600 
    169 H169        0.8253  -12.5171  -43.3950 H         1 UNK         0.3000 
    170 H170       -2.4981  -12.4872  -43.9688 H         1 UNK         0.0600 
    171 H171       -1.3909  -10.5893  -45.0977 H         1 UNK         0.0600 
    172 H172        0.1724  -11.3877  -45.0162 H         1 UNK         0.0600 
    173 H173       -0.6372  -10.8530  -43.5394 H         1 UNK         0.0600 
    174 H174       -0.9472  -13.8613  -46.0455 H         1 UNK         0.3000 
    175 H175       -3.5594  -14.1187  -48.1544 H         1 UNK         0.0600 
    176 H176       -3.5700  -11.7718  -48.9397 H         1 UNK         0.0600 
    177 H177       -1.8110  -11.7202  -48.9181 H         1 UNK         0.0600 
    178 H178       -2.6549  -12.7711  -50.0556 H         1 UNK         0.0600 
    179 H179       -0.6025  -13.8395  -48.3919 H         1 UNK         0.3000 
    180 H180        0.0406  -17.0960  -47.5605 H         1 UNK         0.0600 
    181 H181       -0.0100  -16.2937  -50.5143 H         1 UNK         0.0600 
    182 H182       -0.6782  -17.7771  -49.8337 H         1 UNK         0.0600 
    183 H183        1.0557  -17.4957  -49.7998 H         1 UNK         0.0600 
    184 H184        1.7320  -15.3454  -48.9699 H         1 UNK         0.3000 
    185 H185        2.6606  -13.1926  -47.8312 H         1 UNK         0.0600 
    186 H186        2.3243  -12.6821  -45.4144 H         1 UNK         0.0600 
    187 H187        3.2629  -14.1038  -44.9681 H         1 UNK         0.0600 
    188 H188        4.0320  -12.7596  -45.8088 H         1 UNK         0.0600 
    189 H189        4.5247  -15.1373  -46.7692 H         1 UNK         0.3000 
    190 H190       -2.3711  -21.8185  -45.9765 H         1 UNK         0.3000 
    191 H191       -4.1775  -23.2218  -47.6895 H         1 UNK         0.0600 
    192 H192       -5.0000  -21.5197  -46.1321 H         1 UNK         0.0600 
    193 H193       -5.7335  -23.0630  -45.7333 H         1 UNK         0.0600 
    194 H194       -4.4178  -22.4395  -44.7431 H         1 UNK         0.0600 
    195 H195       -2.4260  -24.2139  -44.7026 H         1 UNK         0.3000 
    196 H196       -3.4310  -26.8564  -44.5791 H         1 UNK         0.0600 
    197 H197       -1.4684  -27.2491  -43.0788 H         1 UNK         0.0600 
    198 H198       -2.2966  -25.7522  -42.6797 H         1 UNK         0.0600 
    199 H199       -0.7756  -25.7077  -43.5684 H         1 UNK         0.0600 
    200 H200       -0.6139  -25.5228  -46.3117 H         1 UNK         0.3000 
    201 H201        0.3078  -28.0181  -47.4152 H         1 UNK         0.0600 
    202 H202        1.7087  -26.5114  -48.8236 H         1 UNK         0.0600 
    203 H203        1.7506  -25.9963  -47.1448 H         1 UNK         0.0600 
    204 H204        0.7628  -25.1195  -48.3123 H         1 UNK         0.0600 
    205 H205       -2.4371  -26.1311  -48.1498 H         1 UNK         0.3000 
    206 H206       -3.9566  -25.9866  -49.7170 H         1 UNK         0.0600 
    207 H207       -4.0087  -28.4901  -49.5743 H         1 UNK         0.0600 
    208 H208       -4.4727  -27.8989  -51.1606 H         1 UNK         0.0600 
    209 H209       -2.8730  -28.5848  -50.9204 H         1 UNK         0.0600 
    210 H210       -1.2906  -24.7874  -50.1304 H         1 UNK         0.3000 
    211 H211       -0.9481  -24.5129  -53.0425 H         1 UNK         0.0600 
    212 H212        0.3773  -23.1487  -50.6402 H         1 UNK         0.0600 
    213 H213        0.8511  -22.9070  -52.3203 H         1 UNK         0.0600 
    214 H214        1.0461  -24.4859  -51.5712 H         1 UNK         0.0600 
    215 H215       -2.4173  -22.8436  -50.2992 H         1 UNK         0.3000 
    216 H216       -3.9603  -21.0910  -52.1010 H         1 UNK         0.0600 
    217 H217       -3.4244  -19.0718  -50.8590 H         1 UNK         0.0600 
    218 H218       -1.8908  -19.7813  -51.3195 H         1 UNK         0.0600 
    219 H219       -2.4699  -19.9453  -49.6696 H         1 UNK         0.0600 
    220 H220       -5.2027  -23.0644  -51.4409 H         1 UNK         0.3000 
    221 H221       -5.8236  -24.0026  -48.9997 H         1 UNK         0.0600 
    222 H222       -7.6708  -23.8421  -51.4264 H         1 UNK         0.0600 
    223 H223       -6.4564  -25.0822  -51.1086 H         1 UNK         0.0600 
    224 H224       -7.8677  -24.9499  -50.0735 H         1 UNK         0.0600 
    225 H225       -7.3385  -21.1143  -50.3493 H         1 UNK         0.3000 
    226 H226       -8.5333  -20.5103  -47.7023 H         1 UNK         0.0600 
    227 H227      -10.3909  -21.4149  -49.1238 H         1 UNK         0.0600 
    228 H228      -10.0301  -20.2155  -50.3645 H         1 UNK         0.0600 
    229 H229      -10.6170  -19.7081  -48.7833 H         1 UNK         0.0600 
    230 H230       -6.0323  -19.7330  -48.7747 H         1 UNK         0.3000 
    231 H231       -4.6773  -18.0273  -49.1195 H         1 UNK         0.0600 
    232 H232       -6.9206  -16.1684  -48.1799 H         1 UNK         0.0600 
    233 H233       -5.2019  -15.8111  -48.2217 H         1 UNK         0.0600 
    234 H234       -5.8070  -17.0346  -47.1206 H         1 UNK         0.0600 
    235 H235       -6.2635  -19.0048  -51.2738 H         1 UNK         0.3000 
    236 H236       -7.6066  -17.2155  -52.8285 H         1 UNK         0.0600 
    237 H237       -6.1142  -19.7466  -53.7005 H         1 UNK         0.0600 
    238 H238       -7.7568  -19.6690  -53.0592 H         1 UNK         0.0600 
    239 H239       -7.3891  -18.9577  -54.6208 H         1 UNK         0.0600 
    240 H240       -4.0952  -17.6690  -52.8828 H         1 UNK         0.3000 
    241 H241       -3.7782  -16.0664  -55.3161 H         1 UNK         0.0600 
    242 H242       -4.4661  -15.0745  -52.1322 H         1 UNK         0.3800 
    243 H243       -3.6653  -13.5284  -52.2526 H         1 UNK         0.3800 
    244 H244       -1.3954  -16.4903  -55.1348 H         1 UNK         0.0800 
    245 H245       -2.3029  -17.9733  -55.0578 H         1 UNK         0.0800 
    246 H246       -0.5807  -19.7296  -53.5790 H         1 UNK         0.0800 
    247 H247        0.2413  -18.5390  -54.5604 H         1 UNK         0.0800 
@<TRIPOS>BOND
     1    1    2 1    
     2    1  127 1    
     3    1  128 1    
     4    1  129 1    
     5    2    3 2    
     6    2    4 am   BACKBONE|DICT|INTERRES
     7    4    5 1    
     8    4  130 1    
     9    5    6 1    
    10    5   65 1    
    11    5  131 1    
    12    6    7 1    
    13    6  132 1    
    14    6  133 1    
    15    7    8 1    
    16    8    9 1    
    17    8  134 1    
    18    8  135 1    
    19    9   10 ar   
    20    9   14 ar   
    21   10   11 ar   
    22   10  136 1    
    23   11   12 ar   
    24   11  126 1    
    25   12   13 ar   
    26   12  137 1    
    27   13   14 ar   
    28   13   15 1    
    29   14  138 1    
    30   15   16 1    
    31   15  139 1    
    32   15  140 1    
    33   16   17 1    
    34   17   18 1    
    35   17  141 1    
    36   17  142 1    
    37   18   19 1    
    38   18   67 1    
    39   18  143 1    
    40   19   20 am   BACKBONE|DICT|INTERRES
    41   19  144 1    
    42   20   21 2    
    43   20   22 1    
    44   22   23 1    
    45   22   24 1    
    46   22  145 1    
    47   23  146 1    
    48   23  147 1    
    49   23  148 1    
    50   24   25 am   BACKBONE|DICT|INTERRES
    51   24  149 1    
    52   25   26 2    
    53   25   27 1    
    54   27   28 1    
    55   27   29 1    
    56   27  150 1    
    57   28  151 1    
    58   28  152 1    
    59   28  153 1    
    60   29   30 am   BACKBONE|DICT|INTERRES
    61   29  154 1    
    62   30   31 2    
    63   30   32 1    
    64   32   33 1    
    65   32   34 1    
    66   32  155 1    
    67   33  156 1    
    68   33  157 1    
    69   33  158 1    
    70   34   35 am   BACKBONE|DICT|INTERRES
    71   34  159 1    
    72   35   36 2    
    73   35   37 1    
    74   37   38 1    
    75   37   39 1    
    76   37  160 1    
    77   38  161 1    
    78   38  162 1    
    79   38  163 1    
    80   39   40 am   BACKBONE|DICT|INTERRES
    81   39  164 1    
    82   40   41 2    
    83   40   42 1    
    84   42   43 1    
    85   42   44 1    
    86   42  165 1    
    87   43  166 1    
    88   43  167 1    
    89   43  168 1    
    90   44   45 am   BACKBONE|DICT|INTERRES
    91   44  169 1    
    92   45   46 2    
    93   45   47 1    
    94   47   48 1    
    95   47   49 1    
    96   47  170 1    
    97   48  171 1    
    98   48  172 1    
    99   48  173 1    
   100   49   50 am   BACKBONE|DICT|INTERRES
   101   49  174 1    
   102   50   51 2    
   103   50   52 1    
   104   52   53 1    
   105   52   54 1    
   106   52  175 1    
   107   53  176 1    
   108   53  177 1    
   109   53  178 1    
   110   54   55 am   BACKBONE|DICT|INTERRES
   111   54  179 1    
   112   55   56 2    
   113   55   57 1    
   114   57   58 1    
   115   57   59 1    
   116   57  180 1    
   117   58  181 1    
   118   58  182 1    
   119   58  183 1    
   120   59   60 am   BACKBONE|DICT|INTERRES
   121   59  184 1    
   122   60   61 2    
   123   60   62 1    
   124   62   63 1    
   125   62   64 1    
   126   62  185 1    
   127   63  186 1    
   128   63  187 1    
   129   63  188 1    
   130   64   65 am   BACKBONE|DICT|INTERRES
   131   64  189 1    
   132   65   66 2    
   133   67   68 2    
   134   67   69 am   BACKBONE|DICT|INTERRES
   135   69   70 1    
   136   69  190 1    
   137   70   71 1    
   138   70   72 1    
   139   70  191 1    
   140   71  192 1    
   141   71  193 1    
   142   71  194 1    
   143   72   73 2    
   144   72   74 am   BACKBONE|DICT|INTERRES
   145   74   75 1    
   146   74  195 1    
   147   75   76 1    
   148   75   77 1    
   149   75  196 1    
   150   76  197 1    
   151   76  198 1    
   152   76  199 1    
   153   77   78 2    
   154   77   79 am   BACKBONE|DICT|INTERRES
   155   79   80 1    
   156   79  200 1    
   157   80   81 1    
   158   80   82 1    
   159   80  201 1    
   160   81  202 1    
   161   81  203 1    
   162   81  204 1    
   163   82   83 2    
   164   82   84 am   BACKBONE|DICT|INTERRES
   165   84   85 1    
   166   84  205 1    
   167   85   86 1    
   168   85   87 1    
   169   85  206 1    
   170   86  207 1    
   171   86  208 1    
   172   86  209 1    
   173   87   88 2    
   174   87   89 am   BACKBONE|DICT|INTERRES
   175   89   90 1    
   176   89  210 1    
   177   90   91 1    
   178   90   92 1    
   179   90  211 1    
   180   91  212 1    
   181   91  213 1    
   182   91  214 1    
   183   92   93 2    
   184   92   94 am   BACKBONE|DICT|INTERRES
   185   94   95 1    
   186   94  215 1    
   187   95   96 1    
   188   95   97 1    
   189   95  216 1    
   190   96  217 1    
   191   96  218 1    
   192   96  219 1    
   193   97   98 2    
   194   97   99 am   BACKBONE|DICT|INTERRES
   195   99  100 1    
   196   99  220 1    
   197  100  101 1    
   198  100  102 1    
   199  100  221 1    
   200  101  222 1    
   201  101  223 1    
   202  101  224 1    
   203  102  103 2    
   204  102  104 am   BACKBONE|DICT|INTERRES
   205  104  105 1    
   206  104  225 1    
   207  105  106 1    
   208  105  107 1    
   209  105  226 1    
   210  106  227 1    
   211  106  228 1    
   212  106  229 1    
   213  107  108 2    
   214  107  109 am   BACKBONE|DICT|INTERRES
   215  109  110 1    
   216  109  230 1    
   217  110  111 1    
   218  110  112 1    
   219  110  231 1    
   220  111  232 1    
   221  111  233 1    
   222  111  234 1    
   223  112  113 2    
   224  112  114 am   BACKBONE|DICT|INTERRES
   225  114  115 1    
   226  114  235 1    
   227  115  116 1    
   228  115  117 1    
   229  115  236 1    
   230  116  237 1    
   231  116  238 1    
   232  116  239 1    
   233  117  118 2    
   234  117  119 am   BACKBONE|DICT|INTERRES
   235  119  120 1    
   236  119  240 1    
   237  120  121 1    
   238  120  124 1    
   239  120  241 1    
   240  121  122 am   BACKBONE|DICT|INTERRES
   241  121  123 2    
   242  122  242 1    
   243  122  243 1    
   244  124  125 1    
   245  124  244 1    
   246  124  245 1    
   247  125  126 1    
   248  126  246 1    
   249  126  247 1    
@<TRIPOS>SUBSTRUCTURE
     1 UNK         1 GROUP             0       ****    0 ROOT    
