@<TRIPOS>MOLECULE
3R540
247   249    1
SMALL
USER_CHARGES


@<TRIPOS>ATOM
      1 CA         -0.2132  -17.3626  -49.2218 C.3       0 UNK        -0.1800 
      2 C          -0.9325  -16.0314  -49.0893 C.2       0 UNK         0.5000 
      3 O          -2.1339  -16.0006  -48.8253 O.2       0 UNK        -0.5000 
      4 N          -0.1928  -14.9327  -49.2736 N.am      1 UNK        -0.5000 
      5 CA         -0.6611  -13.5536  -49.1285 C.3       1 UNK         0.1400 
      6 C6          0.4139  -12.5398  -49.5846 C.3       23 UNK        -0.0398 
      7 S7          0.7031  -12.5897  -51.3850 S.3       23 UNK        -0.2404 
      8 C8          2.3262  -13.4145  -51.5163 C.3       23 UNK        -0.0205 
      9 C9          2.2339  -14.9362  -51.5706 C.ar      23 UNK        -0.0193 
     10 C10         1.4105  -15.5588  -52.5134 C.ar      23 UNK        -0.1150 
     11 C11         1.3825  -16.9499  -52.6273 C.ar      23 UNK        -0.0193 
     12 C12         2.1913  -17.7248  -51.7914 C.ar      23 UNK        -0.1150 
     13 C13         3.0194  -17.1221  -50.8335 C.ar      23 UNK        -0.0193 
     14 C14         3.0273  -15.7253  -50.7305 C.ar      23 UNK        -0.1150 
     15 C15         3.9664  -17.9303  -49.9413 C.3       23 UNK        -0.0205 
     16 S16         3.5320  -19.6919  -49.7092 S.3       23 UNK        -0.2404 
     17 C17         2.7384  -19.6835  -48.0673 C.3       23 UNK        -0.0398 
     18 CA          2.0404  -21.0303  -47.7426 C.3       11 UNK         0.1400 
     19 N           2.0136  -21.3008  -46.3022 N.am      11 UNK        -0.5000 
     20 C           1.7356  -22.4916  -45.7514 C.2       10 UNK         0.5000 
     21 O           1.5499  -23.5207  -46.4009 O.2       10 UNK        -0.5000 
     22 CA          1.6044  -22.5340  -44.2163 C.3       10 UNK         0.1400 
     23 CB          2.9751  -22.7363  -43.5537 C.3       10 UNK        -0.1800 
     24 N           0.9644  -21.3347  -43.6718 N.am      10 UNK        -0.5000 
     25 C          -0.3046  -20.9790  -43.9189 C.2       9 UNK         0.5000 
     26 O          -1.0888  -21.6689  -44.5700 O.2       9 UNK        -0.5000 
     27 CA         -0.7551  -19.5974  -43.4105 C.3       9 UNK         0.1400 
     28 CB         -1.1663  -19.6615  -41.9330 C.3       9 UNK        -0.1800 
     29 N           0.2711  -18.5702  -43.5919 N.am      9 UNK        -0.5000 
     30 C           0.7423  -18.1611  -44.7777 C.2       8 UNK         0.5000 
     31 O           0.3140  -18.5649  -45.8556 O.2       8 UNK        -0.5000 
     32 CA          1.9234  -17.1773  -44.7590 C.3       8 UNK         0.1400 
     33 CB          1.4438  -15.7325  -44.5654 C.3       8 UNK        -0.1800 
     34 N           2.8990  -17.5204  -43.7260 N.am      8 UNK        -0.5000 
     35 C           3.7020  -18.5920  -43.7790 C.2       7 UNK         0.5000 
     36 O           3.7256  -19.3790  -44.7245 O.2       7 UNK        -0.5000 
     37 CA          4.5974  -18.8459  -42.5528 C.3       7 UNK         0.1400 
     38 CB          5.8887  -18.0197  -42.6453 C.3       7 UNK        -0.1800 
     39 N           3.9172  -18.5449  -41.2920 N.am      7 UNK        -0.5000 
     40 C           2.8802  -19.2433  -40.8082 C.2       6 UNK         0.5000 
     41 O           2.4116  -20.2395  -41.3580 O.2       6 UNK        -0.5000 
     42 CA          2.2238  -18.7019  -39.5236 C.3       6 UNK         0.1400 
     43 CB          2.9737  -19.2019  -38.2801 C.3       6 UNK        -0.1800 
     44 N           2.1391  -17.2375  -39.4883 N.am      6 UNK        -0.5000 
     45 C           1.4569  -16.5002  -40.3740 C.2       5 UNK         0.5000 
     46 O           0.8546  -16.9785  -41.3369 O.2       5 UNK        -0.5000 
     47 CA          1.5100  -14.9750  -40.1970 C.3       5 UNK         0.1400 
     48 CB          2.7523  -14.4035  -40.8986 C.3       5 UNK        -0.1800 
     49 N           0.3182  -14.3558  -40.7735 N.am      5 UNK        -0.5000 
     50 C          -0.8632  -14.2558  -40.1514 C.2       4 UNK         0.5000 
     51 O          -1.0523  -14.5829  -38.9789 O.2       4 UNK        -0.5000 
     52 CA         -2.0304  -13.6988  -40.9854 C.3       4 UNK         0.1400 
     53 CB         -2.0082  -12.1623  -40.9948 C.3       4 UNK        -0.1800 
     54 N          -2.0120  -14.1857  -42.3654 N.am      4 UNK        -0.5000 
     55 C          -2.4244  -15.4023  -42.7505 C.2       3 UNK         0.5000 
     56 O          -2.8523  -16.2506  -41.9670 O.2       3 UNK        -0.5000 
     57 CA         -2.3488  -15.7187  -44.2620 C.3       3 UNK         0.1400 
     58 CB         -3.4377  -16.7084  -44.7261 C.3       3 UNK        -0.1800 
     59 N          -2.3252  -14.5261  -45.1197 N.am      3 UNK        -0.5000 
     60 C          -3.2822  -13.5993  -45.2688 C.2       2 UNK         0.5000 
     61 O          -4.3628  -13.6291  -44.6797 O.2       2 UNK        -0.5000 
     62 CA         -2.9879  -12.4257  -46.2268 C.3       2 UNK         0.1400 
     63 CB         -2.2353  -11.2979  -45.4938 C.3       2 UNK        -0.1800 
     64 N          -2.3152  -12.7911  -47.4836 N.am      2 UNK        -0.5000 
     65 C          -1.0779  -13.2711  -47.6712 C.2       1 UNK         0.5000 
     66 O          -0.2794  -13.4961  -46.7594 O.2       1 UNK        -0.5000 
     67 C           0.6327  -21.1163  -48.3755 C.2       11 UNK         0.5000 
     68 O           0.5099  -21.5817  -49.5071 O.2       11 UNK        -0.5000 
     69 N          -0.3993  -20.6804  -47.6371 N.am      12 UNK        -0.5000 
     70 CA         -1.7995  -20.7260  -48.0567 C.3       12 UNK         0.1400 
     71 CB         -2.6444  -19.7799  -47.1868 C.3       12 UNK        -0.1800 
     72 C          -2.3909  -22.1427  -48.0346 C.2       12 UNK         0.5000 
     73 O          -3.1530  -22.4883  -48.9390 O.2       12 UNK        -0.5000 
     74 N          -2.0180  -22.9272  -47.0153 N.am      13 UNK        -0.5000 
     75 CA         -2.4474  -24.3020  -46.7517 C.3       13 UNK         0.1400 
     76 CB         -1.9884  -25.2414  -47.8897 C.3       13 UNK        -0.1800 
     77 C          -3.9588  -24.4170  -46.4479 C.2       13 UNK         0.5000 
     78 O          -4.6248  -23.4125  -46.1773 O.2       13 UNK        -0.5000 
     79 N          -4.4690  -25.6562  -46.4554 N.am      14 UNK        -0.5000 
     80 CA         -5.8671  -25.9989  -46.1930 C.3       14 UNK         0.1400 
     81 CB         -6.0271  -27.5263  -46.2260 C.3       14 UNK        -0.1800 
     82 C          -6.8214  -25.3319  -47.1989 C.2       14 UNK         0.5000 
     83 O          -6.5833  -25.4078  -48.4063 O.2       14 UNK        -0.5000 
     84 N          -7.8593  -24.6641  -46.6746 N.am      15 UNK        -0.5000 
     85 CA         -8.9011  -23.9248  -47.4035 C.3       15 UNK         0.1400 
     86 CB         -9.7974  -24.9063  -48.1878 C.3       15 UNK        -0.1800 
     87 C          -8.3692  -22.7812  -48.2999 C.2       15 UNK         0.5000 
     88 O          -9.0801  -22.3424  -49.2054 O.2       15 UNK        -0.5000 
     89 N          -7.1285  -22.3335  -48.0455 N.am      16 UNK        -0.5000 
     90 CA         -6.3460  -21.3826  -48.8421 C.3       16 UNK         0.1400 
     91 CB         -6.9799  -19.9766  -48.8038 C.3       16 UNK        -0.1800 
     92 C          -6.0614  -21.8763  -50.2807 C.2       16 UNK         0.5000 
     93 O          -5.8614  -21.0593  -51.1814 O.2       16 UNK        -0.5000 
     94 N          -6.0422  -23.2026  -50.4847 N.am      17 UNK        -0.5000 
     95 CA         -5.8896  -23.8376  -51.7941 C.3       17 UNK         0.1400 
     96 CB         -6.1182  -25.3496  -51.6579 C.3       17 UNK        -0.1800 
     97 C          -4.5360  -23.5557  -52.4683 C.2       17 UNK         0.5000 
     98 O          -4.4965  -23.3555  -53.6827 O.2       17 UNK        -0.5000 
     99 N          -3.4551  -23.5119  -51.6785 N.am      18 UNK        -0.5000 
    100 CA        -2.1132  -23.2157  -52.1767 C.3       18 UNK         0.1400 
    101 CB        -1.0553  -23.8429  -51.2596 C.3       18 UNK        -0.1800 
    102 C         -1.8870  -21.7080  -52.3926 C.2       18 UNK         0.5000 
    103 O         -1.0777  -21.3536  -53.2483 O.2       18 UNK        -0.5000 
    104 N         -2.6424  -20.8481  -51.6889 N.am      19 UNK        -0.5000 
    105 CA        -2.7060  -19.4093  -51.9693 C.3       19 UNK         0.1400 
    106 CB        -3.3913  -18.6446  -50.8241 C.3       19 UNK        -0.1800 
    107 C         -3.4291  -19.1261  -53.2958 C.2       19 UNK         0.5000 
    108 O         -2.9670  -18.2919  -54.0736 O.2       19 UNK        -0.5000 
    109 N         -4.5412  -19.8380  -53.5289 N.am      20 UNK        -0.5000 
    110 CA        -5.3335  -19.7643  -54.7550 C.3       20 UNK         0.1400 
    111 CB        -6.6476  -20.5367  -54.5624 C.3       20 UNK        -0.1800 
    112 C         -4.5666  -20.2756  -55.9885 C.2       20 UNK         0.5000 
    113 O         -4.6305  -19.6427  -57.0433 O.2       20 UNK        -0.5000 
    114 N         -3.8504  -21.3982  -55.8327 N.am      21 UNK        -0.5000 
    115 CA        -3.0063  -21.9856  -56.8720 C.3       21 UNK         0.1400 
    116 CB        -2.6543  -23.4336  -56.4943 C.3       21 UNK        -0.1800 
    117 C         -1.7366  -21.1537  -57.1296 C.2       21 UNK         0.5000 
    118 O         -1.5012  -20.7393  -58.2651 O.2       21 UNK        -0.5000 
    119 N         -0.9488  -20.9272  -56.0691 N.am      22 UNK        -0.5000 
    120 CA         0.3241  -20.1878  -56.0679 C.3       22 UNK         0.1400 
    121 C          1.4441  -20.7915  -56.9751 C.2       22 UNK         0.5000 
    122 N          1.4278  -22.0905  -57.2503 N.am      22 UNK        -0.7600 
    123 O          2.3493  -20.0931  -57.4233 O.2       22 UNK        -0.5000 
    124 C124        0.1071  -18.6581  -56.2446 C.3       23 UNK        -0.0398 
    125 S125        1.3099  -17.6685  -55.2914 S.3       23 UNK        -0.2404 
    126 C126        0.4928  -17.6122  -53.6672 C.3       23 UNK        -0.0205 
    127 H127       -0.4573  -17.8413  -50.1694 H         1 UNK         0.0600 
    128 H128       -0.4998  -18.0263  -48.4112 H         1 UNK         0.0600 
    129 H129        0.8650  -17.2309  -49.1688 H         1 UNK         0.0600 
    130 H130        0.7824  -15.0334  -49.5136 H         1 UNK         0.3000 
    131 H131       -1.5390  -13.4358  -49.7675 H         1 UNK         0.0600 
    132 H132        1.3500  -12.6960  -49.0456 H         1 UNK         0.0800 
    133 H133        0.0996  -11.5214  -49.3478 H         1 UNK         0.0800 
    134 H134        2.9763  -13.0849  -50.7046 H         1 UNK         0.0800 
    135 H135        2.8038  -13.0767  -52.4369 H         1 UNK         0.0800 
    136 H136        0.8046  -14.9577  -53.1770 H         1 UNK         0.1150 
    137 H137        2.1798  -18.7988  -51.9066 H         1 UNK         0.1150 
    138 H138        3.6835  -15.2492  -50.0151 H         1 UNK         0.1150 
    139 H139        4.9589  -17.8887  -50.3913 H         1 UNK         0.0800 
    140 H140        4.0569  -17.4526  -48.9644 H         1 UNK         0.0800 
    141 H141        2.0509  -18.8421  -47.9810 H         1 UNK         0.0800 
    142 H142        3.5342  -19.4926  -47.3469 H         1 UNK         0.0800 
    143 H143        2.6357  -21.8319  -48.1861 H         1 UNK         0.0600 
    144 H144        2.2151  -20.5194  -45.6896 H         1 UNK         0.3000 
    145 H145        0.9769  -23.3908  -43.9621 H         1 UNK         0.0600 
    146 H146        2.8787  -22.8379  -42.4726 H         1 UNK         0.0600 
    147 H147        3.4577  -23.6416  -43.9239 H         1 UNK         0.0600 
    148 H148        3.6473  -21.9017  -43.7519 H         1 UNK         0.0600 
    149 H149        1.5302  -20.7493  -43.0651 H         1 UNK         0.3000 
    150 H150       -1.6281  -19.2999  -43.9934 H         1 UNK         0.0600 
    151 H151       -1.9669  -20.3864  -41.7821 H         1 UNK         0.0600 
    152 H152       -1.5308  -18.6954  -41.5835 H         1 UNK         0.0600 
    153 H153       -0.3326  -19.9539  -41.2948 H         1 UNK         0.0600 
    154 H154        0.6332  -18.1353  -42.7459 H         1 UNK         0.3000 
    155 H155        2.4197  -17.2371  -45.7302 H         1 UNK         0.0600 
    156 H156        0.9248  -15.5960  -43.6172 H         1 UNK         0.0600 
    157 H157        0.7560  -15.4509  -45.3619 H         1 UNK         0.0600 
    158 H158        2.2776  -15.0313  -44.5973 H         1 UNK         0.0600 
    159 H159        2.8992  -16.9550  -42.8911 H         1 UNK         0.3000 
    160 H160        4.8677  -19.9040  -42.5511 H         1 UNK         0.0600 
    161 H161        5.6858  -16.9482  -42.6268 H         1 UNK         0.0600 
    162 H162        6.4247  -18.2367  -43.5703 H         1 UNK         0.0600 
    163 H163        6.5626  -18.2484  -41.8195 H         1 UNK         0.0600 
    164 H164        4.2408  -17.7404  -40.7758 H         1 UNK         0.3000 
    165 H165        1.2052  -19.0935  -39.4859 H         1 UNK         0.0600 
    166 H166        2.4635  -18.9017  -37.3646 H         1 UNK         0.0600 
    167 H167        3.0353  -20.2911  -38.2735 H         1 UNK         0.0600 
    168 H168        3.9927  -18.8151  -38.2397 H         1 UNK         0.0600 
    169 H169        2.6225  -16.7759  -38.7312 H         1 UNK         0.3000 
    170 H170        1.5661  -14.7401  -39.1320 H         1 UNK         0.0600 
    171 H171        3.6681  -14.8250  -40.4822 H         1 UNK         0.0600 
    172 H172        2.7494  -14.6163  -41.9681 H         1 UNK         0.0600 
    173 H173        2.8100  -13.3219  -40.7743 H         1 UNK         0.0600 
    174 H174        0.3677  -14.1070  -41.7491 H         1 UNK         0.3000 
    175 H175       -2.9618  -14.0198  -40.5137 H         1 UNK         0.0600 
    176 H176       -1.1069  -11.7727  -41.4697 H         1 UNK         0.0600 
    177 H177       -2.8692  -11.7597  -41.5289 H         1 UNK         0.0600 
    178 H178       -2.0421  -11.7657  -39.9792 H         1 UNK         0.0600 
    179 H179       -1.6916  -13.5436  -43.0744 H         1 UNK         0.3000 
    180 H180       -1.3905  -16.2118  -44.4103 H         1 UNK         0.0600 
    181 H181       -3.3354  -16.9339  -45.7877 H         1 UNK         0.0600 
    182 H182       -4.4408  -16.3150  -44.5611 H         1 UNK         0.0600 
    183 H183       -3.3677  -17.6531  -44.1868 H         1 UNK         0.0600 
    184 H184       -1.4683  -14.3700  -45.6461 H         1 UNK         0.3000 
    185 H185       -3.9579  -12.0244  -46.5251 H         1 UNK         0.0600 
    186 H186       -2.7951  -10.9614  -44.6201 H         1 UNK         0.0600 
    187 H187       -1.2532  -11.6178  -45.1447 H         1 UNK         0.0600 
    188 H188       -2.0949  -10.4326  -46.1415 H         1 UNK         0.0600 
    189 H189       -2.8978  -12.6913  -48.3036 H         1 UNK         0.3000 
    190 H190       -0.2024  -20.2262  -46.7512 H         1 UNK         0.3000 
    191 H191       -1.8343  -20.3809  -49.0876 H         1 UNK         0.0600 
    192 H192       -3.6738  -19.7394  -47.5436 H         1 UNK         0.0600 
    193 H193       -2.2605  -18.7611  -47.2032 H         1 UNK         0.0600 
    194 H194       -2.6730  -20.1057  -46.1472 H         1 UNK         0.0600 
    195 H195       -1.4695  -22.4990  -46.2748 H         1 UNK         0.3000 
    196 H196       -1.9269  -24.6005  -45.8409 H         1 UNK         0.0600 
    197 H197       -2.5852  -25.1079  -48.7927 H         1 UNK         0.0600 
    198 H198       -0.9450  -25.0609  -48.1497 H         1 UNK         0.0600 
    199 H199       -2.0644  -26.2890  -47.5980 H         1 UNK         0.0600 
    200 H200       -3.8649  -26.4239  -46.7077 H         1 UNK         0.3000 
    201 H201       -6.1089  -25.6501  -45.1869 H         1 UNK         0.0600 
    202 H202       -5.7660  -27.9369  -47.2024 H         1 UNK         0.0600 
    203 H203       -7.0574  -27.8152  -46.0139 H         1 UNK         0.0600 
    204 H204       -5.3953  -28.0069  -45.4788 H         1 UNK         0.0600 
    205 H205       -7.9458  -24.6387  -45.6678 H         1 UNK         0.3000 
    206 H206       -9.5211  -23.4455  -46.6448 H         1 UNK         0.0600 
    207 H207      -10.1727  -25.7002  -47.5422 H         1 UNK         0.0600 
    208 H208      -10.6652  -24.3972  -48.6087 H         1 UNK         0.0600 
    209 H209       -9.2595  -25.3720  -49.0143 H         1 UNK         0.0600 
    210 H210       -6.6193  -22.7717  -47.2877 H         1 UNK         0.3000 
    211 H211       -5.3791  -21.3117  -48.3466 H         1 UNK         0.0600 
    212 H212       -6.3148  -19.2334  -49.2428 H         1 UNK         0.0600 
    213 H213       -7.1807  -19.6624  -47.7796 H         1 UNK         0.0600 
    214 H214       -7.9181  -19.9389  -49.3577 H         1 UNK         0.0600 
    215 H215       -6.2025  -23.8236  -49.6983 H         1 UNK         0.3000 
    216 H216       -6.6684  -23.4360  -52.4457 H         1 UNK         0.0600 
    217 H217       -5.3886  -25.8069  -50.9881 H         1 UNK         0.0600 
    218 H218       -6.0362  -25.8474  -52.6249 H         1 UNK         0.0600 
    219 H219       -7.1123  -25.5635  -51.2646 H         1 UNK         0.0600 
    220 H220       -3.5654  -23.5790  -50.6724 H         1 UNK         0.3000 
    221 H221       -1.9962  -23.6921  -53.1520 H         1 UNK         0.0600 
    222 H222       -1.1577  -24.9274  -51.2258 H         1 UNK         0.0600 
    223 H223       -1.1264  -23.4723  -50.2405 H         1 UNK         0.0600 
    224 H224       -0.0489  -23.6207  -51.6163 H         1 UNK         0.0600 
    225 H225       -3.3026  -21.2239  -51.0219 H         1 UNK         0.3000 
    226 H226       -1.6867  -19.0308  -52.0577 H         1 UNK         0.0600 
    227 H227       -4.3601  -19.0680  -50.5693 H         1 UNK         0.0600 
    228 H228       -2.7852  -18.6261  -49.9230 H         1 UNK         0.0600 
    229 H229       -3.5573  -17.6017  -51.0984 H         1 UNK         0.0600 
    230 H230       -4.8894  -20.4505  -52.7975 H         1 UNK         0.3000 
    231 H231       -5.5807  -18.7149  -54.9286 H         1 UNK         0.0600 
    232 H232       -6.4705  -21.5944  -54.3668 H         1 UNK         0.0600 
    233 H233       -7.2749  -20.4675  -55.4519 H         1 UNK         0.0600 
    234 H234       -7.2213  -20.1355  -53.7266 H         1 UNK         0.0600 
    235 H235       -3.9128  -21.9005  -54.9532 H         1 UNK         0.3000 
    236 H236       -3.5801  -22.0155  -57.8009 H         1 UNK         0.0600 
    237 H237       -3.5536  -24.0405  -56.3871 H         1 UNK         0.0600 
    238 H238       -2.0379  -23.8993  -57.2642 H         1 UNK         0.0600 
    239 H239       -2.1045  -23.4869  -55.5547 H         1 UNK         0.0600 
    240 H240       -1.2245  -21.2777  -55.1567 H         1 UNK         0.3000 
    241 H241        0.7036  -20.3451  -55.0582 H         1 UNK         0.0600 
    242 H242        2.1517  -22.4828  -57.8318 H         1 UNK         0.3800 
    243 H243        0.7005  -22.6841  -56.8857 H         1 UNK         0.3800 
    244 H244       -0.8925  -18.3721  -55.9138 H         1 UNK         0.0800 
    245 H245        0.1577  -18.3755  -57.2972 H         1 UNK         0.0800 
    246 H246       -0.4510  -17.0709  -53.7501 H         1 UNK         0.0800 
    247 H247        0.2432  -18.6268  -53.3538 H         1 UNK         0.0800 
@<TRIPOS>BOND
     1    1    2 1    
     2    1  127 1    
     3    1  128 1    
     4    1  129 1    
     5    2    3 2    
     6    2    4 am   BACKBONE|DICT|INTERRES
     7    4    5 1    
     8    4  130 1    
     9    5    6 1    
    10    5   65 1    
    11    5  131 1    
    12    6    7 1    
    13    6  132 1    
    14    6  133 1    
    15    7    8 1    
    16    8    9 1    
    17    8  134 1    
    18    8  135 1    
    19    9   10 ar   
    20    9   14 ar   
    21   10   11 ar   
    22   10  136 1    
    23   11   12 ar   
    24   11  126 1    
    25   12   13 ar   
    26   12  137 1    
    27   13   14 ar   
    28   13   15 1    
    29   14  138 1    
    30   15   16 1    
    31   15  139 1    
    32   15  140 1    
    33   16   17 1    
    34   17   18 1    
    35   17  141 1    
    36   17  142 1    
    37   18   19 1    
    38   18   67 1    
    39   18  143 1    
    40   19   20 am   BACKBONE|DICT|INTERRES
    41   19  144 1    
    42   20   21 2    
    43   20   22 1    
    44   22   23 1    
    45   22   24 1    
    46   22  145 1    
    47   23  146 1    
    48   23  147 1    
    49   23  148 1    
    50   24   25 am   BACKBONE|DICT|INTERRES
    51   24  149 1    
    52   25   26 2    
    53   25   27 1    
    54   27   28 1    
    55   27   29 1    
    56   27  150 1    
    57   28  151 1    
    58   28  152 1    
    59   28  153 1    
    60   29   30 am   BACKBONE|DICT|INTERRES
    61   29  154 1    
    62   30   31 2    
    63   30   32 1    
    64   32   33 1    
    65   32   34 1    
    66   32  155 1    
    67   33  156 1    
    68   33  157 1    
    69   33  158 1    
    70   34   35 am   BACKBONE|DICT|INTERRES
    71   34  159 1    
    72   35   36 2    
    73   35   37 1    
    74   37   38 1    
    75   37   39 1    
    76   37  160 1    
    77   38  161 1    
    78   38  162 1    
    79   38  163 1    
    80   39   40 am   BACKBONE|DICT|INTERRES
    81   39  164 1    
    82   40   41 2    
    83   40   42 1    
    84   42   43 1    
    85   42   44 1    
    86   42  165 1    
    87   43  166 1    
    88   43  167 1    
    89   43  168 1    
    90   44   45 am   BACKBONE|DICT|INTERRES
    91   44  169 1    
    92   45   46 2    
    93   45   47 1    
    94   47   48 1    
    95   47   49 1    
    96   47  170 1    
    97   48  171 1    
    98   48  172 1    
    99   48  173 1    
   100   49   50 am   BACKBONE|DICT|INTERRES
   101   49  174 1    
   102   50   51 2    
   103   50   52 1    
   104   52   53 1    
   105   52   54 1    
   106   52  175 1    
   107   53  176 1    
   108   53  177 1    
   109   53  178 1    
   110   54   55 am   BACKBONE|DICT|INTERRES
   111   54  179 1    
   112   55   56 2    
   113   55   57 1    
   114   57   58 1    
   115   57   59 1    
   116   57  180 1    
   117   58  181 1    
   118   58  182 1    
   119   58  183 1    
   120   59   60 am   BACKBONE|DICT|INTERRES
   121   59  184 1    
   122   60   61 2    
   123   60   62 1    
   124   62   63 1    
   125   62   64 1    
   126   62  185 1    
   127   63  186 1    
   128   63  187 1    
   129   63  188 1    
   130   64   65 am   BACKBONE|DICT|INTERRES
   131   64  189 1    
   132   65   66 2    
   133   67   68 2    
   134   67   69 am   BACKBONE|DICT|INTERRES
   135   69   70 1    
   136   69  190 1    
   137   70   71 1    
   138   70   72 1    
   139   70  191 1    
   140   71  192 1    
   141   71  193 1    
   142   71  194 1    
   143   72   73 2    
   144   72   74 am   BACKBONE|DICT|INTERRES
   145   74   75 1    
   146   74  195 1    
   147   75   76 1    
   148   75   77 1    
   149   75  196 1    
   150   76  197 1    
   151   76  198 1    
   152   76  199 1    
   153   77   78 2    
   154   77   79 am   BACKBONE|DICT|INTERRES
   155   79   80 1    
   156   79  200 1    
   157   80   81 1    
   158   80   82 1    
   159   80  201 1    
   160   81  202 1    
   161   81  203 1    
   162   81  204 1    
   163   82   83 2    
   164   82   84 am   BACKBONE|DICT|INTERRES
   165   84   85 1    
   166   84  205 1    
   167   85   86 1    
   168   85   87 1    
   169   85  206 1    
   170   86  207 1    
   171   86  208 1    
   172   86  209 1    
   173   87   88 2    
   174   87   89 am   BACKBONE|DICT|INTERRES
   175   89   90 1    
   176   89  210 1    
   177   90   91 1    
   178   90   92 1    
   179   90  211 1    
   180   91  212 1    
   181   91  213 1    
   182   91  214 1    
   183   92   93 2    
   184   92   94 am   BACKBONE|DICT|INTERRES
   185   94   95 1    
   186   94  215 1    
   187   95   96 1    
   188   95   97 1    
   189   95  216 1    
   190   96  217 1    
   191   96  218 1    
   192   96  219 1    
   193   97   98 2    
   194   97   99 am   BACKBONE|DICT|INTERRES
   195   99  100 1    
   196   99  220 1    
   197  100  101 1    
   198  100  102 1    
   199  100  221 1    
   200  101  222 1    
   201  101  223 1    
   202  101  224 1    
   203  102  103 2    
   204  102  104 am   BACKBONE|DICT|INTERRES
   205  104  105 1    
   206  104  225 1    
   207  105  106 1    
   208  105  107 1    
   209  105  226 1    
   210  106  227 1    
   211  106  228 1    
   212  106  229 1    
   213  107  108 2    
   214  107  109 am   BACKBONE|DICT|INTERRES
   215  109  110 1    
   216  109  230 1    
   217  110  111 1    
   218  110  112 1    
   219  110  231 1    
   220  111  232 1    
   221  111  233 1    
   222  111  234 1    
   223  112  113 2    
   224  112  114 am   BACKBONE|DICT|INTERRES
   225  114  115 1    
   226  114  235 1    
   227  115  116 1    
   228  115  117 1    
   229  115  236 1    
   230  116  237 1    
   231  116  238 1    
   232  116  239 1    
   233  117  118 2    
   234  117  119 am   BACKBONE|DICT|INTERRES
   235  119  120 1    
   236  119  240 1    
   237  120  121 1    
   238  120  124 1    
   239  120  241 1    
   240  121  122 am   BACKBONE|DICT|INTERRES
   241  121  123 2    
   242  122  242 1    
   243  122  243 1    
   244  124  125 1    
   245  124  244 1    
   246  124  245 1    
   247  125  126 1    
   248  126  246 1    
   249  126  247 1    
@<TRIPOS>SUBSTRUCTURE
     1 UNK         1 GROUP             0       ****    0 ROOT    
