@<TRIPOS>MOLECULE
3R540
247   249    1
SMALL
USER_CHARGES


@<TRIPOS>ATOM
      1 CA          1.1734  -12.2074  -48.9311 C.3       0 UNK        -0.1800 
      2 C           0.5361  -13.5253  -48.5167 C.2       0 UNK         0.5000 
      3 O           1.0185  -14.1761  -47.5907 O.2       0 UNK        -0.5000 
      4 N          -0.5617  -13.9152  -49.1758 N.am      1 UNK        -0.5000 
      5 CA         -1.3124  -15.1583  -48.9450 C.3       1 UNK         0.1400 
      6 C6         -2.0565  -15.6147  -50.2282 C.3       23 UNK        -0.0398 
      7 S7         -0.8823  -16.3116  -51.4381 S.3       23 UNK        -0.2404 
      8 C8         -0.9613  -18.0436  -50.9005 C.3       23 UNK        -0.0205 
      9 C9          0.2556  -18.8493  -51.3126 C.ar      23 UNK        -0.0193 
     10 C10         0.2790  -19.5172  -52.5383 C.ar      23 UNK        -0.1150 
     11 C11         1.3581  -20.3357  -52.8792 C.ar      23 UNK        -0.0193 
     12 C12         2.4338  -20.4589  -51.9948 C.ar      23 UNK        -0.1150 
     13 C13         2.4295  -19.7797  -50.7722 C.ar      23 UNK        -0.0193 
     14 C14         1.3372  -18.9761  -50.4363 C.ar      23 UNK        -0.1150 
     15 C15         3.6086  -19.9142  -49.8218 C.3       23 UNK        -0.0205 
     16 S16         3.4612  -21.3830  -48.7563 S.3       23 UNK        -0.2404 
     17 C17         2.4425  -20.7670  -47.3725 C.3       23 UNK        -0.0398 
     18 CA          1.2758  -21.7236  -47.0191 C.3       11 UNK         0.1400 
     19 N           0.9456  -21.6943  -45.5907 N.am      11 UNK        -0.5000 
     20 C           0.1102  -22.5520  -44.9863 C.2       10 UNK         0.5000 
     21 O          -0.4265  -23.5000  -45.5592 O.2       10 UNK        -0.5000 
     22 CA         -0.2208  -22.2818  -43.5080 C.3       10 UNK         0.1400 
     23 CB          0.8713  -22.8534  -42.5922 C.3       10 UNK        -0.1800 
     24 N          -0.4180  -20.8589  -43.2244 N.am      10 UNK        -0.5000 
     25 C          -1.4108  -20.1143  -43.7319 C.2       9 UNK         0.5000 
     26 O          -2.2964  -20.5684  -44.4547 O.2       9 UNK        -0.5000 
     27 CA         -1.3856  -18.6034  -43.4290 C.3       9 UNK         0.1400 
     28 CB         -1.9708  -18.3047  -42.0417 C.3       9 UNK        -0.1800 
     29 N          -0.0437  -18.0307  -43.5272 N.am      9 UNK        -0.5000 
     30 C           0.6829  -17.9900  -44.6531 C.2       8 UNK         0.5000 
     31 O           0.2795  -18.3843  -45.7482 O.2       8 UNK        -0.5000 
     32 CA          2.1283  -17.4849  -44.5138 C.3       8 UNK         0.1400 
     33 CB          2.1782  -15.9522  -44.4751 C.3       8 UNK        -0.1800 
     34 N           2.7820  -18.0262  -43.3216 N.am      8 UNK        -0.5000 
     35 C           3.1149  -19.3150  -43.1641 C.2       7 UNK         0.5000 
     36 O           2.9280  -20.1775  -44.0210 O.2       7 UNK        -0.5000 
     37 CA          3.7180  -19.7139  -41.8053 C.3       7 UNK         0.1400 
     38 CB          5.2198  -19.3951  -41.7638 C.3       7 UNK        -0.1800 
     39 N           3.0509  -19.0595  -40.6792 N.am      7 UNK        -0.5000 
     40 C           1.7740  -19.2681  -40.3271 C.2       6 UNK         0.5000 
     41 O           1.0294  -20.0611  -40.8991 O.2       6 UNK        -0.5000 
     42 CA          1.2227  -18.4170  -39.1695 C.3       6 UNK         0.1400 
     43 CB          1.4499  -19.1234  -37.8249 C.3       6 UNK        -0.1800 
     44 N           1.8051  -17.0742  -39.1185 N.am      6 UNK        -0.5000 
     45 C           1.6473  -16.1430  -40.0673 C.2       5 UNK         0.5000 
     46 O           0.9987  -16.3172  -41.1021 O.2       5 UNK        -0.5000 
     47 CA          2.3885  -14.8213  -39.8450 C.3       5 UNK         0.1400 
     48 CB          3.7347  -14.8258  -40.5895 C.3       5 UNK        -0.1800 
     49 N           1.5691  -13.7154  -40.3279 N.am      5 UNK        -0.5000 
     50 C           1.5161  -12.5014  -39.7633 C.2       4 UNK         0.5000 
     51 O           2.1580  -12.1913  -38.7579 O.2       4 UNK        -0.5000 
     52 CA          0.6316  -11.4554  -40.4650 C.3       4 UNK         0.1400 
     53 CB          0.9157  -10.0089  -40.0146 C.3       4 UNK        -0.1800 
     54 N           0.8123  -11.5734  -41.9078 N.am      4 UNK        -0.5000 
     55 C          -0.1215  -11.3380  -42.8328 C.2       3 UNK         0.5000 
     56 O          -1.2376  -10.8794  -42.5794 O.2       3 UNK        -0.5000 
     57 CA          0.2347  -11.6966  -44.2925 C.3       3 UNK         0.1400 
     58 CB          1.6706  -12.2355  -44.4838 C.3       3 UNK        -0.1800 
     59 N          -0.7324  -12.6328  -44.8724 N.am      3 UNK        -0.5000 
     60 C          -1.1358  -13.8117  -44.3692 C.2       2 UNK         0.5000 
     61 O          -0.7164  -14.3098  -43.3251 O.2       2 UNK        -0.5000 
     62 CA         -2.1615  -14.5733  -45.2163 C.3       2 UNK         0.1400 
     63 CB         -3.5339  -13.8705  -45.1385 C.3       2 UNK        -0.1800 
     64 N          -1.6313  -14.6581  -46.5768 N.am      2 UNK        -0.5000 
     65 C          -2.2267  -15.0731  -47.6990 C.2       1 UNK         0.5000 
     66 O          -3.4125  -15.3951  -47.7736 O.2       1 UNK        -0.5000 
     67 C           0.0291  -21.4700  -47.8915 C.2       11 UNK         0.5000 
     68 O          -0.1977  -22.2037  -48.8520 O.2       11 UNK        -0.5000 
     69 N          -0.7951  -20.4865  -47.4990 N.am      12 UNK        -0.5000 
     70 CA         -2.0846  -20.1938  -48.1238 C.3       12 UNK         0.1400 
     71 CB         -2.6608  -18.8924  -47.5450 C.3       12 UNK        -0.1800 
     72 C          -3.0887  -21.3504  -47.9984 C.2       12 UNK         0.5000 
     73 O          -3.7421  -21.6872  -48.9855 O.2       12 UNK        -0.5000 
     74 N          -3.1727  -21.9611  -46.8087 N.am      13 UNK        -0.5000 
     75 CA         -4.0048  -23.1341  -46.5407 C.3       13 UNK         0.1400 
     76 CB         -3.9668  -23.4764  -45.0443 C.3       13 UNK        -0.1800 
     77 C          -3.6087  -24.3488  -47.4003 C.2       13 UNK         0.5000 
     78 O          -4.4855  -24.9892  -47.9839 O.2       13 UNK        -0.5000 
     79 N          -2.2962  -24.6050  -47.5019 N.am      14 UNK        -0.5000 
     80 CA         -1.7074  -25.6345  -48.3593 C.3       14 UNK         0.1400 
     81 CB         -0.2040  -25.7501  -48.0667 C.3       14 UNK        -0.1800 
     82 C          -1.9563  -25.3796  -49.8577 C.2       14 UNK         0.5000 
     83 O          -2.2414  -26.3247  -50.5941 O.2       14 UNK        -0.5000 
     84 N          -1.9059  -24.1081  -50.2768 N.am      15 UNK        -0.5000 
     85 CA         -2.2034  -23.6295  -51.6289 C.3       15 UNK         0.1400 
     86 CB         -1.5076  -22.2765  -51.8388 C.3       15 UNK        -0.1800 
     87 C          -3.7186  -23.5691  -51.9299 C.2       15 UNK         0.5000 
     88 O          -4.2101  -22.5590  -52.4427 O.2       15 UNK        -0.5000 
     89 N          -4.4108  -24.6765  -51.6319 N.am      16 UNK        -0.5000 
     90 CA         -5.8280  -24.9562  -51.8579 C.3       16 UNK         0.1400 
     91 CB         -6.1322  -25.0279  -53.3679 C.3       16 UNK        -0.1800 
     92 C          -6.7668  -24.0029  -51.0946 C.2       16 UNK         0.5000 
     93 O          -7.6321  -23.3736  -51.7032 O.2       16 UNK        -0.5000 
     94 N          -6.5932  -23.9313  -49.7663 N.am      17 UNK        -0.5000 
     95 CA         -7.4688  -23.2331  -48.8149 C.3       17 UNK         0.1400 
     96 CB         -8.8285  -23.9554  -48.7088 C.3       17 UNK        -0.1800 
     97 C          -7.6099  -21.7238  -49.1065 C.2       17 UNK         0.5000 
     98 O          -8.7215  -21.1926  -49.1265 O.2       17 UNK        -0.5000 
     99 N          -6.4643  -21.0713  -49.3415 N.am      18 UNK        -0.5000 
    100 CA        -6.2893  -19.6502  -49.6511 C.3       18 UNK         0.1400 
    101 CB        -6.8032  -18.7507  -48.5079 C.3       18 UNK        -0.1800 
    102 C         -6.8107  -19.2308  -51.0405 C.2       18 UNK         0.5000 
    103 O         -6.9652  -18.0343  -51.2900 O.2       18 UNK        -0.5000 
    104 N         -7.0093  -20.1988  -51.9492 N.am      19 UNK        -0.5000 
    105 CA        -7.2461  -19.9421  -53.3743 C.3       19 UNK         0.1400 
    106 CB        -7.8076  -21.2047  -54.0416 C.3       19 UNK        -0.1800 
    107 C         -5.9716  -19.4723  -54.1059 C.2       19 UNK         0.5000 
    108 O         -6.0810  -18.8534  -55.1647 O.2       19 UNK        -0.5000 
    109 N         -4.8018  -19.7666  -53.5167 N.am      20 UNK        -0.5000 
    110 CA        -3.4535  -19.4296  -53.9696 C.3       20 UNK         0.1400 
    111 CB        -3.2435  -17.9031  -54.0446 C.3       20 UNK        -0.1800 
    112 C         -3.0970  -20.1681  -55.2703 C.2       20 UNK         0.5000 
    113 O         -2.8091  -19.5407  -56.2935 O.2       20 UNK        -0.5000 
    114 N         -3.1328  -21.5060  -55.1923 N.am      21 UNK        -0.5000 
    115 CA        -2.8805  -22.4771  -56.2654 C.3       21 UNK         0.1400 
    116 CB        -3.3388  -23.8635  -55.7801 C.3       21 UNK        -0.1800 
    117 C         -1.4368  -22.4971  -56.8318 C.2       21 UNK         0.5000 
    118 O         -0.8609  -23.5673  -57.0358 O.2       21 UNK        -0.5000 
    119 N         -0.8898  -21.3138  -57.1071 N.am      22 UNK        -0.5000 
    120 CA         0.3560  -21.0654  -57.8420 C.3       22 UNK         0.1400 
    121 C          0.3413  -19.7279  -58.6406 C.2       22 UNK         0.5000 
    122 N         -0.7037  -18.9072  -58.5715 N.am      22 UNK        -0.7600 
    123 O          1.2887  -19.4375  -59.3662 O.2       22 UNK        -0.5000 
    124 C124        1.6284  -21.2463  -56.9709 C.3       23 UNK        -0.0398 
    125 S125        1.7717  -20.0530  -55.5938 S.3       23 UNK        -0.2404 
    126 C126        1.3384  -21.1126  -54.1851 C.3       23 UNK        -0.0205 
    127 H127        0.6308  -11.7342  -49.7496 H         1 UNK         0.0600 
    128 H128        2.2007  -12.3742  -49.2545 H         1 UNK         0.0600 
    129 H129        1.1882  -11.5175  -48.0874 H         1 UNK         0.0600 
    130 H130       -0.9219  -13.3256  -49.9125 H         1 UNK         0.3000 
    131 H131       -0.5901  -15.9391  -48.6951 H         1 UNK         0.0600 
    132 H132       -2.8119  -16.3740  -50.0167 H         1 UNK         0.0800 
    133 H133       -2.5937  -14.7818  -50.6840 H         1 UNK         0.0800 
    134 H134       -1.0343  -18.0642  -49.8148 H         1 UNK         0.0800 
    135 H135       -1.8732  -18.5052  -51.2810 H         1 UNK         0.0800 
    136 H136       -0.5493  -19.4190  -53.2226 H         1 UNK         0.1150 
    137 H137        3.2720  -21.0911  -52.2526 H         1 UNK         0.1150 
    138 H138        1.3214  -18.4587  -49.4875 H         1 UNK         0.1150 
    139 H139        4.5295  -19.9977  -50.4010 H         1 UNK         0.0800 
    140 H140        3.7201  -19.0163  -49.2120 H         1 UNK         0.0800 
    141 H141        2.0881  -19.7526  -47.5620 H         1 UNK         0.0800 
    142 H142        3.1248  -20.6826  -46.5273 H         1 UNK         0.0800 
    143 H143        1.6036  -22.7455  -47.2231 H         1 UNK         0.0600 
    144 H144        1.3936  -20.9743  -45.0330 H         1 UNK         0.3000 
    145 H145       -1.1550  -22.7979  -43.2785 H         1 UNK         0.0600 
    146 H146        0.5995  -22.7469  -41.5420 H         1 UNK         0.0600 
    147 H147        1.0232  -23.9166  -42.7820 H         1 UNK         0.0600 
    148 H148        1.8276  -22.3526  -42.7428 H         1 UNK         0.0600 
    149 H149        0.2348  -20.4320  -42.5725 H         1 UNK         0.3000 
    150 H150       -2.0112  -18.1073  -44.1739 H         1 UNK         0.0600 
    151 H151       -2.9941  -18.6736  -41.9629 H         1 UNK         0.0600 
    152 H152       -1.9938  -17.2319  -41.8474 H         1 UNK         0.0600 
    153 H153       -1.3899  -18.7755  -41.2488 H         1 UNK         0.0600 
    154 H154        0.3553  -17.6478  -42.6773 H         1 UNK         0.3000 
    155 H155        2.6834  -17.8204  -45.3926 H         1 UNK         0.0600 
    156 H156        1.6890  -15.5572  -43.5851 H         1 UNK         0.0600 
    157 H157        3.2058  -15.5891  -44.4816 H         1 UNK         0.0600 
    158 H158        1.6756  -15.5226  -45.3420 H         1 UNK         0.0600 
    159 H159        2.9185  -17.3910  -42.5499 H         1 UNK         0.3000 
    160 H160        3.5947  -20.7928  -41.6904 H         1 UNK         0.0600 
    161 H161        5.4087  -18.3238  -41.8432 H         1 UNK         0.0600 
    162 H162        5.7447  -19.8831  -42.5863 H         1 UNK         0.0600 
    163 H163        5.6721  -19.7481  -40.8369 H         1 UNK         0.0600 
    164 H164        3.5928  -18.3931  -40.1498 H         1 UNK         0.3000 
    165 H165        0.1467  -18.3105  -39.3214 H         1 UNK         0.0600 
    166 H166        0.9919  -18.5690  -37.0055 H         1 UNK         0.0600 
    167 H167        1.0066  -20.1202  -37.8284 H         1 UNK         0.0600 
    168 H168        2.5116  -19.2371  -37.6026 H         1 UNK         0.0600 
    169 H169        2.3606  -16.8569  -38.3034 H         1 UNK         0.3000 
    170 H170        2.5723  -14.7091  -38.7742 H         1 UNK         0.0600 
    171 H171        3.5979  -14.9244  -41.6673 H         1 UNK         0.0600 
    172 H172        4.2879  -13.9045  -40.4068 H         1 UNK         0.0600 
    173 H173        4.3646  -15.6527  -40.2593 H         1 UNK         0.0600 
    174 H174        0.9667  -13.9379  -41.1125 H         1 UNK         0.3000 
    175 H175       -0.4003  -11.7029  -40.2074 H         1 UNK         0.0600 
    176 H176        0.2543   -9.3019  -40.5154 H         1 UNK         0.0600 
    177 H177        1.9439   -9.7172  -40.2317 H         1 UNK         0.0600 
    178 H178        0.7577   -9.8931  -38.9418 H         1 UNK         0.0600 
    179 H179        1.6969  -11.9626  -42.2037 H         1 UNK         0.3000 
    180 H180        0.1507  -10.7705  -44.8628 H         1 UNK         0.0600 
    181 H181        1.8430  -13.1519  -43.9200 H         1 UNK         0.0600 
    182 H182        2.4141  -11.5022  -44.1693 H         1 UNK         0.0600 
    183 H183        1.8674  -12.4555  -45.5330 H         1 UNK         0.0600 
    184 H184       -1.1813  -12.3149  -45.7191 H         1 UNK         0.3000 
    185 H185       -2.2513  -15.5858  -44.8186 H         1 UNK         0.0600 
    186 H186       -3.8036  -13.6530  -44.1041 H         1 UNK         0.0600 
    187 H187       -3.5389  -12.9266  -45.6844 H         1 UNK         0.0600 
    188 H188       -4.3290  -14.4965  -45.5421 H         1 UNK         0.0600 
    189 H189       -0.6398  -14.4399  -46.6552 H         1 UNK         0.3000 
    190 H190       -0.5247  -19.9036  -46.7121 H         1 UNK         0.3000 
    191 H191       -1.9047  -20.0516  -49.1889 H         1 UNK         0.0600 
    192 H192       -1.9366  -18.0807  -47.5981 H         1 UNK         0.0600 
    193 H193       -3.5473  -18.5763  -48.0952 H         1 UNK         0.0600 
    194 H194       -2.9488  -19.0046  -46.5001 H         1 UNK         0.0600 
    195 H195       -2.6494  -21.5810  -46.0242 H         1 UNK         0.3000 
    196 H196       -5.0300  -22.8643  -46.7930 H         1 UNK         0.0600 
    197 H197       -4.6237  -24.3179  -44.8209 H         1 UNK         0.0600 
    198 H198       -4.2998  -22.6335  -44.4385 H         1 UNK         0.0600 
    199 H199       -2.9642  -23.7483  -44.7159 H         1 UNK         0.0600 
    200 H200       -1.6471  -24.0471  -46.9530 H         1 UNK         0.3000 
    201 H201       -2.1772  -26.5864  -48.1035 H         1 UNK         0.0600 
    202 H202       -0.0244  -26.0020  -47.0214 H         1 UNK         0.0600 
    203 H203        0.3212  -24.8188  -48.2800 H         1 UNK         0.0600 
    204 H204        0.2535  -26.5321  -48.6739 H         1 UNK         0.0600 
    205 H205       -1.6260  -23.3953  -49.6103 H         1 UNK         0.3000 
    206 H206       -1.7685  -24.3325  -52.3420 H         1 UNK         0.0600 
    207 H207       -0.4425  -22.3445  -51.6171 H         1 UNK         0.0600 
    208 H208       -1.5988  -21.9459  -52.8720 H         1 UNK         0.0600 
    209 H209       -1.9318  -21.5015  -51.2001 H         1 UNK         0.0600 
    210 H210       -3.8791  -25.4346  -51.2156 H         1 UNK         0.3000 
    211 H211       -6.0087  -25.9499  -51.4457 H         1 UNK         0.0600 
    212 H212       -6.0058  -24.0600  -53.8499 H         1 UNK         0.0600 
    213 H213       -7.1596  -25.3480  -53.5445 H         1 UNK         0.0600 
    214 H214       -5.4785  -25.7412  -53.8697 H         1 UNK         0.0600 
    215 H215       -5.8189  -24.4396  -49.3477 H         1 UNK         0.3000 
    216 H216       -6.9914  -23.3124  -47.8392 H         1 UNK         0.0600 
    217 H217       -9.4439  -23.5171  -47.9223 H         1 UNK         0.0600 
    218 H218       -8.6964  -25.0097  -48.4655 H         1 UNK         0.0600 
    219 H219       -9.3947  -23.8943  -49.6389 H         1 UNK         0.0600 
    220 H220       -5.5928  -21.5968  -49.3124 H         1 UNK         0.3000 
    221 H221       -5.2105  -19.5019  -49.7056 H         1 UNK         0.0600 
    222 H222       -7.8907  -18.7656  -48.4352 H         1 UNK         0.0600 
    223 H223       -6.3957  -19.0644  -47.5468 H         1 UNK         0.0600 
    224 H224       -6.5021  -17.7137  -48.6611 H         1 UNK         0.0600 
    225 H225       -6.9108  -21.1677  -51.6712 H         1 UNK         0.3000 
    226 H226       -7.9931  -19.1508  -53.4651 H         1 UNK         0.0600 
    227 H227       -8.7165  -21.5450  -53.5452 H         1 UNK         0.0600 
    228 H228       -8.0574  -21.0165  -55.0864 H         1 UNK         0.0600 
    229 H229       -7.0852  -22.0199  -54.0203 H         1 UNK         0.0600 
    230 H230       -4.8420  -20.3716  -52.7061 H         1 UNK         0.3000 
    231 H231       -2.7843  -19.8118  -53.1998 H         1 UNK         0.0600 
    232 H232       -3.8474  -17.4429  -54.8269 H         1 UNK         0.0600 
    233 H233       -2.2007  -17.6657  -54.2584 H         1 UNK         0.0600 
    234 H234       -3.4982  -17.4232  -53.0997 H         1 UNK         0.0600 
    235 H235       -3.4267  -21.9055  -54.3080 H         1 UNK         0.3000 
    236 H236       -3.5237  -22.1996  -57.1028 H         1 UNK         0.0600 
    237 H237       -4.3897  -23.8481  -55.4965 H         1 UNK         0.0600 
    238 H238       -3.2339  -24.6146  -56.5641 H         1 UNK         0.0600 
    239 H239       -2.7599  -24.2002  -54.9196 H         1 UNK         0.0600 
    240 H240       -1.4409  -20.4918  -56.8763 H         1 UNK         0.3000 
    241 H241        0.4045  -21.8264  -58.6232 H         1 UNK         0.0600 
    242 H242       -1.5035  -19.0949  -57.9831 H         1 UNK         0.3800 
    243 H243       -0.6840  -18.0558  -59.1108 H         1 UNK         0.3800 
    244 H244        1.6614  -22.2631  -56.5779 H         1 UNK         0.0800 
    245 H245        2.5212  -21.1515  -57.5908 H         1 UNK         0.0800 
    246 H246        0.3467  -21.5377  -54.3446 H         1 UNK         0.0800 
    247 H247        2.0314  -21.9539  -54.1363 H         1 UNK         0.0800 
@<TRIPOS>BOND
     1    1    2 1    
     2    1  127 1    
     3    1  128 1    
     4    1  129 1    
     5    2    3 2    
     6    2    4 am   BACKBONE|DICT|INTERRES
     7    4    5 1    
     8    4  130 1    
     9    5    6 1    
    10    5   65 1    
    11    5  131 1    
    12    6    7 1    
    13    6  132 1    
    14    6  133 1    
    15    7    8 1    
    16    8    9 1    
    17    8  134 1    
    18    8  135 1    
    19    9   10 ar   
    20    9   14 ar   
    21   10   11 ar   
    22   10  136 1    
    23   11   12 ar   
    24   11  126 1    
    25   12   13 ar   
    26   12  137 1    
    27   13   14 ar   
    28   13   15 1    
    29   14  138 1    
    30   15   16 1    
    31   15  139 1    
    32   15  140 1    
    33   16   17 1    
    34   17   18 1    
    35   17  141 1    
    36   17  142 1    
    37   18   19 1    
    38   18   67 1    
    39   18  143 1    
    40   19   20 am   BACKBONE|DICT|INTERRES
    41   19  144 1    
    42   20   21 2    
    43   20   22 1    
    44   22   23 1    
    45   22   24 1    
    46   22  145 1    
    47   23  146 1    
    48   23  147 1    
    49   23  148 1    
    50   24   25 am   BACKBONE|DICT|INTERRES
    51   24  149 1    
    52   25   26 2    
    53   25   27 1    
    54   27   28 1    
    55   27   29 1    
    56   27  150 1    
    57   28  151 1    
    58   28  152 1    
    59   28  153 1    
    60   29   30 am   BACKBONE|DICT|INTERRES
    61   29  154 1    
    62   30   31 2    
    63   30   32 1    
    64   32   33 1    
    65   32   34 1    
    66   32  155 1    
    67   33  156 1    
    68   33  157 1    
    69   33  158 1    
    70   34   35 am   BACKBONE|DICT|INTERRES
    71   34  159 1    
    72   35   36 2    
    73   35   37 1    
    74   37   38 1    
    75   37   39 1    
    76   37  160 1    
    77   38  161 1    
    78   38  162 1    
    79   38  163 1    
    80   39   40 am   BACKBONE|DICT|INTERRES
    81   39  164 1    
    82   40   41 2    
    83   40   42 1    
    84   42   43 1    
    85   42   44 1    
    86   42  165 1    
    87   43  166 1    
    88   43  167 1    
    89   43  168 1    
    90   44   45 am   BACKBONE|DICT|INTERRES
    91   44  169 1    
    92   45   46 2    
    93   45   47 1    
    94   47   48 1    
    95   47   49 1    
    96   47  170 1    
    97   48  171 1    
    98   48  172 1    
    99   48  173 1    
   100   49   50 am   BACKBONE|DICT|INTERRES
   101   49  174 1    
   102   50   51 2    
   103   50   52 1    
   104   52   53 1    
   105   52   54 1    
   106   52  175 1    
   107   53  176 1    
   108   53  177 1    
   109   53  178 1    
   110   54   55 am   BACKBONE|DICT|INTERRES
   111   54  179 1    
   112   55   56 2    
   113   55   57 1    
   114   57   58 1    
   115   57   59 1    
   116   57  180 1    
   117   58  181 1    
   118   58  182 1    
   119   58  183 1    
   120   59   60 am   BACKBONE|DICT|INTERRES
   121   59  184 1    
   122   60   61 2    
   123   60   62 1    
   124   62   63 1    
   125   62   64 1    
   126   62  185 1    
   127   63  186 1    
   128   63  187 1    
   129   63  188 1    
   130   64   65 am   BACKBONE|DICT|INTERRES
   131   64  189 1    
   132   65   66 2    
   133   67   68 2    
   134   67   69 am   BACKBONE|DICT|INTERRES
   135   69   70 1    
   136   69  190 1    
   137   70   71 1    
   138   70   72 1    
   139   70  191 1    
   140   71  192 1    
   141   71  193 1    
   142   71  194 1    
   143   72   73 2    
   144   72   74 am   BACKBONE|DICT|INTERRES
   145   74   75 1    
   146   74  195 1    
   147   75   76 1    
   148   75   77 1    
   149   75  196 1    
   150   76  197 1    
   151   76  198 1    
   152   76  199 1    
   153   77   78 2    
   154   77   79 am   BACKBONE|DICT|INTERRES
   155   79   80 1    
   156   79  200 1    
   157   80   81 1    
   158   80   82 1    
   159   80  201 1    
   160   81  202 1    
   161   81  203 1    
   162   81  204 1    
   163   82   83 2    
   164   82   84 am   BACKBONE|DICT|INTERRES
   165   84   85 1    
   166   84  205 1    
   167   85   86 1    
   168   85   87 1    
   169   85  206 1    
   170   86  207 1    
   171   86  208 1    
   172   86  209 1    
   173   87   88 2    
   174   87   89 am   BACKBONE|DICT|INTERRES
   175   89   90 1    
   176   89  210 1    
   177   90   91 1    
   178   90   92 1    
   179   90  211 1    
   180   91  212 1    
   181   91  213 1    
   182   91  214 1    
   183   92   93 2    
   184   92   94 am   BACKBONE|DICT|INTERRES
   185   94   95 1    
   186   94  215 1    
   187   95   96 1    
   188   95   97 1    
   189   95  216 1    
   190   96  217 1    
   191   96  218 1    
   192   96  219 1    
   193   97   98 2    
   194   97   99 am   BACKBONE|DICT|INTERRES
   195   99  100 1    
   196   99  220 1    
   197  100  101 1    
   198  100  102 1    
   199  100  221 1    
   200  101  222 1    
   201  101  223 1    
   202  101  224 1    
   203  102  103 2    
   204  102  104 am   BACKBONE|DICT|INTERRES
   205  104  105 1    
   206  104  225 1    
   207  105  106 1    
   208  105  107 1    
   209  105  226 1    
   210  106  227 1    
   211  106  228 1    
   212  106  229 1    
   213  107  108 2    
   214  107  109 am   BACKBONE|DICT|INTERRES
   215  109  110 1    
   216  109  230 1    
   217  110  111 1    
   218  110  112 1    
   219  110  231 1    
   220  111  232 1    
   221  111  233 1    
   222  111  234 1    
   223  112  113 2    
   224  112  114 am   BACKBONE|DICT|INTERRES
   225  114  115 1    
   226  114  235 1    
   227  115  116 1    
   228  115  117 1    
   229  115  236 1    
   230  116  237 1    
   231  116  238 1    
   232  116  239 1    
   233  117  118 2    
   234  117  119 am   BACKBONE|DICT|INTERRES
   235  119  120 1    
   236  119  240 1    
   237  120  121 1    
   238  120  124 1    
   239  120  241 1    
   240  121  122 am   BACKBONE|DICT|INTERRES
   241  121  123 2    
   242  122  242 1    
   243  122  243 1    
   244  124  125 1    
   245  124  244 1    
   246  124  245 1    
   247  125  126 1    
   248  126  246 1    
   249  126  247 1    
@<TRIPOS>SUBSTRUCTURE
     1 UNK         1 GROUP             0       ****    0 ROOT    
