@<TRIPOS>MOLECULE
3R540
247   249    1
SMALL
USER_CHARGES


@<TRIPOS>ATOM
      1 CA          2.5480  -13.0357  -46.5363 C.3       0 UNK        -0.1800 
      2 C           1.0387  -13.1723  -46.6615 C.2       0 UNK         0.5000 
      3 O           0.4292  -12.4986  -47.4914 O.2       0 UNK        -0.5000 
      4 N           0.4341  -14.0180  -45.8174 N.am      1 UNK        -0.5000 
      5 CA         -1.0017  -14.3270  -45.7028 C.3       1 UNK         0.1400 
      6 C6         -1.6762  -14.8034  -47.0178 C.3       23 UNK        -0.0398 
      7 S7         -1.1232  -16.4586  -47.5335 S.3       23 UNK        -0.2404 
      8 C8         -0.1219  -16.1240  -49.0122 C.3       23 UNK        -0.0205 
      9 C9          0.0263  -17.3697  -49.8798 C.ar      23 UNK        -0.0193 
     10 C10        -0.8199  -17.5496  -50.9772 C.ar      23 UNK        -0.1150 
     11 C11        -0.6672  -18.6498  -51.8248 C.ar      23 UNK        -0.0193 
     12 C12         0.3331  -19.5905  -51.5563 C.ar      23 UNK        -0.1150 
     13 C13         1.1928  -19.4255  -50.4641 C.ar      23 UNK        -0.0193 
     14 C14         1.0263  -18.3165  -49.6247 C.ar      23 UNK        -0.1150 
     15 C15         2.3658  -20.3830  -50.2647 C.3       23 UNK        -0.0205 
     16 S16         1.8812  -22.0532  -49.7098 S.3       23 UNK        -0.2404 
     17 C17         1.7991  -21.8430  -47.8939 C.3       23 UNK        -0.0398 
     18 CA          0.6717  -22.6342  -47.1743 C.3       11 UNK         0.1400 
     19 N           0.6038  -22.3255  -45.7402 N.am      11 UNK        -0.5000 
     20 C          -0.2162  -22.9158  -44.8547 C.2       10 UNK         0.5000 
     21 O          -0.9571  -23.8596  -45.1284 O.2       10 UNK        -0.5000 
     22 CA         -0.2555  -22.3290  -43.4315 C.3       10 UNK         0.1400 
     23 CB          0.9029  -22.8754  -42.5846 C.3       10 UNK        -0.1800 
     24 N          -0.2347  -20.8659  -43.4178 N.am      10 UNK        -0.5000 
     25 C          -1.1955  -20.0812  -43.9287 C.2       9 UNK         0.5000 
     26 O          -2.2437  -20.5108  -44.4107 O.2       9 UNK        -0.5000 
     27 CA         -0.9065  -18.5662  -43.9688 C.3       9 UNK         0.1400 
     28 CB         -1.1927  -17.9041  -42.6135 C.3       9 UNK        -0.1800 
     29 N           0.4661  -18.2688  -44.3829 N.am      9 UNK        -0.5000 
     30 C           0.9801  -18.6264  -45.5684 C.2       8 UNK         0.5000 
     31 O           0.3362  -19.2027  -46.4428 O.2       8 UNK        -0.5000 
     32 CA          2.4793  -18.3670  -45.7817 C.3       8 UNK         0.1400 
     33 CB          2.7455  -16.9023  -46.1557 C.3       8 UNK        -0.1800 
     34 N           3.2458  -18.7316  -44.5913 N.am      8 UNK        -0.5000 
     35 C           3.4779  -19.9964  -44.2111 C.2       7 UNK         0.5000 
     36 O           3.1199  -20.9771  -44.8632 O.2       7 UNK        -0.5000 
     37 CA          4.1982  -20.2038  -42.8644 C.3       7 UNK         0.1400 
     38 CB          5.7208  -20.2018  -43.0638 C.3       7 UNK        -0.1800 
     39 N           3.8417  -19.1957  -41.8645 N.am      7 UNK        -0.5000 
     40 C           2.6255  -19.0647  -41.3149 C.2       6 UNK         0.5000 
     41 O           1.6883  -19.8253  -41.5495 O.2       6 UNK        -0.5000 
     42 CA          2.4019  -17.8462  -40.3959 C.3       6 UNK         0.1400 
     43 CB          2.7226  -18.2054  -38.9377 C.3       6 UNK        -0.1800 
     44 N           3.1785  -16.6646  -40.7881 N.am      6 UNK        -0.5000 
     45 C           3.0943  -16.0608  -41.9811 C.2       5 UNK         0.5000 
     46 O           2.3238  -16.4262  -42.8713 O.2       5 UNK        -0.5000 
     47 CA          4.0642  -14.8876  -42.2156 C.3       5 UNK         0.1400 
     48 CB          4.5244  -14.7954  -43.6836 C.3       5 UNK        -0.1800 
     49 N           3.5238  -13.6064  -41.7539 N.am      5 UNK        -0.5000 
     50 C           2.4158  -12.9804  -42.1755 C.2       4 UNK         0.5000 
     51 O           1.6594  -13.4033  -43.0533 O.2       4 UNK        -0.5000 
     52 CA          2.1536  -11.6043  -41.5356 C.3       4 UNK         0.1400 
     53 CB          2.9068  -10.5088  -42.3063 C.3       4 UNK        -0.1800 
     54 N           0.7338  -11.2683  -41.5262 N.am      4 UNK        -0.5000 
     55 C          -0.2016  -11.8470  -40.7671 C.2       3 UNK         0.5000 
     56 O           0.0493  -12.6793  -39.8943 O.2       3 UNK        -0.5000 
     57 CA         -1.6670  -11.4439  -41.0303 C.3       3 UNK         0.1400 
     58 CB         -2.0452  -10.1661  -40.2572 C.3       3 UNK        -0.1800 
     59 N          -2.0183  -11.3420  -42.4543 N.am      3 UNK        -0.5000 
     60 C          -1.6129  -10.4592  -43.3775 C.2       2 UNK         0.5000 
     61 O          -0.8443   -9.5247  -43.1433 O.2       2 UNK        -0.5000 
     62 CA         -2.1053  -10.7178  -44.8163 C.3       2 UNK         0.1400 
     63 CB         -1.8048   -9.5438  -45.7649 C.3       2 UNK        -0.1800 
     64 N          -1.5022  -11.9295  -45.3712 N.am      2 UNK        -0.5000 
     65 C          -1.8204  -13.1903  -45.0540 C.2       1 UNK         0.5000 
     66 O          -2.7216  -13.4763  -44.2632 O.2       1 UNK        -0.5000 
     67 C          -0.7063  -22.4533  -47.8385 C.2       11 UNK         0.5000 
     68 O          -1.2116  -23.4014  -48.4374 O.2       11 UNK        -0.5000 
     69 N          -1.3093  -21.2696  -47.6677 N.am      12 UNK        -0.5000 
     70 CA         -2.6375  -20.9446  -48.1814 C.3       12 UNK         0.1400 
     71 CB         -2.9617  -19.4760  -47.8891 C.3       12 UNK        -0.1800 
     72 C          -3.7466  -21.8665  -47.6485 C.2       12 UNK         0.5000 
     73 O          -4.5722  -22.3266  -48.4378 O.2       12 UNK        -0.5000 
     74 N          -3.7345  -22.1373  -46.3363 N.am      13 UNK        -0.5000 
     75 CA         -4.6794  -23.0341  -45.6703 C.3       13 UNK         0.1400 
     76 CB         -4.4591  -22.9815  -44.1511 C.3       13 UNK        -0.1800 
     77 C          -4.5984  -24.4828  -46.1850 C.2       13 UNK         0.5000 
     78 O          -5.6388  -25.0960  -46.4282 O.2       13 UNK        -0.5000 
     79 N          -3.3716  -24.9922  -46.3626 N.am      14 UNK        -0.5000 
     80 CA         -3.1023  -26.3204  -46.9104 C.3       14 UNK         0.1400 
     81 CB         -1.6275  -26.6833  -46.6789 C.3       14 UNK        -0.1800 
     82 C          -3.4601  -26.4240  -48.4030 C.2       14 UNK         0.5000 
     83 O          -4.1023  -27.3929  -48.8109 O.2       14 UNK        -0.5000 
     84 N          -3.0622  -25.4178  -49.1911 N.am      15 UNK        -0.5000 
     85 CA         -3.2369  -25.3525  -50.6414 C.3       15 UNK         0.1400 
     86 CB         -2.1159  -24.4886  -51.2378 C.3       15 UNK        -0.1800 
     87 C          -4.6404  -24.8699  -51.0620 C.2       15 UNK         0.5000 
     88 O          -4.7570  -23.9718  -51.8992 O.2       15 UNK        -0.5000 
     89 N          -5.6742  -25.5015  -50.4890 N.am      16 UNK        -0.5000 
     90 CA         -7.0978  -25.3844  -50.8211 C.3       16 UNK         0.1400 
     91 CB         -7.3831  -26.0993  -52.1577 C.3       16 UNK        -0.1800 
     92 C          -7.6408  -23.9402  -50.7819 C.2       16 UNK         0.5000 
     93 O          -8.3385  -23.5186  -51.7059 O.2       16 UNK        -0.5000 
     94 N          -7.3117  -23.2196  -49.7001 N.am      17 UNK        -0.5000 
     95 CA         -7.6920  -21.8314  -49.4167 C.3       17 UNK         0.1400 
     96 CB         -9.2199  -21.6925  -49.2442 C.3       17 UNK        -0.1800 
     97 C          -7.0974  -20.8492  -50.4461 C.2       17 UNK         0.5000 
     98 O          -7.8296  -20.1132  -51.1105 O.2       17 UNK        -0.5000 
     99 N          -5.7614  -20.8707  -50.5365 N.am      18 UNK        -0.5000 
    100 CA        -4.9058  -20.0227  -51.3715 C.3       18 UNK         0.1400 
    101 CB        -5.0434  -18.5369  -50.9707 C.3       18 UNK        -0.1800 
    102 C         -5.1012  -20.2477  -52.8841 C.2       18 UNK         0.5000 
    103 O         -4.9893  -19.2965  -53.6595 O.2       18 UNK        -0.5000 
    104 N         -5.3660  -21.4979  -53.2876 N.am      19 UNK        -0.5000 
    105 CA        -5.4284  -21.8960  -54.6917 C.3       19 UNK         0.1400 
    106 CB        -6.2576  -23.1815  -54.8453 C.3       19 UNK        -0.1800 
    107 C         -4.0053  -22.0556  -55.2481 C.2       19 UNK         0.5000 
    108 O         -3.6187  -21.2911  -56.1323 O.2       19 UNK        -0.5000 
    109 N         -3.2529  -23.0122  -54.6771 N.am      20 UNK        -0.5000 
    110 CA        -1.8423  -23.3411  -54.9356 C.3       20 UNK         0.1400 
    111 CB        -0.9489  -22.4342  -54.0574 C.3       20 UNK        -0.1800 
    112 C         -1.4637  -23.3106  -56.4363 C.2       20 UNK         0.5000 
    113 O         -2.1513  -23.9278  -57.2521 O.2       20 UNK        -0.5000 
    114 N         -0.4109  -22.5538  -56.7666 N.am      21 UNK        -0.5000 
    115 CA        -0.1021  -22.0638  -58.1102 C.3       21 UNK         0.1400 
    116 CB         1.4012  -22.2626  -58.3698 C.3       21 UNK        -0.1800 
    117 C         -0.5039  -20.5773  -58.2600 C.2       21 UNK         0.5000 
    118 O         -0.1842  -19.9641  -59.2795 O.2       21 UNK        -0.5000 
    119 N         -1.1725  -20.0160  -57.2417 N.am      22 UNK        -0.5000 
    120 CA        -1.6769  -18.6359  -57.2000 C.3       22 UNK         0.1400 
    121 C         -2.8803  -18.4035  -58.1549 C.2       22 UNK         0.5000 
    122 N         -3.7848  -19.3650  -58.2939 N.am      22 UNK        -0.7600 
    123 O         -2.9903  -17.3483  -58.7733 O.2       22 UNK        -0.5000 
    124 C124       -2.0558  -18.2000  -55.7595 C.3       23 UNK        -0.0398 
    125 S125       -0.6747  -18.3184  -54.5710 S.3       23 UNK        -0.2404 
    126 C126       -1.5592  -18.7914  -53.0495 C.3       23 UNK        -0.0205 
    127 H127        3.0330  -14.0037  -46.6582 H         1 UNK         0.0600 
    128 H128        2.8134  -12.6294  -45.5601 H         1 UNK         0.0600 
    129 H129        2.9399  -12.3640  -47.3004 H         1 UNK         0.0600 
    130 H130        0.9998  -14.4305  -45.0856 H         1 UNK         0.3000 
    131 H131       -1.0506  -15.1558  -44.9939 H         1 UNK         0.0600 
    132 H132       -2.7563  -14.8830  -46.8801 H         1 UNK         0.0800 
    133 H133       -1.5410  -14.0855  -47.8265 H         1 UNK         0.0800 
    134 H134       -0.5861  -15.3261  -49.5933 H         1 UNK         0.0800 
    135 H135        0.8575  -15.7498  -48.7143 H         1 UNK         0.0800 
    136 H136       -1.5853  -16.8154  -51.1860 H         1 UNK         0.1150 
    137 H137        0.4695  -20.4311  -52.2220 H         1 UNK         0.1150 
    138 H138        1.6936  -18.1734  -48.7886 H         1 UNK         0.1150 
    139 H139        2.8910  -20.4821  -51.2157 H         1 UNK         0.0800 
    140 H140        3.0947  -19.9649  -49.5686 H         1 UNK         0.0800 
    141 H141        1.6987  -20.7812  -47.6934 H         1 UNK         0.0800 
    142 H142        2.7658  -22.1294  -47.4778 H         1 UNK         0.0800 
    143 H143        0.9213  -23.6943  -47.2532 H         1 UNK         0.0600 
    144 H144        1.2135  -21.5847  -45.4136 H         1 UNK         0.3000 
    145 H145       -1.1906  -22.6490  -42.9677 H         1 UNK         0.0600 
    146 H146        0.8373  -22.5253  -41.5543 H         1 UNK         0.0600 
    147 H147        0.8871  -23.9657  -42.5592 H         1 UNK         0.0600 
    148 H148        1.8711  -22.5704  -42.9809 H         1 UNK         0.0600 
    149 H149        0.5664  -20.4279  -42.9716 H         1 UNK         0.3000 
    150 H150       -1.5745  -18.1220  -44.7098 H         1 UNK         0.0600 
    151 H151       -2.2329  -18.0529  -42.3214 H         1 UNK         0.0600 
    152 H152       -1.0151  -16.8290  -42.6538 H         1 UNK         0.0600 
    153 H153       -0.5685  -18.3179  -41.8221 H         1 UNK         0.0600 
    154 H154        1.0583  -17.7734  -43.7244 H         1 UNK         0.3000 
    155 H155        2.8210  -18.9880  -46.6118 H         1 UNK         0.0600 
    156 H156        2.3369  -16.2145  -45.4180 H         1 UNK         0.0600 
    157 H157        3.8126  -16.7029  -46.2519 H         1 UNK         0.0600 
    158 H158        2.2824  -16.6553  -47.1092 H         1 UNK         0.0600 
    159 H159        3.4887  -17.9775  -43.9644 H         1 UNK         0.3000 
    160 H160        3.9058  -21.1824  -42.4782 H         1 UNK         0.0600 
    161 H161        6.0791  -19.2383  -43.4286 H         1 UNK         0.0600 
    162 H162        6.0199  -20.9594  -43.7894 H         1 UNK         0.0600 
    163 H163        6.2411  -20.4233  -42.1318 H         1 UNK         0.0600 
    164 H164        4.5580  -18.5320  -41.6100 H         1 UNK         0.3000 
    165 H165        1.3451  -17.5795  -40.4568 H         1 UNK         0.0600 
    166 H166        2.4815  -17.3813  -38.2659 H         1 UNK         0.0600 
    167 H167        2.1410  -19.0689  -38.6117 H         1 UNK         0.0600 
    168 H168        3.7770  -18.4507  -38.8053 H         1 UNK         0.0600 
    169 H169        3.8247  -16.3039  -40.1009 H         1 UNK         0.3000 
    170 H170        4.9558  -15.0792  -41.6165 H         1 UNK         0.0600 
    171 H171        3.6956  -14.5822  -44.3556 H         1 UNK         0.0600 
    172 H172        5.2687  -14.0101  -43.8146 H         1 UNK         0.0600 
    173 H173        4.9773  -15.7319  -44.0110 H         1 UNK         0.0600 
    174 H174        4.0624  -13.1596  -41.0250 H         1 UNK         0.3000 
    175 H175        2.5095  -11.6193  -40.5033 H         1 UNK         0.0600 
    176 H176        2.7574   -9.5305  -41.8488 H         1 UNK         0.0600 
    177 H177        2.5739  -10.4479  -43.3436 H         1 UNK         0.0600 
    178 H178        3.9803  -10.7016  -42.3167 H         1 UNK         0.0600 
    179 H179        0.4160  -10.5966  -42.2183 H         1 UNK         0.3000 
    180 H180       -2.2845  -12.2537  -40.6385 H         1 UNK         0.0600 
    181 H181       -1.4475   -9.3080  -40.5654 H         1 UNK         0.0600 
    182 H182       -1.8881  -10.3013  -39.1865 H         1 UNK         0.0600 
    183 H183       -3.0956   -9.9137  -40.4022 H         1 UNK         0.0600 
    184 H184       -2.5633  -12.1226  -42.8090 H         1 UNK         0.3000 
    185 H185       -3.1888  -10.8475  -44.7774 H         1 UNK         0.0600 
    186 H186       -0.7323   -9.3803  -45.8782 H         1 UNK         0.0600 
    187 H187       -2.2215   -9.7227  -46.7563 H         1 UNK         0.0600 
    188 H188       -2.2425   -8.6171  -45.3916 H         1 UNK         0.0600 
    189 H189       -0.7552  -11.7992  -46.0452 H         1 UNK         0.3000 
    190 H190       -0.8157  -20.5344  -47.1660 H         1 UNK         0.3000 
    191 H191       -2.6065  -21.0749  -49.2645 H         1 UNK         0.0600 
    192 H192       -2.4035  -18.8247  -48.5602 H         1 UNK         0.0600 
    193 H193       -4.0206  -19.2628  -48.0320 H         1 UNK         0.0600 
    194 H194       -2.7121  -19.2016  -46.8639 H         1 UNK         0.0600 
    195 H195       -3.0448  -21.6798  -45.7462 H         1 UNK         0.3000 
    196 H196       -5.6857  -22.6653  -45.8791 H         1 UNK         0.0600 
    197 H197       -5.1646  -23.6303  -43.6306 H         1 UNK         0.0600 
    198 H198       -4.6018  -21.9713  -43.7672 H         1 UNK         0.0600 
    199 H199       -3.4535  -23.3033  -43.8794 H         1 UNK         0.0600 
    200 H200       -2.5619  -24.4318  -46.1109 H         1 UNK         0.3000 
    201 H201       -3.7166  -27.0425  -46.3686 H         1 UNK         0.0600 
    202 H202       -1.3874  -26.6925  -45.6156 H         1 UNK         0.0600 
    203 H203       -0.9568  -25.9736  -47.1653 H         1 UNK         0.0600 
    204 H204       -1.4012  -27.6748  -47.0729 H         1 UNK         0.0600 
    205 H205       -2.5337  -24.6514  -48.7781 H         1 UNK         0.3000 
    206 H206       -3.1170  -26.3588  -51.0478 H         1 UNK         0.0600 
    207 H207       -1.1331  -24.8265  -50.9089 H         1 UNK         0.0600 
    208 H208       -2.1292  -24.5491  -52.3236 H         1 UNK         0.0600 
    209 H209       -2.2225  -23.4398  -50.9570 H         1 UNK         0.0600 
    210 H210       -5.4408  -26.2121  -49.8034 H         1 UNK         0.3000 
    211 H211       -7.6361  -25.9260  -50.0420 H         1 UNK         0.0600 
    212 H212       -6.8826  -25.6097  -52.9921 H         1 UNK         0.0600 
    213 H213       -8.4514  -26.1122  -52.3772 H         1 UNK         0.0600 
    214 H214       -7.0477  -27.1360  -52.1290 H         1 UNK         0.0600 
    215 H215       -6.6734  -23.6361  -49.0349 H         1 UNK         0.3000 
    216 H216       -7.2391  -21.5809  -48.4562 H         1 UNK         0.0600 
    217 H217       -9.4823  -20.6841  -48.9222 H         1 UNK         0.0600 
    218 H218       -9.5951  -22.3823  -48.4883 H         1 UNK         0.0600 
    219 H219       -9.7583  -21.8862  -50.1721 H         1 UNK         0.0600 
    220 H220       -5.2750  -21.5320  -49.9340 H         1 UNK         0.3000 
    221 H221       -3.8809  -20.3260  -51.1561 H         1 UNK         0.0600 
    222 H222       -6.0026  -18.1224  -51.2823 H         1 UNK         0.0600 
    223 H223       -4.9604  -18.3988  -49.8948 H         1 UNK         0.0600 
    224 H224       -4.2642  -17.9311  -51.4327 H         1 UNK         0.0600 
    225 H225       -5.3872  -22.2486  -52.6031 H         1 UNK         0.3000 
    226 H226       -5.9307  -21.1117  -55.2623 H         1 UNK         0.0600 
    227 H227       -7.2602  -23.0534  -54.4367 H         1 UNK         0.0600 
    228 H228       -6.3650  -23.4486  -55.8971 H         1 UNK         0.0600 
    229 H229       -5.7998  -24.0304  -54.3396 H         1 UNK         0.0600 
    230 H230       -3.6958  -23.5602  -53.9507 H         1 UNK         0.3000 
    231 H231       -1.7002  -24.3727  -54.6125 H         1 UNK         0.0600 
    232 H232       -0.9460  -21.4046  -54.4119 H         1 UNK         0.0600 
    233 H233        0.0830  -22.7873  -54.0446 H         1 UNK         0.0600 
    234 H234       -1.2894  -22.4148  -53.0231 H         1 UNK         0.0600 
    235 H235        0.1099  -22.1184  -56.0182 H         1 UNK         0.3000 
    236 H236       -0.6593  -22.6275  -58.8610 H         1 UNK         0.0600 
    237 H237        1.6826  -23.3107  -58.2660 H         1 UNK         0.0600 
    238 H238        1.6699  -21.9551  -59.3811 H         1 UNK         0.0600 
    239 H239        2.0097  -21.6813  -57.6761 H         1 UNK         0.0600 
    240 H240       -1.4902  -20.6118  -56.4912 H         1 UNK         0.3000 
    241 H241       -0.8703  -17.9836  -57.5403 H         1 UNK         0.0600 
    242 H242       -3.7264  -20.1947  -57.7095 H         1 UNK         0.3800 
    243 H243       -4.5699  -19.2341  -58.9112 H         1 UNK         0.3800 
    244 H244       -2.4027  -17.1651  -55.7555 H         1 UNK         0.0800 
    245 H245       -2.8917  -18.7991  -55.3946 H         1 UNK         0.0800 
    246 H246       -2.4397  -18.1563  -52.9469 H         1 UNK         0.0800 
    247 H247       -1.9296  -19.8129  -53.1265 H         1 UNK         0.0800 
@<TRIPOS>BOND
     1    1    2 1    
     2    1  127 1    
     3    1  128 1    
     4    1  129 1    
     5    2    3 2    
     6    2    4 am   BACKBONE|DICT|INTERRES
     7    4    5 1    
     8    4  130 1    
     9    5    6 1    
    10    5   65 1    
    11    5  131 1    
    12    6    7 1    
    13    6  132 1    
    14    6  133 1    
    15    7    8 1    
    16    8    9 1    
    17    8  134 1    
    18    8  135 1    
    19    9   10 ar   
    20    9   14 ar   
    21   10   11 ar   
    22   10  136 1    
    23   11   12 ar   
    24   11  126 1    
    25   12   13 ar   
    26   12  137 1    
    27   13   14 ar   
    28   13   15 1    
    29   14  138 1    
    30   15   16 1    
    31   15  139 1    
    32   15  140 1    
    33   16   17 1    
    34   17   18 1    
    35   17  141 1    
    36   17  142 1    
    37   18   19 1    
    38   18   67 1    
    39   18  143 1    
    40   19   20 am   BACKBONE|DICT|INTERRES
    41   19  144 1    
    42   20   21 2    
    43   20   22 1    
    44   22   23 1    
    45   22   24 1    
    46   22  145 1    
    47   23  146 1    
    48   23  147 1    
    49   23  148 1    
    50   24   25 am   BACKBONE|DICT|INTERRES
    51   24  149 1    
    52   25   26 2    
    53   25   27 1    
    54   27   28 1    
    55   27   29 1    
    56   27  150 1    
    57   28  151 1    
    58   28  152 1    
    59   28  153 1    
    60   29   30 am   BACKBONE|DICT|INTERRES
    61   29  154 1    
    62   30   31 2    
    63   30   32 1    
    64   32   33 1    
    65   32   34 1    
    66   32  155 1    
    67   33  156 1    
    68   33  157 1    
    69   33  158 1    
    70   34   35 am   BACKBONE|DICT|INTERRES
    71   34  159 1    
    72   35   36 2    
    73   35   37 1    
    74   37   38 1    
    75   37   39 1    
    76   37  160 1    
    77   38  161 1    
    78   38  162 1    
    79   38  163 1    
    80   39   40 am   BACKBONE|DICT|INTERRES
    81   39  164 1    
    82   40   41 2    
    83   40   42 1    
    84   42   43 1    
    85   42   44 1    
    86   42  165 1    
    87   43  166 1    
    88   43  167 1    
    89   43  168 1    
    90   44   45 am   BACKBONE|DICT|INTERRES
    91   44  169 1    
    92   45   46 2    
    93   45   47 1    
    94   47   48 1    
    95   47   49 1    
    96   47  170 1    
    97   48  171 1    
    98   48  172 1    
    99   48  173 1    
   100   49   50 am   BACKBONE|DICT|INTERRES
   101   49  174 1    
   102   50   51 2    
   103   50   52 1    
   104   52   53 1    
   105   52   54 1    
   106   52  175 1    
   107   53  176 1    
   108   53  177 1    
   109   53  178 1    
   110   54   55 am   BACKBONE|DICT|INTERRES
   111   54  179 1    
   112   55   56 2    
   113   55   57 1    
   114   57   58 1    
   115   57   59 1    
   116   57  180 1    
   117   58  181 1    
   118   58  182 1    
   119   58  183 1    
   120   59   60 am   BACKBONE|DICT|INTERRES
   121   59  184 1    
   122   60   61 2    
   123   60   62 1    
   124   62   63 1    
   125   62   64 1    
   126   62  185 1    
   127   63  186 1    
   128   63  187 1    
   129   63  188 1    
   130   64   65 am   BACKBONE|DICT|INTERRES
   131   64  189 1    
   132   65   66 2    
   133   67   68 2    
   134   67   69 am   BACKBONE|DICT|INTERRES
   135   69   70 1    
   136   69  190 1    
   137   70   71 1    
   138   70   72 1    
   139   70  191 1    
   140   71  192 1    
   141   71  193 1    
   142   71  194 1    
   143   72   73 2    
   144   72   74 am   BACKBONE|DICT|INTERRES
   145   74   75 1    
   146   74  195 1    
   147   75   76 1    
   148   75   77 1    
   149   75  196 1    
   150   76  197 1    
   151   76  198 1    
   152   76  199 1    
   153   77   78 2    
   154   77   79 am   BACKBONE|DICT|INTERRES
   155   79   80 1    
   156   79  200 1    
   157   80   81 1    
   158   80   82 1    
   159   80  201 1    
   160   81  202 1    
   161   81  203 1    
   162   81  204 1    
   163   82   83 2    
   164   82   84 am   BACKBONE|DICT|INTERRES
   165   84   85 1    
   166   84  205 1    
   167   85   86 1    
   168   85   87 1    
   169   85  206 1    
   170   86  207 1    
   171   86  208 1    
   172   86  209 1    
   173   87   88 2    
   174   87   89 am   BACKBONE|DICT|INTERRES
   175   89   90 1    
   176   89  210 1    
   177   90   91 1    
   178   90   92 1    
   179   90  211 1    
   180   91  212 1    
   181   91  213 1    
   182   91  214 1    
   183   92   93 2    
   184   92   94 am   BACKBONE|DICT|INTERRES
   185   94   95 1    
   186   94  215 1    
   187   95   96 1    
   188   95   97 1    
   189   95  216 1    
   190   96  217 1    
   191   96  218 1    
   192   96  219 1    
   193   97   98 2    
   194   97   99 am   BACKBONE|DICT|INTERRES
   195   99  100 1    
   196   99  220 1    
   197  100  101 1    
   198  100  102 1    
   199  100  221 1    
   200  101  222 1    
   201  101  223 1    
   202  101  224 1    
   203  102  103 2    
   204  102  104 am   BACKBONE|DICT|INTERRES
   205  104  105 1    
   206  104  225 1    
   207  105  106 1    
   208  105  107 1    
   209  105  226 1    
   210  106  227 1    
   211  106  228 1    
   212  106  229 1    
   213  107  108 2    
   214  107  109 am   BACKBONE|DICT|INTERRES
   215  109  110 1    
   216  109  230 1    
   217  110  111 1    
   218  110  112 1    
   219  110  231 1    
   220  111  232 1    
   221  111  233 1    
   222  111  234 1    
   223  112  113 2    
   224  112  114 am   BACKBONE|DICT|INTERRES
   225  114  115 1    
   226  114  235 1    
   227  115  116 1    
   228  115  117 1    
   229  115  236 1    
   230  116  237 1    
   231  116  238 1    
   232  116  239 1    
   233  117  118 2    
   234  117  119 am   BACKBONE|DICT|INTERRES
   235  119  120 1    
   236  119  240 1    
   237  120  121 1    
   238  120  124 1    
   239  120  241 1    
   240  121  122 am   BACKBONE|DICT|INTERRES
   241  121  123 2    
   242  122  242 1    
   243  122  243 1    
   244  124  125 1    
   245  124  244 1    
   246  124  245 1    
   247  125  126 1    
   248  126  246 1    
   249  126  247 1    
@<TRIPOS>SUBSTRUCTURE
     1 UNK         1 GROUP             0       ****    0 ROOT    
