@<TRIPOS>MOLECULE
3R540
247   249    1
SMALL
USER_CHARGES


@<TRIPOS>ATOM
      1 CA          0.6994  -10.4344  -50.3337 C.3       0 UNK        -0.1800 
      2 C           1.0587  -11.7736  -49.7052 C.2       0 UNK         0.5000 
      3 O           0.3392  -12.2384  -48.8251 O.2       0 UNK        -0.5000 
      4 N           2.1700  -12.3710  -50.1551 N.am      1 UNK        -0.5000 
      5 CA          2.7784  -13.6529  -49.7649 C.3       1 UNK         0.1400 
      6 C6          1.9570  -14.9226  -50.1462 C.3       23 UNK        -0.0398 
      7 S7          0.5934  -15.4036  -49.0235 S.3       23 UNK        -0.2404 
      8 C8          1.3400  -16.7919  -48.1101 C.3       23 UNK        -0.0205 
      9 C9          1.2789  -18.0933  -48.8937 C.ar      23 UNK        -0.0193 
     10 C10         0.0477  -18.6048  -49.3091 C.ar      23 UNK        -0.1150 
     11 C11        -0.0259  -19.8052  -50.0180 C.ar      23 UNK        -0.0193 
     12 C12         1.1484  -20.5134  -50.2929 C.ar      23 UNK        -0.1150 
     13 C13         2.3860  -20.0222  -49.8639 C.ar      23 UNK        -0.0193 
     14 C14         2.4454  -18.8088  -49.1720 C.ar      23 UNK        -0.1150 
     15 C15         3.6680  -20.7883  -50.1456 C.3       23 UNK        -0.0205 
     16 S16         4.1971  -21.7704  -48.7058 S.3       23 UNK        -0.2404 
     17 C17         3.3164  -23.3529  -48.9673 C.3       23 UNK        -0.0398 
     18 CA          2.4782  -23.8386  -47.7584 C.3       11 UNK         0.1400 
     19 N           3.2228  -23.7988  -46.4976 N.am      11 UNK        -0.5000 
     20 C           2.8523  -24.4226  -45.3712 C.2       10 UNK         0.5000 
     21 O           1.8606  -25.1459  -45.2819 O.2       10 UNK        -0.5000 
     22 CA          3.7025  -24.1302  -44.1210 C.3       10 UNK         0.1400 
     23 CB          4.9873  -24.9720  -44.1244 C.3       10 UNK        -0.1800 
     24 N           4.0448  -22.7092  -43.9964 N.am      10 UNK        -0.5000 
     25 C           3.1382  -21.7372  -43.8374 C.2       9 UNK         0.5000 
     26 O           1.9246  -21.9468  -43.7599 O.2       9 UNK        -0.5000 
     27 CA          3.6605  -20.2951  -43.8024 C.3       9 UNK         0.1400 
     28 CB          4.0526  -19.8092  -45.2105 C.3       9 UNK        -0.1800 
     29 N           2.6037  -19.4499  -43.2605 N.am      9 UNK        -0.5000 
     30 C           2.7667  -18.2889  -42.6243 C.2       8 UNK         0.5000 
     31 O           3.8643  -17.7472  -42.4838 O.2       8 UNK        -0.5000 
     32 CA          1.5093  -17.6194  -42.0262 C.3       8 UNK         0.1400 
     33 CB          1.4320  -16.1302  -42.3855 C.3       8 UNK        -0.1800 
     34 N           0.2257  -18.2582  -42.3618 N.am      8 UNK        -0.5000 
     35 C          -0.2476  -19.3302  -41.7112 C.2       7 UNK         0.5000 
     36 O           0.4395  -19.9878  -40.9293 O.2       7 UNK        -0.5000 
     37 CA         -1.7216  -19.7321  -41.8922 C.3       7 UNK         0.1400 
     38 CB         -2.5563  -19.1656  -40.7257 C.3       7 UNK        -0.1800 
     39 N          -2.3504  -19.3671  -43.1709 N.am      7 UNK        -0.5000 
     40 C          -3.4265  -20.0300  -43.6361 C.2       6 UNK         0.5000 
     41 O          -3.8860  -21.0286  -43.0802 O.2       6 UNK        -0.5000 
     42 CA         -4.1556  -19.5162  -44.8927 C.3       6 UNK         0.1400 
     43 CB         -5.6618  -19.3480  -44.6213 C.3       6 UNK        -0.1800 
     44 N          -3.6312  -18.2480  -45.3845 N.am      6 UNK        -0.5000 
     45 C          -3.0085  -18.0757  -46.5560 C.2       5 UNK         0.5000 
     46 O          -2.8181  -18.9815  -47.3671 O.2       5 UNK        -0.5000 
     47 CA         -2.5059  -16.6555  -46.8858 C.3       5 UNK         0.1400 
     48 CB         -3.2545  -16.0869  -48.1015 C.3       5 UNK        -0.1800 
     49 N          -2.5858  -15.6919  -45.7804 N.am      5 UNK        -0.5000 
     50 C          -1.8889  -15.7607  -44.6397 C.2       4 UNK         0.5000 
     51 O          -1.1392  -16.6963  -44.3473 O.2       4 UNK        -0.5000 
     52 CA         -2.0930  -14.6205  -43.6377 C.3       4 UNK         0.1400 
     53 CB         -2.6046  -15.1599  -42.2885 C.3       4 UNK        -0.1800 
     54 N          -0.8212  -13.9309  -43.4616 N.am      4 UNK        -0.5000 
     55 C          -0.6739  -12.6789  -43.0117 C.2       3 UNK         0.5000 
     56 O          -1.6176  -11.9564  -42.6880 O.2       3 UNK        -0.5000 
     57 CA          0.7653  -12.1327  -42.8945 C.3       3 UNK         0.1400 
     58 CB          1.2707  -12.2633  -41.4491 C.3       3 UNK        -0.1800 
     59 N           1.7311  -12.7721  -43.7948 N.am      3 UNK        -0.5000 
     60 C           1.7286  -12.6437  -45.1284 C.2       2 UNK         0.5000 
     61 O           0.8972  -11.9680  -45.7381 O.2       2 UNK        -0.5000 
     62 CA          2.8367  -13.3851  -45.9003 C.3       2 UNK         0.1400 
     63 CB          2.9762  -14.8542  -45.4413 C.3       2 UNK        -0.1800 
     64 N           2.5430  -13.3251  -47.3298 N.am      2 UNK        -0.5000 
     65 C           3.3525  -13.6863  -48.3297 C.2       1 UNK         0.5000 
     66 O           4.5212  -14.0383  -48.1620 O.2       1 UNK        -0.5000 
     67 C           1.1198  -23.1171  -47.6567 C.2       11 UNK         0.5000 
     68 O           0.1408  -23.6091  -48.2154 O.2       11 UNK        -0.5000 
     69 N           1.0690  -22.0075  -46.9048 N.am      12 UNK        -0.5000 
     70 CA         -0.1527  -21.2549  -46.6177 C.3       12 UNK         0.1400 
     71 CB          0.1980  -19.9474  -45.8903 C.3       12 UNK        -0.1800 
     72 C          -1.1516  -22.0875  -45.8009 C.2       12 UNK         0.5000 
     73 O          -2.3171  -22.1857  -46.1811 O.2       12 UNK        -0.5000 
     74 N          -0.6592  -22.7093  -44.7213 N.am      13 UNK        -0.5000 
     75 CA         -1.4203  -23.5969  -43.8445 C.3       13 UNK         0.1400 
     76 CB         -0.5564  -23.9672  -42.6299 C.3       13 UNK        -0.1800 
     77 C          -1.9381  -24.8586  -44.5592 C.2       13 UNK         0.5000 
     78 O          -3.0688  -25.2745  -44.3047 O.2       13 UNK        -0.5000 
     79 N          -1.1143  -25.4343  -45.4463 N.am      14 UNK        -0.5000 
     80 CA         -1.4655  -26.5955  -46.2631 C.3       14 UNK         0.1400 
     81 CB         -0.1969  -27.1710  -46.9112 C.3       14 UNK        -0.1800 
     82 C          -2.5246  -26.2735  -47.3333 C.2       14 UNK         0.5000 
     83 O          -3.4711  -27.0439  -47.5001 O.2       14 UNK        -0.5000 
     84 N          -2.3429  -25.1520  -48.0429 N.am      15 UNK        -0.5000 
     85 CA         -3.2272  -24.7056  -49.1192 C.3       15 UNK         0.1400 
     86 CB         -2.4852  -23.6667  -49.9655 C.3       15 UNK        -0.1800 
     87 C          -4.5565  -24.1187  -48.6148 C.2       15 UNK         0.5000 
     88 O          -5.5764  -24.2889  -49.2830 O.2       15 UNK        -0.5000 
     89 N          -4.5127  -23.4325  -47.4628 N.am      16 UNK        -0.5000 
     90 CA         -5.6185  -22.7322  -46.8044 C.3       16 UNK         0.1400 
     91 CB         -6.6791  -23.7335  -46.3010 C.3       16 UNK        -0.1800 
     92 C          -6.2033  -21.6042  -47.6832 C.2       16 UNK         0.5000 
     93 O          -7.4228  -21.5135  -47.8331 O.2       16 UNK        -0.5000 
     94 N          -5.3090  -20.7768  -48.2511 N.am      17 UNK        -0.5000 
     95 CA         -5.5787  -19.6802  -49.1909 C.3       17 UNK         0.1400 
     96 CB         -6.3473  -18.5316  -48.5046 C.3       17 UNK        -0.1800 
     97 C          -6.2677  -20.1828  -50.4761 C.2       17 UNK         0.5000 
     98 O          -7.4405  -19.8871  -50.7176 O.2       17 UNK        -0.5000 
     99 N          -5.5223  -20.9764  -51.2557 N.am      18 UNK        -0.5000 
    100 CA        -5.9649  -21.5816  -52.5128 C.3       18 UNK         0.1400 
    101 CB        -4.9161  -22.6123  -52.9627 C.3       18 UNK        -0.1800 
    102 C         -6.2623  -20.5572  -53.6294 C.2       18 UNK         0.5000 
    103 O         -5.8283  -19.4032  -53.5604 O.2       18 UNK        -0.5000 
    104 N         -7.0028  -21.0213  -54.6448 N.am      19 UNK        -0.5000 
    105 CA        -7.4845  -20.2534  -55.7953 C.3       19 UNK         0.1400 
    106 CB        -8.2915  -21.1923  -56.7057 C.3       19 UNK        -0.1800 
    107 C         -6.3753  -19.5528  -56.6043 C.2       19 UNK         0.5000 
    108 O         -5.2328  -20.0189  -56.6323 O.2       19 UNK        -0.5000 
    109 N         -6.7553  -18.4425  -57.2539 N.am      20 UNK        -0.5000 
    110 CA        -5.9085  -17.5558  -58.0639 C.3       20 UNK         0.1400 
    111 CB        -5.4121  -18.2821  -59.3323 C.3       20 UNK        -0.1800 
    112 C         -4.7643  -16.9055  -57.2549 C.2       20 UNK         0.5000 
    113 O         -3.6925  -16.6492  -57.8056 O.2       20 UNK        -0.5000 
    114 N         -5.0246  -16.6605  -55.9598 N.am      21 UNK        -0.5000 
    115 CA        -4.0864  -16.1861  -54.9375 C.3       21 UNK         0.1400 
    116 CB        -3.6448  -14.7343  -55.2201 C.3       21 UNK        -0.1800 
    117 C         -2.9080  -17.1647  -54.7596 C.2       21 UNK         0.5000 
    118 O         -1.7468  -16.7768  -54.9046 O.2       21 UNK        -0.5000 
    119 N         -3.2515  -18.4259  -54.4683 N.am      22 UNK        -0.5000 
    120 CA        -2.3314  -19.5625  -54.3112 C.3       22 UNK         0.1400 
    121 C         -1.6207  -19.9542  -55.6390 C.2       22 UNK         0.5000 
    122 N         -2.3564  -20.0624  -56.7384 N.am      22 UNK        -0.7600 
    123 O         -0.4130  -20.1748  -55.6833 O.2       22 UNK        -0.5000 
    124 C124       -1.3685  -19.4076  -53.1004 C.3       23 UNK        -0.0398 
    125 S125       -2.2850  -19.2136  -51.5331 S.3       23 UNK        -0.2404 
    126 C126       -1.3824  -20.3501  -50.4381 C.3       23 UNK        -0.0205 
    127 H127       -0.2836  -10.4920  -50.8011 H         1 UNK         0.0600 
    128 H128        1.4204  -10.1343  -51.0945 H         1 UNK         0.0600 
    129 H129        0.6692   -9.6581  -49.5690 H         1 UNK         0.0600 
    130 H130        2.6980  -11.8784  -50.8621 H         1 UNK         0.3000 
    131 H131        3.6604  -13.6913  -50.4068 H         1 UNK         0.0600 
    132 H132        1.5315  -14.7912  -51.1416 H         1 UNK         0.0800 
    133 H133        2.6353  -15.7719  -50.2416 H         1 UNK         0.0800 
    134 H134        0.8141  -16.9258  -47.1650 H         1 UNK         0.0800 
    135 H135        2.3690  -16.5436  -47.8480 H         1 UNK         0.0800 
    136 H136       -0.8612  -18.0653  -49.0859 H         1 UNK         0.1150 
    137 H137        1.0985  -21.4519  -50.8263 H         1 UNK         0.1150 
    138 H138        3.4020  -18.4307  -48.8396 H         1 UNK         0.1150 
    139 H139        3.5577  -21.4263  -51.0236 H         1 UNK         0.0800 
    140 H140        4.4608  -20.0800  -50.3908 H         1 UNK         0.0800 
    141 H141        4.0763  -24.1028  -49.1904 H         1 UNK         0.0800 
    142 H142        2.6970  -23.2997  -49.8642 H         1 UNK         0.0800 
    143 H143        2.2430  -24.8882  -47.9483 H         1 UNK         0.0600 
    144 H144        4.0445  -23.2122  -46.4859 H         1 UNK         0.3000 
    145 H145        3.1121  -24.4124  -43.2465 H         1 UNK         0.0600 
    146 H146        5.5519  -24.8326  -43.2024 H         1 UNK         0.0600 
    147 H147        4.7562  -26.0351  -44.2048 H         1 UNK         0.0600 
    148 H148        5.6390  -24.7134  -44.9599 H         1 UNK         0.0600 
    149 H149        5.0244  -22.4705  -44.0530 H         1 UNK         0.3000 
    150 H150        4.5294  -20.2608  -43.1420 H         1 UNK         0.0600 
    151 H151        4.8575  -20.4155  -45.6272 H         1 UNK         0.0600 
    152 H152        4.4055  -18.7781  -45.1887 H         1 UNK         0.0600 
    153 H153        3.2150  -19.8571  -45.9058 H         1 UNK         0.0600 
    154 H154        1.6889  -19.8823  -43.2600 H         1 UNK         0.3000 
    155 H155        1.6400  -17.6691  -40.9429 H         1 UNK         0.0600 
    156 H156        1.2539  -15.9934  -43.4496 H         1 UNK         0.0600 
    157 H157        2.3537  -15.6070  -42.1286 H         1 UNK         0.0600 
    158 H158        0.6265  -15.6449  -41.8358 H         1 UNK         0.0600 
    159 H159       -0.3516  -17.7572  -43.0309 H         1 UNK         0.3000 
    160 H160       -1.7222  -20.8215  -41.8088 H         1 UNK         0.0600 
    161 H161       -2.6470  -18.0809  -40.7909 H         1 UNK         0.0600 
    162 H162       -2.1013  -19.3999  -39.7623 H         1 UNK         0.0600 
    163 H163       -3.5624  -19.5846  -40.7114 H         1 UNK         0.0600 
    164 H164       -1.9863  -18.5667  -43.6725 H         1 UNK         0.3000 
    165 H165       -4.0370  -20.2886  -45.6507 H         1 UNK         0.0600 
    166 H166       -6.1934  -19.0290  -45.5167 H         1 UNK         0.0600 
    167 H167       -6.1153  -20.2872  -44.3019 H         1 UNK         0.0600 
    168 H168       -5.8489  -18.6101  -43.8403 H         1 UNK         0.0600 
    169 H169       -3.7472  -17.4458  -44.7837 H         1 UNK         0.3000 
    170 H170       -1.4557  -16.7563  -47.1546 H         1 UNK         0.0600 
    171 H171       -3.1895  -16.7633  -48.9554 H         1 UNK         0.0600 
    172 H172       -4.3119  -15.9301  -47.8862 H         1 UNK         0.0600 
    173 H173       -2.8274  -15.1341  -48.4155 H         1 UNK         0.0600 
    174 H174       -3.1893  -14.8967  -45.9338 H         1 UNK         0.3000 
    175 H175       -2.8285  -13.9212  -44.0410 H         1 UNK         0.0600 
    176 H176       -1.8815  -15.8282  -41.8197 H         1 UNK         0.0600 
    177 H177       -2.8083  -14.3489  -41.5894 H         1 UNK         0.0600 
    178 H178       -3.5331  -15.7177  -42.4157 H         1 UNK         0.0600 
    179 H179       -0.0022  -14.4541  -43.7355 H         1 UNK         0.3000 
    180 H180        0.7282  -11.0700  -43.1437 H         1 UNK         0.0600 
    181 H181        1.3511  -13.3062  -41.1412 H         1 UNK         0.0600 
    182 H182        0.5932  -11.7681  -40.7521 H         1 UNK         0.0600 
    183 H183        2.2506  -11.8007  -41.3297 H         1 UNK         0.0600 
    184 H184        2.4555  -13.3220  -43.3574 H         1 UNK         0.3000 
    185 H185        3.7750  -12.8581  -45.7186 H         1 UNK         0.0600 
    186 H186        3.7401  -15.3870  -46.0065 H         1 UNK         0.0600 
    187 H187        3.2740  -14.9205  -44.3953 H         1 UNK         0.0600 
    188 H188        2.0388  -15.3973  -45.5611 H         1 UNK         0.0600 
    189 H189        1.6101  -12.9852  -47.5629 H         1 UNK         0.3000 
    190 H190        1.9166  -21.6876  -46.4641 H         1 UNK         0.3000 
    191 H191       -0.6260  -21.0031  -47.5667 H         1 UNK         0.0600 
    192 H192        0.5736  -20.1258  -44.8875 H         1 UNK         0.0600 
    193 H193       -0.6765  -19.3127  -45.7804 H         1 UNK         0.0600 
    194 H194        0.9463  -19.3747  -46.4340 H         1 UNK         0.0600 
    195 H195        0.3146  -22.5541  -44.4709 H         1 UNK         0.3000 
    196 H196       -2.2896  -23.0454  -43.4857 H         1 UNK         0.0600 
    197 H197       -1.1042  -24.6119  -41.9417 H         1 UNK         0.0600 
    198 H198       -0.2558  -23.0779  -42.0751 H         1 UNK         0.0600 
    199 H199        0.3498  -24.4958  -42.9281 H         1 UNK         0.0600 
    200 H200       -0.1729  -25.0705  -45.5495 H         1 UNK         0.3000 
    201 H201       -1.8811  -27.3597  -45.6029 H         1 UNK         0.0600 
    202 H202        0.5244  -27.4828  -46.1556 H         1 UNK         0.0600 
    203 H203        0.2912  -26.4420  -47.5586 H         1 UNK         0.0600 
    204 H204       -0.4304  -28.0464  -47.5186 H         1 UNK         0.0600 
    205 H205       -1.5146  -24.5869  -47.8769 H         1 UNK         0.3000 
    206 H206       -3.4598  -25.5611  -49.7570 H         1 UNK         0.0600 
    207 H207       -1.5933  -24.0928  -50.4251 H         1 UNK         0.0600 
    208 H208       -3.1129  -23.2783  -50.7657 H         1 UNK         0.0600 
    209 H209       -2.1750  -22.8255  -49.3473 H         1 UNK         0.0600 
    210 H210       -3.6063  -23.2953  -47.0218 H         1 UNK         0.3000 
    211 H211       -5.1924  -22.2538  -45.9231 H         1 UNK         0.0600 
    212 H212       -7.1930  -24.2320  -47.1233 H         1 UNK         0.0600 
    213 H213       -7.4364  -23.2286  -45.7003 H         1 UNK         0.0600 
    214 H214       -6.2263  -24.5014  -45.6735 H         1 UNK         0.0600 
    215 H215       -4.3309  -20.9233  -48.0390 H         1 UNK         0.3000 
    216 H216       -4.6086  -19.2812  -49.4904 H         1 UNK         0.0600 
    217 H217       -6.5104  -17.7067  -49.1989 H         1 UNK         0.0600 
    218 H218       -5.7870  -18.1328  -47.6608 H         1 UNK         0.0600 
    219 H219       -7.3243  -18.8492  -48.1401 H         1 UNK         0.0600 
    220 H220       -4.5630  -21.1417  -50.9944 H         1 UNK         0.3000 
    221 H221       -6.8961  -22.1142  -52.3080 H         1 UNK         0.0600 
    222 H222       -3.9136  -22.1870  -52.9942 H         1 UNK         0.0600 
    223 H223       -4.8973  -23.4639  -52.2826 H         1 UNK         0.0600 
    224 H224       -5.1367  -23.0065  -53.9555 H         1 UNK         0.0600 
    225 H225       -7.2789  -21.9918  -54.6270 H         1 UNK         0.3000 
    226 H226       -8.1559  -19.4855  -55.4059 H         1 UNK         0.0600 
    227 H227       -9.1320  -21.6365  -56.1719 H         1 UNK         0.0600 
    228 H228       -8.7020  -20.6555  -57.5621 H         1 UNK         0.0600 
    229 H229       -7.6729  -22.0027  -57.0938 H         1 UNK         0.0600 
    230 H230       -7.7202  -18.1520  -57.1724 H         1 UNK         0.3000 
    231 H231       -6.5493  -16.7346  -58.3880 H         1 UNK         0.0600 
    232 H232       -6.2408  -18.7312  -59.8796 H         1 UNK         0.0600 
    233 H233       -4.6990  -19.0722  -59.0954 H         1 UNK         0.0600 
    234 H234       -4.9153  -17.5882  -60.0114 H         1 UNK         0.0600 
    235 H235       -5.9361  -16.9273  -55.6161 H         1 UNK         0.3000 
    236 H236       -4.6311  -16.1845  -53.9920 H         1 UNK         0.0600 
    237 H237       -3.0275  -14.3522  -54.4063 H         1 UNK         0.0600 
    238 H238       -3.0599  -14.6547  -56.1367 H         1 UNK         0.0600 
    239 H239       -4.5055  -14.0721  -55.3132 H         1 UNK         0.0600 
    240 H240       -4.2343  -18.6530  -54.3461 H         1 UNK         0.3000 
    241 H241       -2.9693  -20.4172  -54.0923 H         1 UNK         0.0600 
    242 H242       -1.9156  -20.3137  -57.6082 H         1 UNK         0.3800 
    243 H243       -3.3663  -19.9367  -56.7027 H         1 UNK         0.3800 
    244 H244       -0.7188  -20.2806  -53.0249 H         1 UNK         0.0800 
    245 H245       -0.7059  -18.5511  -53.2292 H         1 UNK         0.0800 
    246 H246       -1.9830  -20.5098  -49.5424 H         1 UNK         0.0800 
    247 H247       -1.2780  -21.3173  -50.9297 H         1 UNK         0.0800 
@<TRIPOS>BOND
     1    1    2 1    
     2    1  127 1    
     3    1  128 1    
     4    1  129 1    
     5    2    3 2    
     6    2    4 am   BACKBONE|DICT|INTERRES
     7    4    5 1    
     8    4  130 1    
     9    5    6 1    
    10    5   65 1    
    11    5  131 1    
    12    6    7 1    
    13    6  132 1    
    14    6  133 1    
    15    7    8 1    
    16    8    9 1    
    17    8  134 1    
    18    8  135 1    
    19    9   10 ar   
    20    9   14 ar   
    21   10   11 ar   
    22   10  136 1    
    23   11   12 ar   
    24   11  126 1    
    25   12   13 ar   
    26   12  137 1    
    27   13   14 ar   
    28   13   15 1    
    29   14  138 1    
    30   15   16 1    
    31   15  139 1    
    32   15  140 1    
    33   16   17 1    
    34   17   18 1    
    35   17  141 1    
    36   17  142 1    
    37   18   19 1    
    38   18   67 1    
    39   18  143 1    
    40   19   20 am   BACKBONE|DICT|INTERRES
    41   19  144 1    
    42   20   21 2    
    43   20   22 1    
    44   22   23 1    
    45   22   24 1    
    46   22  145 1    
    47   23  146 1    
    48   23  147 1    
    49   23  148 1    
    50   24   25 am   BACKBONE|DICT|INTERRES
    51   24  149 1    
    52   25   26 2    
    53   25   27 1    
    54   27   28 1    
    55   27   29 1    
    56   27  150 1    
    57   28  151 1    
    58   28  152 1    
    59   28  153 1    
    60   29   30 am   BACKBONE|DICT|INTERRES
    61   29  154 1    
    62   30   31 2    
    63   30   32 1    
    64   32   33 1    
    65   32   34 1    
    66   32  155 1    
    67   33  156 1    
    68   33  157 1    
    69   33  158 1    
    70   34   35 am   BACKBONE|DICT|INTERRES
    71   34  159 1    
    72   35   36 2    
    73   35   37 1    
    74   37   38 1    
    75   37   39 1    
    76   37  160 1    
    77   38  161 1    
    78   38  162 1    
    79   38  163 1    
    80   39   40 am   BACKBONE|DICT|INTERRES
    81   39  164 1    
    82   40   41 2    
    83   40   42 1    
    84   42   43 1    
    85   42   44 1    
    86   42  165 1    
    87   43  166 1    
    88   43  167 1    
    89   43  168 1    
    90   44   45 am   BACKBONE|DICT|INTERRES
    91   44  169 1    
    92   45   46 2    
    93   45   47 1    
    94   47   48 1    
    95   47   49 1    
    96   47  170 1    
    97   48  171 1    
    98   48  172 1    
    99   48  173 1    
   100   49   50 am   BACKBONE|DICT|INTERRES
   101   49  174 1    
   102   50   51 2    
   103   50   52 1    
   104   52   53 1    
   105   52   54 1    
   106   52  175 1    
   107   53  176 1    
   108   53  177 1    
   109   53  178 1    
   110   54   55 am   BACKBONE|DICT|INTERRES
   111   54  179 1    
   112   55   56 2    
   113   55   57 1    
   114   57   58 1    
   115   57   59 1    
   116   57  180 1    
   117   58  181 1    
   118   58  182 1    
   119   58  183 1    
   120   59   60 am   BACKBONE|DICT|INTERRES
   121   59  184 1    
   122   60   61 2    
   123   60   62 1    
   124   62   63 1    
   125   62   64 1    
   126   62  185 1    
   127   63  186 1    
   128   63  187 1    
   129   63  188 1    
   130   64   65 am   BACKBONE|DICT|INTERRES
   131   64  189 1    
   132   65   66 2    
   133   67   68 2    
   134   67   69 am   BACKBONE|DICT|INTERRES
   135   69   70 1    
   136   69  190 1    
   137   70   71 1    
   138   70   72 1    
   139   70  191 1    
   140   71  192 1    
   141   71  193 1    
   142   71  194 1    
   143   72   73 2    
   144   72   74 am   BACKBONE|DICT|INTERRES
   145   74   75 1    
   146   74  195 1    
   147   75   76 1    
   148   75   77 1    
   149   75  196 1    
   150   76  197 1    
   151   76  198 1    
   152   76  199 1    
   153   77   78 2    
   154   77   79 am   BACKBONE|DICT|INTERRES
   155   79   80 1    
   156   79  200 1    
   157   80   81 1    
   158   80   82 1    
   159   80  201 1    
   160   81  202 1    
   161   81  203 1    
   162   81  204 1    
   163   82   83 2    
   164   82   84 am   BACKBONE|DICT|INTERRES
   165   84   85 1    
   166   84  205 1    
   167   85   86 1    
   168   85   87 1    
   169   85  206 1    
   170   86  207 1    
   171   86  208 1    
   172   86  209 1    
   173   87   88 2    
   174   87   89 am   BACKBONE|DICT|INTERRES
   175   89   90 1    
   176   89  210 1    
   177   90   91 1    
   178   90   92 1    
   179   90  211 1    
   180   91  212 1    
   181   91  213 1    
   182   91  214 1    
   183   92   93 2    
   184   92   94 am   BACKBONE|DICT|INTERRES
   185   94   95 1    
   186   94  215 1    
   187   95   96 1    
   188   95   97 1    
   189   95  216 1    
   190   96  217 1    
   191   96  218 1    
   192   96  219 1    
   193   97   98 2    
   194   97   99 am   BACKBONE|DICT|INTERRES
   195   99  100 1    
   196   99  220 1    
   197  100  101 1    
   198  100  102 1    
   199  100  221 1    
   200  101  222 1    
   201  101  223 1    
   202  101  224 1    
   203  102  103 2    
   204  102  104 am   BACKBONE|DICT|INTERRES
   205  104  105 1    
   206  104  225 1    
   207  105  106 1    
   208  105  107 1    
   209  105  226 1    
   210  106  227 1    
   211  106  228 1    
   212  106  229 1    
   213  107  108 2    
   214  107  109 am   BACKBONE|DICT|INTERRES
   215  109  110 1    
   216  109  230 1    
   217  110  111 1    
   218  110  112 1    
   219  110  231 1    
   220  111  232 1    
   221  111  233 1    
   222  111  234 1    
   223  112  113 2    
   224  112  114 am   BACKBONE|DICT|INTERRES
   225  114  115 1    
   226  114  235 1    
   227  115  116 1    
   228  115  117 1    
   229  115  236 1    
   230  116  237 1    
   231  116  238 1    
   232  116  239 1    
   233  117  118 2    
   234  117  119 am   BACKBONE|DICT|INTERRES
   235  119  120 1    
   236  119  240 1    
   237  120  121 1    
   238  120  124 1    
   239  120  241 1    
   240  121  122 am   BACKBONE|DICT|INTERRES
   241  121  123 2    
   242  122  242 1    
   243  122  243 1    
   244  124  125 1    
   245  124  244 1    
   246  124  245 1    
   247  125  126 1    
   248  126  246 1    
   249  126  247 1    
@<TRIPOS>SUBSTRUCTURE
     1 UNK         1 GROUP             0       ****    0 ROOT    
