@<TRIPOS>MOLECULE
3R540
247   249    1
SMALL
USER_CHARGES


@<TRIPOS>ATOM
      1 CA          5.4198  -15.7558  -50.5212 C.3       0 UNK        -0.1800 
      2 C           4.6182  -15.6865  -49.2295 C.2       0 UNK         0.5000 
      3 O           4.8038  -16.5257  -48.3493 O.2       0 UNK        -0.5000 
      4 N           3.7233  -14.6950  -49.1181 N.am      1 UNK        -0.5000 
      5 CA          2.8652  -14.4671  -47.9451 C.3       1 UNK         0.1400 
      6 C6          1.6563  -13.5507  -48.2924 C.3       23 UNK        -0.0398 
      7 S7          0.0757  -14.1651  -47.6089 S.3       23 UNK        -0.2404 
      8 C8         -0.9423  -14.4630  -49.1027 C.3       23 UNK        -0.0205 
      9 C9         -0.8064  -15.8684  -49.6893 C.ar      23 UNK        -0.0193 
     10 C10        -1.9480  -16.5916  -50.0585 C.ar      23 UNK        -0.1150 
     11 C11        -1.8342  -17.8660  -50.6266 C.ar      23 UNK        -0.0193 
     12 C12        -0.5680  -18.4300  -50.7993 C.ar      23 UNK        -0.1150 
     13 C13         0.5794  -17.7185  -50.4447 C.ar      23 UNK        -0.0193 
     14 C14         0.4508  -16.4373  -49.9077 C.ar      23 UNK        -0.1150 
     15 C15         1.9648  -18.3204  -50.6321 C.3       23 UNK        -0.0205 
     16 S16         2.1557  -19.9626  -49.8684 S.3       23 UNK        -0.2404 
     17 C17         1.5221  -19.7122  -48.1704 C.3       23 UNK        -0.0398 
     18 CA          0.8361  -20.9916  -47.6410 C.3       11 UNK         0.1400 
     19 N           0.8243  -21.0491  -46.1785 N.am      11 UNK        -0.5000 
     20 C           0.6673  -22.1892  -45.4919 C.2       10 UNK         0.5000 
     21 O           0.5189  -23.2895  -46.0256 O.2       10 UNK        -0.5000 
     22 CA          0.6422  -22.0812  -43.9577 C.3       10 UNK         0.1400 
     23 CB          2.0626  -21.8957  -43.4034 C.3       10 UNK        -0.1800 
     24 N          -0.2196  -21.0003  -43.4793 N.am      10 UNK        -0.5000 
     25 C          -1.5453  -20.9475  -43.6724 C.2       9 UNK         0.5000 
     26 O          -2.1859  -21.8189  -44.2590 O.2       9 UNK        -0.5000 
     27 CA         -2.2747  -19.6903  -43.1665 C.3       9 UNK         0.1400 
     28 CB         -2.5082  -19.7659  -41.6506 C.3       9 UNK        -0.1800 
     29 N          -1.5719  -18.4500  -43.4939 N.am      9 UNK        -0.5000 
     30 C          -1.2856  -18.0370  -44.7372 C.2       8 UNK         0.5000 
     31 O          -1.5831  -18.6570  -45.7540 O.2       8 UNK        -0.5000 
     32 CA         -0.4820  -16.7373  -44.8645 C.3       8 UNK         0.1400 
     33 CB         -1.3800  -15.5173  -44.6036 C.3       8 UNK        -0.1800 
     34 N           0.6685  -16.7396  -43.9626 N.am      8 UNK        -0.5000 
     35 C           1.7210  -17.5617  -44.0935 C.2       7 UNK         0.5000 
     36 O           1.8620  -18.3556  -45.0254 O.2       7 UNK        -0.5000 
     37 CA          2.7566  -17.5365  -42.9557 C.3       7 UNK         0.1400 
     38 CB          3.8184  -16.4539  -43.2000 C.3       7 UNK        -0.1800 
     39 N           2.1316  -17.3352  -41.6458 N.am      7 UNK        -0.5000 
     40 C           1.3959  -18.2679  -41.0216 C.2       6 UNK         0.5000 
     41 O           1.1885  -19.3894  -41.4834 O.2       6 UNK        -0.5000 
     42 CA          0.7466  -17.8784  -39.6794 C.3       6 UNK         0.1400 
     43 CB          1.7160  -18.1366  -38.5169 C.3       6 UNK        -0.1800 
     44 N           0.2957  -16.4872  -39.6327 N.am      6 UNK        -0.5000 
     45 C          -0.6353  -15.9570  -40.4363 C.2       5 UNK         0.5000 
     46 O          -1.2396  -16.6037  -41.2925 O.2       5 UNK        -0.5000 
     47 CA         -0.9036  -14.4426  -40.3149 C.3       5 UNK         0.1400 
     48 CB         -0.3651  -13.8082  -39.0127 C.3       5 UNK        -0.1800 
     49 N          -0.3966  -13.7182  -41.4863 N.am      5 UNK        -0.5000 
     50 C           0.8629  -13.7205  -41.9482 C.2       4 UNK         0.5000 
     51 O           1.7792  -14.3561  -41.4201 O.2       4 UNK        -0.5000 
     52 CA          1.1420  -12.9378  -43.2484 C.3       4 UNK         0.1400 
     53 CB          0.1263  -11.8146  -43.5533 C.3       4 UNK        -0.1800 
     54 N           2.5179  -12.4457  -43.2964 N.am      4 UNK        -0.5000 
     55 C           3.0911  -11.5372  -42.4931 C.2       3 UNK         0.5000 
     56 O           2.4776  -10.8958  -41.6385 O.2       3 UNK        -0.5000 
     57 CA          4.6113  -11.3104  -42.6465 C.3       3 UNK         0.1400 
     58 CB          5.3453  -11.6678  -41.3431 C.3       3 UNK        -0.1800 
     59 N           5.2155  -12.0784  -43.7374 N.am      3 UNK        -0.5000 
     60 C           5.1363  -11.7749  -45.0388 C.2       2 UNK         0.5000 
     61 O           4.5694  -10.7702  -45.4719 O.2       2 UNK        -0.5000 
     62 CA          5.7804  -12.7650  -46.0328 C.3       2 UNK         0.1400 
     63 CB          6.5391  -13.9354  -45.3651 C.3       2 UNK        -0.1800 
     64 N           4.8066  -13.2870  -46.9954 N.am      2 UNK        -0.5000 
     65 C           3.6630  -13.9404  -46.7295 C.2       1 UNK         0.5000 
     66 O           3.2450  -14.1541  -45.5917 O.2       1 UNK        -0.5000 
     67 C          -0.5668  -21.2354  -48.2450 C.2       11 UNK         0.5000 
     68 O          -0.6704  -21.8974  -49.2773 O.2       11 UNK        -0.5000 
     69 N          -1.6307  -20.7756  -47.5692 N.am      12 UNK        -0.5000 
     70 CA         -3.0178  -21.0873  -47.9152 C.3       12 UNK         0.1400 
     71 CB         -3.9901  -20.2463  -47.0775 C.3       12 UNK        -0.1800 
     72 C          -3.3308  -22.5851  -47.7772 C.2       12 UNK         0.5000 
     73 O          -3.9663  -23.1442  -48.6690 O.2       12 UNK        -0.5000 
     74 N          -2.8467  -23.2244  -46.7028 N.am      13 UNK        -0.5000 
     75 CA         -2.9484  -24.6696  -46.4871 C.3       13 UNK         0.1400 
     76 CB         -2.4432  -25.0315  -45.0831 C.3       13 UNK        -0.1800 
     77 C          -2.2142  -25.4830  -47.5695 C.2       13 UNK         0.5000 
     78 O          -2.7669  -26.4682  -48.0595 O.2       13 UNK        -0.5000 
     79 N          -1.0212  -25.0217  -47.9750 N.am      14 UNK        -0.5000 
     80 CA         -0.2528  -25.5753  -49.0961 C.3       14 UNK         0.1400 
     81 CB          1.1417  -24.9326  -49.1324 C.3       14 UNK        -0.1800 
     82 C          -0.9681  -25.4205  -50.4558 C.2       14 UNK         0.5000 
     83 O          -0.8460  -26.2972  -51.3109 O.2       14 UNK        -0.5000 
     84 N          -1.7491  -24.3425  -50.6050 N.am      15 UNK        -0.5000 
     85 CA         -2.6464  -24.0663  -51.7298 C.3       15 UNK         0.1400 
     86 CB         -2.7920  -22.5405  -51.8737 C.3       15 UNK        -0.1800 
     87 C          -4.0224  -24.7634  -51.6008 C.2       15 UNK         0.5000 
     88 O          -4.9625  -24.3722  -52.2962 O.2       15 UNK        -0.5000 
     89 N          -4.1271  -25.7687  -50.7169 N.am      16 UNK        -0.5000 
     90 CA         -5.2988  -26.6052  -50.4386 C.3       16 UNK         0.1400 
     91 CB         -5.6718  -27.4538  -51.6723 C.3       16 UNK        -0.1800 
     92 C          -6.4793  -25.7974  -49.8651 C.2       16 UNK         0.5000 
     93 O          -7.6046  -25.9100  -50.3502 O.2       16 UNK        -0.5000 
     94 N          -6.1775  -24.9760  -48.8498 N.am      17 UNK        -0.5000 
     95 CA         -7.0573  -23.9959  -48.2003 C.3       17 UNK         0.1400 
     96 CB         -8.2662  -24.6749  -47.5228 C.3       17 UNK        -0.1800 
     97 C          -7.4455  -22.8565  -49.1650 C.2       17 UNK         0.5000 
     98 O          -8.5998  -22.4263  -49.1935 O.2       17 UNK        -0.5000 
     99 N          -6.4517  -22.4098  -49.9480 N.am      18 UNK        -0.5000 
    100 CA        -6.5250  -21.4018  -51.0103 C.3       18 UNK         0.1400 
    101 CB        -6.7608  -20.0002  -50.4123 C.3       18 UNK        -0.1800 
    102 C         -7.5221  -21.7644  -52.1335 C.2       18 UNK         0.5000 
    103 O         -8.1491  -20.8766  -52.7147 O.2       18 UNK        -0.5000 
    104 N         -7.6495  -23.0674  -52.4222 N.am      19 UNK        -0.5000 
    105 CA        -8.4225  -23.5916  -53.5472 C.3       19 UNK         0.1400 
    106 CB        -8.7949  -25.0568  -53.2839 C.3       19 UNK        -0.1800 
    107 C         -7.6472  -23.4555  -54.8682 C.2       19 UNK         0.5000 
    108 O         -8.2621  -23.2218  -55.9101 O.2       19 UNK        -0.5000 
    109 N         -6.3133  -23.5750  -54.8008 N.am      20 UNK        -0.5000 
    110 CA        -5.4049  -23.2329  -55.8918 C.3       20 UNK         0.1400 
    111 CB        -4.0235  -23.8429  -55.6109 C.3       20 UNK        -0.1800 
    112 C         -5.3083  -21.7040  -56.0494 C.2       20 UNK         0.5000 
    113 O         -5.4323  -20.9728  -55.0626 O.2       20 UNK        -0.5000 
    114 N         -5.0766  -21.2487  -57.2859 N.am      21 UNK        -0.5000 
    115 CA        -4.9831  -19.8384  -57.6662 C.3       21 UNK         0.1400 
    116 CB        -5.2137  -19.7221  -59.1840 C.3       21 UNK        -0.1800 
    117 C         -3.6481  -19.2065  -57.2203 C.2       21 UNK         0.5000 
    118 O         -2.7806  -18.9333  -58.0524 O.2       21 UNK        -0.5000 
    119 N         -3.5006  -19.0105  -55.9059 N.am      22 UNK        -0.5000 
    120 CA        -2.3221  -18.4098  -55.2634 C.3       22 UNK         0.1400 
    121 C         -2.1389  -16.8782  -55.4913 C.2       22 UNK         0.5000 
    122 N         -3.1295  -16.1557  -56.0009 N.am      22 UNK        -0.7600 
    123 O         -1.0695  -16.3400  -55.2183 O.2       22 UNK        -0.5000 
    124 C124       -2.2309  -18.7937  -53.7645 C.3       23 UNK        -0.0398 
    125 S125       -3.6220  -18.1910  -52.7377 S.3       23 UNK        -0.2404 
    126 C126       -3.0718  -18.6398  -51.0586 C.3       23 UNK        -0.0205 
    127 H127        6.4845  -15.6633  -50.3072 H         1 UNK         0.0600 
    128 H128        5.1416  -14.9623  -51.2152 H         1 UNK         0.0600 
    129 H129        5.2520  -16.7130  -51.0150 H         1 UNK         0.0600 
    130 H130        3.6223  -14.0365  -49.8778 H         1 UNK         0.3000 
    131 H131        2.4838  -15.4467  -47.6469 H         1 UNK         0.0600 
    132 H132        1.8079  -12.5273  -47.9431 H         1 UNK         0.0800 
    133 H133        1.5429  -13.4598  -49.3731 H         1 UNK         0.0800 
    134 H134       -1.9818  -14.2843  -48.8240 H         1 UNK         0.0800 
    135 H135       -0.7100  -13.7262  -49.8723 H         1 UNK         0.0800 
    136 H136       -2.9286  -16.1582  -49.9207 H         1 UNK         0.1150 
    137 H137       -0.4730  -19.4223  -51.2184 H         1 UNK         0.1150 
    138 H138        1.3394  -15.8852  -49.6575 H         1 UNK         0.1150 
    139 H139        2.1748  -18.3995  -51.6993 H         1 UNK         0.0800 
    140 H140        2.7290  -17.6650  -50.2156 H         1 UNK         0.0800 
    141 H141        0.8488  -18.8574  -48.1009 H         1 UNK         0.0800 
    142 H142        2.3826  -19.4622  -47.5481 H         1 UNK         0.0800 
    143 H143        1.4541  -21.8327  -47.9642 H         1 UNK         0.0600 
    144 H144        0.9493  -20.1743  -45.6806 H         1 UNK         0.3000 
    145 H145        0.2459  -23.0207  -43.5669 H         1 UNK         0.0600 
    146 H146        2.0663  -21.9265  -42.3137 H         1 UNK         0.0600 
    147 H147        2.7264  -22.6875  -43.7528 H         1 UNK         0.0600 
    148 H148        2.4943  -20.9427  -43.7118 H         1 UNK         0.0600 
    149 H149        0.2300  -20.2658  -42.9402 H         1 UNK         0.3000 
    150 H150       -3.2491  -19.6531  -43.6575 H         1 UNK         0.0600 
    151 H151       -3.0683  -20.6637  -41.3864 H         1 UNK         0.0600 
    152 H152       -3.0806  -18.9084  -41.2963 H         1 UNK         0.0600 
    153 H153       -1.5684  -19.7911  -41.0992 H         1 UNK         0.0600 
    154 H154       -1.3190  -17.8524  -42.7112 H         1 UNK         0.3000 
    155 H155       -0.1104  -16.6740  -45.8896 H         1 UNK         0.0600 
    156 H156       -2.2456  -15.5292  -45.2672 H         1 UNK         0.0600 
    157 H157       -1.7557  -15.4899  -43.5817 H         1 UNK         0.0600 
    158 H158       -0.8525  -14.5858  -44.7940 H         1 UNK         0.0600 
    159 H159        0.5997  -16.1833  -43.1245 H         1 UNK         0.3000 
    160 H160        3.2623  -18.5045  -42.9481 H         1 UNK         0.0600 
    161 H161        3.3838  -15.4549  -43.2118 H         1 UNK         0.0600 
    162 H162        4.3119  -16.6035  -44.1613 H         1 UNK         0.0600 
    163 H163        4.5894  -16.4748  -42.4300 H         1 UNK         0.0600 
    164 H164        2.2054  -16.4077  -41.2412 H         1 UNK         0.3000 
    165 H165       -0.1289  -18.5153  -39.5395 H         1 UNK         0.0600 
    166 H166        1.2384  -17.9480  -37.5552 H         1 UNK         0.0600 
    167 H167        2.0532  -19.1741  -38.5132 H         1 UNK         0.0600 
    168 H168        2.6018  -17.5035  -38.5829 H         1 UNK         0.0600 
    169 H169        0.7727  -15.8769  -38.9852 H         1 UNK         0.3000 
    170 H170       -1.9881  -14.3245  -40.3164 H         1 UNK         0.0600 
    171 H171        0.7235  -13.8346  -38.9543 H         1 UNK         0.0600 
    172 H172       -0.6691  -12.7641  -38.9384 H         1 UNK         0.0600 
    173 H173       -0.7599  -14.3190  -38.1335 H         1 UNK         0.0600 
    174 H174       -1.0882  -13.1902  -41.9992 H         1 UNK         0.3000 
    175 H175        1.0778  -13.6669  -44.0553 H         1 UNK         0.0600 
    176 H176        0.4139  -11.2632  -44.4487 H         1 UNK         0.0600 
    177 H177        0.0478  -11.0997  -42.7337 H         1 UNK         0.0600 
    178 H178       -0.8695  -12.2182  -43.7383 H         1 UNK         0.0600 
    179 H179        3.1072  -12.9331  -43.9629 H         1 UNK         0.3000 
    180 H180        4.7620  -10.2468  -42.8425 H         1 UNK         0.0600 
    181 H181        5.2157  -12.7199  -41.0858 H         1 UNK         0.0600 
    182 H182        4.9706  -11.0773  -40.5060 H         1 UNK         0.0600 
    183 H183        6.4143  -11.4694  -41.4238 H         1 UNK         0.0600 
    184 H184        5.6841  -12.9332  -43.4746 H         1 UNK         0.3000 
    185 H185        6.5061  -12.1875  -46.6071 H         1 UNK         0.0600 
    186 H186        7.3341  -13.5724  -44.7125 H         1 UNK         0.0600 
    187 H187        5.8799  -14.5710  -44.7727 H         1 UNK         0.0600 
    188 H188        7.0106  -14.5686  -46.1169 H         1 UNK         0.0600 
    189 H189        5.0428  -13.1469  -47.9670 H         1 UNK         0.3000 
    190 H190       -1.4917  -20.1722  -46.7611 H         1 UNK         0.3000 
    191 H191       -3.1667  -20.8177  -48.9608 H         1 UNK         0.0600 
    192 H192       -3.8434  -19.1814  -47.2586 H         1 UNK         0.0600 
    193 H193       -5.0256  -20.4788  -47.3296 H         1 UNK         0.0600 
    194 H194       -3.8627  -20.4265  -46.0101 H         1 UNK         0.0600 
    195 H195       -2.3838  -22.6870  -45.9747 H         1 UNK         0.3000 
    196 H196       -4.0062  -24.9352  -46.5379 H         1 UNK         0.0600 
    197 H197       -2.5327  -26.1030  -44.9002 H         1 UNK         0.0600 
    198 H198       -3.0226  -24.5213  -44.3135 H         1 UNK         0.0600 
    199 H199       -1.3965  -24.7617  -44.9456 H         1 UNK         0.0600 
    200 H200       -0.6149  -24.2307  -47.4864 H         1 UNK         0.3000 
    201 H201       -0.1263  -26.6441  -48.9115 H         1 UNK         0.0600 
    202 H202        1.6604  -25.0582  -48.1817 H         1 UNK         0.0600 
    203 H203        1.0906  -23.8658  -49.3476 H         1 UNK         0.0600 
    204 H204        1.7604  -25.3910  -49.9047 H         1 UNK         0.0600 
    205 H205       -1.7426  -23.6480  -49.8666 H         1 UNK         0.3000 
    206 H206       -2.1885  -24.4450  -52.6454 H         1 UNK         0.0600 
    207 H207       -1.8218  -22.0651  -52.0189 H         1 UNK         0.0600 
    208 H208       -3.4156  -22.2683  -52.7252 H         1 UNK         0.0600 
    209 H209       -3.2458  -22.1012  -50.9877 H         1 UNK         0.0600 
    210 H210       -3.3156  -25.9760  -50.1488 H         1 UNK         0.3000 
    211 H211       -4.9992  -27.2969  -49.6500 H         1 UNK         0.0600 
    212 H212       -5.9737  -26.8367  -52.5177 H         1 UNK         0.0600 
    213 H213       -6.4980  -28.1294  -51.4481 H         1 UNK         0.0600 
    214 H214       -4.8302  -28.0675  -51.9933 H         1 UNK         0.0600 
    215 H215       -5.1986  -24.8878  -48.6063 H         1 UNK         0.3000 
    216 H216       -6.4641  -23.5328  -47.4106 H         1 UNK         0.0600 
    217 H217       -8.8236  -23.9590  -46.9178 H         1 UNK         0.0600 
    218 H218       -7.9464  -25.4794  -46.8607 H         1 UNK         0.0600 
    219 H219       -8.9616  -25.0940  -48.2503 H         1 UNK         0.0600 
    220 H220       -5.5364  -22.8229  -49.7972 H         1 UNK         0.3000 
    221 H221       -5.5434  -21.3895  -51.4848 H         1 UNK         0.0600 
    222 H222       -7.7537  -19.9112  -49.9707 H         1 UNK         0.0600 
    223 H223       -6.0271  -19.7734  -49.6391 H         1 UNK         0.0600 
    224 H224       -6.6706  -19.2288  -51.1781 H         1 UNK         0.0600 
    225 H225       -7.0711  -23.7301  -51.9209 H         1 UNK         0.3000 
    226 H226       -9.3484  -23.0197  -53.6385 H         1 UNK         0.0600 
    227 H227       -9.3836  -25.1552  -52.3717 H         1 UNK         0.0600 
    228 H228       -9.3916  -25.4615  -54.1021 H         1 UNK         0.0600 
    229 H229       -7.9097  -25.6839  -53.1812 H         1 UNK         0.0600 
    230 H230       -5.8858  -23.7576  -53.8973 H         1 UNK         0.3000 
    231 H231       -5.7931  -23.6633  -56.8174 H         1 UNK         0.0600 
    232 H232       -3.5688  -23.4176  -54.7176 H         1 UNK         0.0600 
    233 H233       -3.3407  -23.6628  -56.4420 H         1 UNK         0.0600 
    234 H234       -4.0892  -24.9220  -55.4707 H         1 UNK         0.0600 
    235 H235       -4.9495  -21.9158  -58.0333 H         1 UNK         0.3000 
    236 H236       -5.7861  -19.2893  -57.1695 H         1 UNK         0.0600 
    237 H237       -6.1974  -20.1004  -59.4629 H         1 UNK         0.0600 
    238 H238       -5.1642  -18.6818  -59.5081 H         1 UNK         0.0600 
    239 H239       -4.4672  -20.2795  -59.7512 H         1 UNK         0.0600 
    240 H240       -4.2384  -19.3309  -55.2870 H         1 UNK         0.3000 
    241 H241       -1.4527  -18.8645  -55.7425 H         1 UNK         0.0600 
    242 H242       -4.0143  -16.5839  -56.2199 H         1 UNK         0.3800 
    243 H243       -2.9981  -15.1679  -56.1513 H         1 UNK         0.3800 
    244 H244       -2.1816  -19.8789  -53.6661 H         1 UNK         0.0800 
    245 H245       -1.2931  -18.4151  -53.3597 H         1 UNK         0.0800 
    246 H246       -2.8778  -19.7114  -51.0242 H         1 UNK         0.0800 
    247 H247       -3.8848  -18.4525  -50.3558 H         1 UNK         0.0800 
@<TRIPOS>BOND
     1    1    2 1    
     2    1  127 1    
     3    1  128 1    
     4    1  129 1    
     5    2    3 2    
     6    2    4 am   BACKBONE|DICT|INTERRES
     7    4    5 1    
     8    4  130 1    
     9    5    6 1    
    10    5   65 1    
    11    5  131 1    
    12    6    7 1    
    13    6  132 1    
    14    6  133 1    
    15    7    8 1    
    16    8    9 1    
    17    8  134 1    
    18    8  135 1    
    19    9   10 ar   
    20    9   14 ar   
    21   10   11 ar   
    22   10  136 1    
    23   11   12 ar   
    24   11  126 1    
    25   12   13 ar   
    26   12  137 1    
    27   13   14 ar   
    28   13   15 1    
    29   14  138 1    
    30   15   16 1    
    31   15  139 1    
    32   15  140 1    
    33   16   17 1    
    34   17   18 1    
    35   17  141 1    
    36   17  142 1    
    37   18   19 1    
    38   18   67 1    
    39   18  143 1    
    40   19   20 am   BACKBONE|DICT|INTERRES
    41   19  144 1    
    42   20   21 2    
    43   20   22 1    
    44   22   23 1    
    45   22   24 1    
    46   22  145 1    
    47   23  146 1    
    48   23  147 1    
    49   23  148 1    
    50   24   25 am   BACKBONE|DICT|INTERRES
    51   24  149 1    
    52   25   26 2    
    53   25   27 1    
    54   27   28 1    
    55   27   29 1    
    56   27  150 1    
    57   28  151 1    
    58   28  152 1    
    59   28  153 1    
    60   29   30 am   BACKBONE|DICT|INTERRES
    61   29  154 1    
    62   30   31 2    
    63   30   32 1    
    64   32   33 1    
    65   32   34 1    
    66   32  155 1    
    67   33  156 1    
    68   33  157 1    
    69   33  158 1    
    70   34   35 am   BACKBONE|DICT|INTERRES
    71   34  159 1    
    72   35   36 2    
    73   35   37 1    
    74   37   38 1    
    75   37   39 1    
    76   37  160 1    
    77   38  161 1    
    78   38  162 1    
    79   38  163 1    
    80   39   40 am   BACKBONE|DICT|INTERRES
    81   39  164 1    
    82   40   41 2    
    83   40   42 1    
    84   42   43 1    
    85   42   44 1    
    86   42  165 1    
    87   43  166 1    
    88   43  167 1    
    89   43  168 1    
    90   44   45 am   BACKBONE|DICT|INTERRES
    91   44  169 1    
    92   45   46 2    
    93   45   47 1    
    94   47   48 1    
    95   47   49 1    
    96   47  170 1    
    97   48  171 1    
    98   48  172 1    
    99   48  173 1    
   100   49   50 am   BACKBONE|DICT|INTERRES
   101   49  174 1    
   102   50   51 2    
   103   50   52 1    
   104   52   53 1    
   105   52   54 1    
   106   52  175 1    
   107   53  176 1    
   108   53  177 1    
   109   53  178 1    
   110   54   55 am   BACKBONE|DICT|INTERRES
   111   54  179 1    
   112   55   56 2    
   113   55   57 1    
   114   57   58 1    
   115   57   59 1    
   116   57  180 1    
   117   58  181 1    
   118   58  182 1    
   119   58  183 1    
   120   59   60 am   BACKBONE|DICT|INTERRES
   121   59  184 1    
   122   60   61 2    
   123   60   62 1    
   124   62   63 1    
   125   62   64 1    
   126   62  185 1    
   127   63  186 1    
   128   63  187 1    
   129   63  188 1    
   130   64   65 am   BACKBONE|DICT|INTERRES
   131   64  189 1    
   132   65   66 2    
   133   67   68 2    
   134   67   69 am   BACKBONE|DICT|INTERRES
   135   69   70 1    
   136   69  190 1    
   137   70   71 1    
   138   70   72 1    
   139   70  191 1    
   140   71  192 1    
   141   71  193 1    
   142   71  194 1    
   143   72   73 2    
   144   72   74 am   BACKBONE|DICT|INTERRES
   145   74   75 1    
   146   74  195 1    
   147   75   76 1    
   148   75   77 1    
   149   75  196 1    
   150   76  197 1    
   151   76  198 1    
   152   76  199 1    
   153   77   78 2    
   154   77   79 am   BACKBONE|DICT|INTERRES
   155   79   80 1    
   156   79  200 1    
   157   80   81 1    
   158   80   82 1    
   159   80  201 1    
   160   81  202 1    
   161   81  203 1    
   162   81  204 1    
   163   82   83 2    
   164   82   84 am   BACKBONE|DICT|INTERRES
   165   84   85 1    
   166   84  205 1    
   167   85   86 1    
   168   85   87 1    
   169   85  206 1    
   170   86  207 1    
   171   86  208 1    
   172   86  209 1    
   173   87   88 2    
   174   87   89 am   BACKBONE|DICT|INTERRES
   175   89   90 1    
   176   89  210 1    
   177   90   91 1    
   178   90   92 1    
   179   90  211 1    
   180   91  212 1    
   181   91  213 1    
   182   91  214 1    
   183   92   93 2    
   184   92   94 am   BACKBONE|DICT|INTERRES
   185   94   95 1    
   186   94  215 1    
   187   95   96 1    
   188   95   97 1    
   189   95  216 1    
   190   96  217 1    
   191   96  218 1    
   192   96  219 1    
   193   97   98 2    
   194   97   99 am   BACKBONE|DICT|INTERRES
   195   99  100 1    
   196   99  220 1    
   197  100  101 1    
   198  100  102 1    
   199  100  221 1    
   200  101  222 1    
   201  101  223 1    
   202  101  224 1    
   203  102  103 2    
   204  102  104 am   BACKBONE|DICT|INTERRES
   205  104  105 1    
   206  104  225 1    
   207  105  106 1    
   208  105  107 1    
   209  105  226 1    
   210  106  227 1    
   211  106  228 1    
   212  106  229 1    
   213  107  108 2    
   214  107  109 am   BACKBONE|DICT|INTERRES
   215  109  110 1    
   216  109  230 1    
   217  110  111 1    
   218  110  112 1    
   219  110  231 1    
   220  111  232 1    
   221  111  233 1    
   222  111  234 1    
   223  112  113 2    
   224  112  114 am   BACKBONE|DICT|INTERRES
   225  114  115 1    
   226  114  235 1    
   227  115  116 1    
   228  115  117 1    
   229  115  236 1    
   230  116  237 1    
   231  116  238 1    
   232  116  239 1    
   233  117  118 2    
   234  117  119 am   BACKBONE|DICT|INTERRES
   235  119  120 1    
   236  119  240 1    
   237  120  121 1    
   238  120  124 1    
   239  120  241 1    
   240  121  122 am   BACKBONE|DICT|INTERRES
   241  121  123 2    
   242  122  242 1    
   243  122  243 1    
   244  124  125 1    
   245  124  244 1    
   246  124  245 1    
   247  125  126 1    
   248  126  246 1    
   249  126  247 1    
@<TRIPOS>SUBSTRUCTURE
     1 UNK         1 GROUP             0       ****    0 ROOT    
