@<TRIPOS>MOLECULE
3R540
247   249    1
SMALL
USER_CHARGES


@<TRIPOS>ATOM
      1 CA         -1.1167  -12.0728  -44.8263 C.3       0 UNK        -0.1800 
      2 C          -0.4834  -12.1655  -46.2075 C.2       0 UNK         0.5000 
      3 O           0.3616  -11.3403  -46.5533 O.2       0 UNK        -0.5000 
      4 N          -0.8667  -13.1811  -46.9928 N.am      1 UNK        -0.5000 
      5 CA         -0.3401  -13.4651  -48.3369 C.3       1 UNK         0.1400 
      6 C6         -1.2129  -14.4913  -49.1025 C.3       23 UNK        -0.0398 
      7 S7         -1.5114  -16.0493  -48.1955 S.3       23 UNK        -0.2404 
      8 C8         -2.2353  -17.0942  -49.4948 C.3       23 UNK        -0.0205 
      9 C9         -1.1593  -17.7049  -50.3764 C.ar      23 UNK        -0.0193 
     10 C10        -0.7938  -17.0956  -51.5794 C.ar      23 UNK        -0.1150 
     11 C11         0.2181  -17.6438  -52.3728 C.ar      23 UNK        -0.0193 
     12 C12         0.8811  -18.7961  -51.9400 C.ar      23 UNK        -0.1150 
     13 C13         0.4978  -19.4360  -50.7589 C.ar      23 UNK        -0.0193 
     14 C14        -0.5330  -18.8912  -49.9884 C.ar      23 UNK        -0.1150 
     15 C15         1.1488  -20.7524  -50.3659 C.3       23 UNK        -0.0205 
     16 S16         2.4346  -20.5847  -49.0815 S.3       23 UNK        -0.2404 
     17 C17         1.5100  -20.3497  -47.5208 C.3       23 UNK        -0.0398 
     18 CA          0.9721  -21.6684  -46.9037 C.3       11 UNK         0.1400 
     19 N           0.8954  -21.6179  -45.4426 N.am      11 UNK        -0.5000 
     20 C           0.6295  -22.6703  -44.6551 C.2       10 UNK         0.5000 
     21 O           0.4683  -23.8169  -45.0748 O.2       10 UNK        -0.5000 
     22 CA          0.4680  -22.3875  -43.1507 C.3       10 UNK         0.1400 
     23 CB          1.8368  -22.2530  -42.4672 C.3       10 UNK        -0.1800 
     24 N          -0.3415  -21.1972  -42.8828 N.am      10 UNK        -0.5000 
     25 C          -1.6334  -21.0716  -43.2213 C.2       9 UNK         0.5000 
     26 O          -2.2858  -21.9591  -43.7694 O.2       9 UNK        -0.5000 
     27 CA         -2.3025  -19.7152  -42.9398 C.3       9 UNK         0.1400 
     28 CB         -2.6797  -19.5891  -41.4563 C.3       9 UNK        -0.1800 
     29 N          -1.4701  -18.5801  -43.3338 N.am      9 UNK        -0.5000 
     30 C          -1.0629  -18.3290  -44.5866 C.2       8 UNK         0.5000 
     31 O          -1.3655  -19.0141  -45.5631 O.2       8 UNK        -0.5000 
     32 CA         -0.0992  -17.1456  -44.7645 C.3       8 UNK         0.1400 
     33 CB         -0.8417  -15.8082  -44.6331 C.3       8 UNK        -0.1800 
     34 N           1.0021  -17.1800  -43.8044 N.am      8 UNK        -0.5000 
     35 C           1.8898  -18.1771  -43.6815 C.2       7 UNK         0.5000 
     36 O           1.9054  -19.1771  -44.3962 O.2       7 UNK        -0.5000 
     37 CA          2.9070  -18.0528  -42.5378 C.3       7 UNK         0.1400 
     38 CB          4.0611  -17.1206  -42.9350 C.3       7 UNK        -0.1800 
     39 N           2.2782  -17.5767  -41.3061 N.am      7 UNK        -0.5000 
     40 C           1.3842  -18.2807  -40.5960 C.2       6 UNK         0.5000 
     41 O           1.0255  -19.4231  -40.8824 O.2       6 UNK        -0.5000 
     42 CA          0.7527  -17.5653  -39.3890 C.3       6 UNK         0.1400 
     43 CB          1.6895  -17.6171  -38.1729 C.3       6 UNK        -0.1800 
     44 N           0.4145  -16.1725  -39.6859 N.am      6 UNK        -0.5000 
     45 C          -0.5367  -15.7962  -40.5524 C.2       5 UNK         0.5000 
     46 O          -1.2528  -16.5865  -41.1666 O.2       5 UNK        -0.5000 
     47 CA         -0.6809  -14.2839  -40.8053 C.3       5 UNK         0.1400 
     48 CB         -1.6073  -13.6463  -39.7596 C.3       5 UNK        -0.1800 
     49 N           0.6021  -13.5748  -40.8176 N.am      5 UNK        -0.5000 
     50 C           1.5684  -13.7772  -41.7220 C.2       4 UNK         0.5000 
     51 O           1.4979  -14.6163  -42.6225 O.2       4 UNK        -0.5000 
     52 CA          2.8418  -12.9327  -41.5728 C.3       4 UNK         0.1400 
     53 CB          3.9394  -13.7287  -40.8514 C.3       4 UNK        -0.1800 
     54 N           3.3256  -12.5307  -42.8901 N.am      4 UNK        -0.5000 
     55 C           2.8955  -11.4550  -43.5568 C.2       3 UNK         0.5000 
     56 O           2.1040  -10.6352  -43.0892 O.2       3 UNK        -0.5000 
     57 CA          3.4238  -11.2617  -44.9891 C.3       3 UNK         0.1400 
     58 CB          4.9175  -10.8809  -45.0047 C.3       3 UNK        -0.1800 
     59 N           3.1320  -12.3898  -45.8810 N.am      3 UNK        -0.5000 
     60 C           3.6393  -13.6320  -45.8802 C.2       2 UNK         0.5000 
     61 O           4.4799  -14.0259  -45.0701 O.2       2 UNK        -0.5000 
     62 CA          3.0950  -14.5904  -46.9607 C.3       2 UNK         0.1400 
     63 CB          3.2681  -16.0703  -46.5828 C.3       2 UNK        -0.1800 
     64 N           1.6775  -14.3223  -47.2080 N.am      2 UNK        -0.5000 
     65 C           1.1579  -13.8542  -48.3508 C.2       1 UNK         0.5000 
     66 O           1.8140  -13.6806  -49.3783 O.2       1 UNK        -0.5000 
     67 C          -0.3818  -22.0821  -47.5113 C.2       11 UNK         0.5000 
     68 O          -0.4219  -23.0276  -48.2968 O.2       11 UNK        -0.5000 
     69 N          -1.4699  -21.4078  -47.1108 N.am      12 UNK        -0.5000 
     70 CA         -2.8307  -21.6907  -47.5725 C.3       12 UNK         0.1400 
     71 CB         -3.8003  -20.6444  -47.0064 C.3       12 UNK        -0.1800 
     72 C          -3.3063  -23.1156  -47.2349 C.2       12 UNK         0.5000 
     73 O          -3.9828  -23.7305  -48.0562 O.2       12 UNK        -0.5000 
     74 N          -2.9166  -23.6340  -46.0620 N.am      13 UNK        -0.5000 
     75 CA         -3.1587  -25.0175  -45.6541 C.3       13 UNK         0.1400 
     76 CB         -2.8135  -25.1906  -44.1674 C.3       13 UNK        -0.1800 
     77 C          -2.3869  -26.0315  -46.5191 C.2       13 UNK         0.5000 
     78 O          -2.9684  -27.0345  -46.9332 O.2       13 UNK        -0.5000 
     79 N          -1.1073  -25.7442  -46.7990 N.am      14 UNK        -0.5000 
     80 CA         -0.2343  -26.5685  -47.6388 C.3       14 UNK         0.1400 
     81 CB          1.2185  -26.0894  -47.4945 C.3       14 UNK        -0.1800 
     82 C          -0.6624  -26.5835  -49.1189 C.2       14 UNK         0.5000 
     83 O          -0.6572  -27.6445  -49.7440 O.2       14 UNK        -0.5000 
     84 N          -1.0472  -25.4128  -49.6434 N.am      15 UNK        -0.5000 
     85 CA         -1.5617  -25.2246  -51.0026 C.3       15 UNK         0.1400 
     86 CB         -1.4482  -23.7362  -51.3683 C.3       15 UNK        -0.1800 
     87 C          -3.0120  -25.7184  -51.1843 C.2       15 UNK         0.5000 
     88 O          -3.4558  -25.8737  -52.3216 O.2       15 UNK        -0.5000 
     89 N          -3.7183  -25.9365  -50.0659 N.am      16 UNK        -0.5000 
     90 CA         -5.1179  -26.3538  -49.9197 C.3       16 UNK         0.1400 
     91 CB         -5.3923  -27.6872  -50.6450 C.3       16 UNK        -0.1800 
     92 C          -6.1523  -25.2645  -50.2784 C.2       16 UNK         0.5000 
     93 O          -7.3533  -25.5305  -50.2047 O.2       16 UNK        -0.5000 
     94 N          -5.6881  -24.0566  -50.6138 N.am      17 UNK        -0.5000 
     95 CA         -6.4737  -22.8562  -50.8642 C.3       17 UNK         0.1400 
     96 CB         -7.2151  -22.9618  -52.2091 C.3       17 UNK        -0.1800 
     97 C          -5.5213  -21.6518  -50.8567 C.2       17 UNK         0.5000 
     98 O          -4.3442  -21.8014  -51.1919 O.2       17 UNK        -0.5000 
     99 N          -6.0476  -20.4771  -50.4911 N.am      18 UNK        -0.5000 
    100 CA        -5.3089  -19.2093  -50.4803 C.3       18 UNK         0.1400 
    101 CB        -5.8974  -18.3072  -49.3832 C.3       18 UNK        -0.1800 
    102 C         -5.3366  -18.4825  -51.8413 C.2       18 UNK         0.5000 
    103 O         -4.5652  -17.5447  -52.0418 O.2       18 UNK        -0.5000 
    104 N         -6.2274  -18.9101  -52.7413 N.am      19 UNK        -0.5000 
    105 CA        -6.4078  -18.3925  -54.0931 C.3       19 UNK         0.1400 
    106 CB        -7.5467  -17.3597  -54.0959 C.3       19 UNK        -0.1800 
    107 C         -6.7220  -19.5741  -55.0210 C.2       19 UNK         0.5000 
    108 O         -7.0346  -20.6634  -54.5346 O.2       19 UNK        -0.5000 
    109 N         -6.5913  -19.3589  -56.3366 N.am      20 UNK        -0.5000 
    110 CA        -6.7219  -20.3252  -57.4421 C.3       20 UNK         0.1400 
    111 CB        -8.0909  -21.0325  -57.4451 C.3       20 UNK        -0.1800 
    112 C         -5.5569  -21.3337  -57.5056 C.2       20 UNK         0.5000 
    113 O         -5.0155  -21.5705  -58.5856 O.2       20 UNK        -0.5000 
    114 N         -5.1366  -21.8422  -56.3403 N.am      21 UNK        -0.5000 
    115 CA        -3.8607  -22.5270  -56.1185 C.3       21 UNK         0.1400 
    116 CB        -3.9188  -23.2468  -54.7617 C.3       21 UNK        -0.1800 
    117 C         -2.6568  -21.5582  -56.1653 C.2       21 UNK         0.5000 
    118 O         -1.5188  -22.0070  -56.3039 O.2       21 UNK        -0.5000 
    119 N         -2.9316  -20.2534  -56.0589 N.am      22 UNK        -0.5000 
    120 CA        -1.9905  -19.1389  -56.1751 C.3       22 UNK         0.1400 
    121 C         -2.7273  -17.8701  -56.6883 C.2       22 UNK         0.5000 
    122 N         -1.9974  -16.8444  -57.1010 N.am      22 UNK        -0.7600 
    123 O         -3.9560  -17.8013  -56.7107 O.2       22 UNK        -0.5000 
    124 C124       -1.2296  -18.8937  -54.8463 C.3       23 UNK        -0.0398 
    125 S125        0.4389  -18.1931  -55.1004 S.3       23 UNK        -0.2404 
    126 C126        0.5657  -17.0108  -53.7147 C.3       23 UNK        -0.0205 
    127 H127       -1.5590  -11.0874  -44.6810 H         1 UNK         0.0600 
    128 H128       -0.3589  -12.2243  -44.0571 H         1 UNK         0.0600 
    129 H129       -1.8977  -12.8204  -44.6866 H         1 UNK         0.0600 
    130 H130       -1.5717  -13.8270  -46.6669 H         1 UNK         0.3000 
    131 H131       -0.4009  -12.5279  -48.8945 H         1 UNK         0.0600 
    132 H132       -2.1844  -14.0450  -49.3186 H         1 UNK         0.0800 
    133 H133       -0.7697  -14.7125  -50.0740 H         1 UNK         0.0800 
    134 H134       -2.9438  -16.5150  -50.0886 H         1 UNK         0.0800 
    135 H135       -2.8099  -17.8880  -49.0171 H         1 UNK         0.0800 
    136 H136       -1.3062  -16.2004  -51.9020 H         1 UNK         0.1150 
    137 H137        1.6634  -19.2220  -52.5525 H         1 UNK         0.1150 
    138 H138       -0.8578  -19.3869  -49.0863 H         1 UNK         0.1150 
    139 H139        0.3802  -21.4592  -50.0693 H         1 UNK         0.0800 
    140 H140        1.6173  -21.2014  -51.2430 H         1 UNK         0.0800 
    141 H141        0.7397  -19.5866  -47.6186 H         1 UNK         0.0800 
    142 H142        2.2398  -19.9129  -46.8393 H         1 UNK         0.0800 
    143 H143        1.6855  -22.4620  -47.1369 H         1 UNK         0.0600 
    144 H144        1.0565  -20.7107  -45.0104 H         1 UNK         0.3000 
    145 H145       -0.0465  -23.2431  -42.7085 H         1 UNK         0.0600 
    146 H146        1.7283  -22.1389  -41.3886 H         1 UNK         0.0600 
    147 H147        2.4486  -23.1390  -42.6409 H         1 UNK         0.0600 
    148 H148        2.3917  -21.3920  -42.8398 H         1 UNK         0.0600 
    149 H149        0.1195  -20.4314  -42.4020 H         1 UNK         0.3000 
    150 H150       -3.2209  -19.6710  -43.5286 H         1 UNK         0.0600 
    151 H151       -3.3078  -20.4227  -41.1398 H         1 UNK         0.0600 
    152 H152       -3.2378  -18.6715  -41.2694 H         1 UNK         0.0600 
    153 H153       -1.7974  -19.5787  -40.8154 H         1 UNK         0.0600 
    154 H154       -1.1939  -17.9429  -42.5924 H         1 UNK         0.3000 
    155 H155        0.3270  -17.2081  -45.7680 H         1 UNK         0.0600 
    156 H156       -1.2547  -15.6717  -43.6355 H         1 UNK         0.0600 
    157 H157       -1.6755  -15.7479  -45.3313 H         1 UNK         0.0600 
    158 H158       -0.1749  -14.9709  -44.8316 H         1 UNK         0.0600 
    159 H159        1.1031  -16.3641  -43.2060 H         1 UNK         0.3000 
    160 H160        3.3217  -19.0445  -42.3455 H         1 UNK         0.0600 
    161 H161        3.7083  -16.1181  -43.1780 H         1 UNK         0.0600 
    162 H162        4.5804  -17.5012  -43.8154 H         1 UNK         0.0600 
    163 H163        4.7969  -17.0368  -42.1352 H         1 UNK         0.0600 
    164 H164        2.4821  -16.6297  -41.0266 H         1 UNK         0.3000 
    165 H165       -0.1688  -18.0931  -39.1333 H         1 UNK         0.0600 
    166 H166        1.2174  -17.1791  -37.2933 H         1 UNK         0.0600 
    167 H167        1.9468  -18.6473  -37.9232 H         1 UNK         0.0600 
    168 H168        2.6215  -17.0809  -38.3560 H         1 UNK         0.0600 
    169 H169        0.9551  -15.4582  -39.2213 H         1 UNK         0.3000 
    170 H170       -1.1416  -14.1547  -41.7865 H         1 UNK         0.0600 
    171 H171       -2.5781  -14.1436  -39.7436 H         1 UNK         0.0600 
    172 H172       -1.1882  -13.7117  -38.7547 H         1 UNK         0.0600 
    173 H173       -1.7869  -12.5941  -39.9813 H         1 UNK         0.0600 
    174 H174        0.7352  -12.8730  -40.1036 H         1 UNK         0.3000 
    175 H175        2.6161  -12.0447  -40.9784 H         1 UNK         0.0600 
    176 H176        4.2356  -14.6136  -41.4134 H         1 UNK         0.0600 
    177 H177        4.8302  -13.1183  -40.7018 H         1 UNK         0.0600 
    178 H178        3.6038  -14.0590  -39.8675 H         1 UNK         0.0600 
    179 H179        3.9020  -13.1968  -43.3960 H         1 UNK         0.3000 
    180 H180        2.8759  -10.4164  -45.4089 H         1 UNK         0.0600 
    181 H181        5.5485  -11.6622  -44.5808 H         1 UNK         0.0600 
    182 H182        5.0908   -9.9751  -44.4226 H         1 UNK         0.0600 
    183 H183        5.2628  -10.6854  -46.0199 H         1 UNK         0.0600 
    184 H184        2.3923  -12.1970  -46.5458 H         1 UNK         0.3000 
    185 H185        3.6826  -14.4059  -47.8620 H         1 UNK         0.0600 
    186 H186        4.3224  -16.3324  -46.4880 H         1 UNK         0.0600 
    187 H187        2.7903  -16.2872  -45.6310 H         1 UNK         0.0600 
    188 H188        2.8341  -16.7282  -47.3362 H         1 UNK         0.0600 
    189 H189        1.0639  -14.4093  -46.4116 H         1 UNK         0.3000 
    190 H190       -1.3678  -20.6344  -46.4559 H         1 UNK         0.3000 
    191 H191       -2.8321  -21.5963  -48.6606 H         1 UNK         0.0600 
    192 H192       -3.8131  -20.6587  -45.9160 H         1 UNK         0.0600 
    193 H193       -4.8181  -20.8291  -47.3520 H         1 UNK         0.0600 
    194 H194       -3.5248  -19.6389  -47.3245 H         1 UNK         0.0600 
    195 H195       -2.4207  -23.0424  -45.4017 H         1 UNK         0.3000 
    196 H196       -4.2246  -25.2209  -45.7770 H         1 UNK         0.0600 
    197 H197       -2.9926  -26.2157  -43.8409 H         1 UNK         0.0600 
    198 H198       -3.4257  -24.5391  -43.5436 H         1 UNK         0.0600 
    199 H199       -1.7675  -24.9587  -43.9655 H         1 UNK         0.0600 
    200 H200       -0.6941  -24.9068  -46.4014 H         1 UNK         0.3000 
    201 H201       -0.2877  -27.5947  -47.2693 H         1 UNK         0.0600 
    202 H202        1.5522  -26.1522  -46.4586 H         1 UNK         0.0600 
    203 H203        1.3379  -25.0558  -47.8204 H         1 UNK         0.0600 
    204 H204        1.8937  -26.7028  -48.0923 H         1 UNK         0.0600 
    205 H205       -0.9551  -24.5730  -49.0729 H         1 UNK         0.3000 
    206 H206       -0.9360  -25.7935  -51.6931 H         1 UNK         0.0600 
    207 H207       -2.0022  -23.1088  -50.6692 H         1 UNK         0.0600 
    208 H208       -0.4087  -23.4094  -51.3591 H         1 UNK         0.0600 
    209 H209       -1.8409  -23.5405  -52.3665 H         1 UNK         0.0600 
    210 H210       -3.2578  -25.7190  -49.1919 H         1 UNK         0.3000 
    211 H211       -5.2471  -26.5358  -48.8518 H         1 UNK         0.0600 
    212 H212       -5.3739  -27.5730  -51.7289 H         1 UNK         0.0600 
    213 H213       -6.3740  -28.0802  -50.3787 H         1 UNK         0.0600 
    214 H214       -4.6563  -28.4436  -50.3721 H         1 UNK         0.0600 
    215 H215       -4.6879  -23.8996  -50.6044 H         1 UNK         0.3000 
    216 H216       -7.1959  -22.7394  -50.0538 H         1 UNK         0.0600 
    217 H217       -7.8218  -22.0742  -52.3887 H         1 UNK         0.0600 
    218 H218       -7.8898  -23.8170  -52.2338 H         1 UNK         0.0600 
    219 H219       -6.5198  -23.0615  -53.0433 H         1 UNK         0.0600 
    220 H220       -7.0209  -20.4319  -50.2246 H         1 UNK         0.3000 
    221 H221       -4.2626  -19.4038  -50.2356 H         1 UNK         0.0600 
    222 H222       -6.9456  -18.0742  -49.5739 H         1 UNK         0.0600 
    223 H223       -5.8319  -18.7798  -48.4036 H         1 UNK         0.0600 
    224 H224       -5.3589  -17.3607  -49.3213 H         1 UNK         0.0600 
    225 H225       -6.7677  -19.7410  -52.5410 H         1 UNK         0.3000 
    226 H226       -5.4850  -17.9226  -54.4390 H         1 UNK         0.0600 
    227 H227       -7.3230  -16.5267  -53.4291 H         1 UNK         0.0600 
    228 H228       -7.6992  -16.9446  -55.0927 H         1 UNK         0.0600 
    229 H229       -8.4905  -17.8018  -53.7742 H         1 UNK         0.0600 
    230 H230       -6.2591  -18.4460  -56.6233 H         1 UNK         0.3000 
    231 H231       -6.6659  -19.7286  -58.3541 H         1 UNK         0.0600 
    232 H232       -8.9075  -20.3114  -57.4104 H         1 UNK         0.0600 
    233 H233       -8.2067  -21.7130  -56.6013 H         1 UNK         0.0600 
    234 H234       -8.2166  -21.6232  -58.3532 H         1 UNK         0.0600 
    235 H235       -5.6838  -21.6132  -55.5153 H         1 UNK         0.3000 
    236 H236       -3.7222  -23.2728  -56.9038 H         1 UNK         0.0600 
    237 H237       -3.0013  -23.8065  -54.5765 H         1 UNK         0.0600 
    238 H238       -4.0468  -22.5444  -53.9368 H         1 UNK         0.0600 
    239 H239       -4.7426  -23.9597  -54.7252 H         1 UNK         0.0600 
    240 H240       -3.8986  -19.9661  -56.0059 H         1 UNK         0.3000 
    241 H241       -1.2771  -19.4149  -56.9543 H         1 UNK         0.0600 
    242 H242       -2.4618  -16.0146  -57.4354 H         1 UNK         0.3800 
    243 H243       -0.9895  -16.8743  -57.0718 H         1 UNK         0.3800 
    244 H244       -1.8175  -18.2631  -54.1767 H         1 UNK         0.0800 
    245 H245       -1.0862  -19.8331  -54.3103 H         1 UNK         0.0800 
    246 H246        1.5827  -16.6193  -53.6714 H         1 UNK         0.0800 
    247 H247       -0.0856  -16.1603  -53.9221 H         1 UNK         0.0800 
@<TRIPOS>BOND
     1    1    2 1    
     2    1  127 1    
     3    1  128 1    
     4    1  129 1    
     5    2    3 2    
     6    2    4 am   BACKBONE|DICT|INTERRES
     7    4    5 1    
     8    4  130 1    
     9    5    6 1    
    10    5   65 1    
    11    5  131 1    
    12    6    7 1    
    13    6  132 1    
    14    6  133 1    
    15    7    8 1    
    16    8    9 1    
    17    8  134 1    
    18    8  135 1    
    19    9   10 ar   
    20    9   14 ar   
    21   10   11 ar   
    22   10  136 1    
    23   11   12 ar   
    24   11  126 1    
    25   12   13 ar   
    26   12  137 1    
    27   13   14 ar   
    28   13   15 1    
    29   14  138 1    
    30   15   16 1    
    31   15  139 1    
    32   15  140 1    
    33   16   17 1    
    34   17   18 1    
    35   17  141 1    
    36   17  142 1    
    37   18   19 1    
    38   18   67 1    
    39   18  143 1    
    40   19   20 am   BACKBONE|DICT|INTERRES
    41   19  144 1    
    42   20   21 2    
    43   20   22 1    
    44   22   23 1    
    45   22   24 1    
    46   22  145 1    
    47   23  146 1    
    48   23  147 1    
    49   23  148 1    
    50   24   25 am   BACKBONE|DICT|INTERRES
    51   24  149 1    
    52   25   26 2    
    53   25   27 1    
    54   27   28 1    
    55   27   29 1    
    56   27  150 1    
    57   28  151 1    
    58   28  152 1    
    59   28  153 1    
    60   29   30 am   BACKBONE|DICT|INTERRES
    61   29  154 1    
    62   30   31 2    
    63   30   32 1    
    64   32   33 1    
    65   32   34 1    
    66   32  155 1    
    67   33  156 1    
    68   33  157 1    
    69   33  158 1    
    70   34   35 am   BACKBONE|DICT|INTERRES
    71   34  159 1    
    72   35   36 2    
    73   35   37 1    
    74   37   38 1    
    75   37   39 1    
    76   37  160 1    
    77   38  161 1    
    78   38  162 1    
    79   38  163 1    
    80   39   40 am   BACKBONE|DICT|INTERRES
    81   39  164 1    
    82   40   41 2    
    83   40   42 1    
    84   42   43 1    
    85   42   44 1    
    86   42  165 1    
    87   43  166 1    
    88   43  167 1    
    89   43  168 1    
    90   44   45 am   BACKBONE|DICT|INTERRES
    91   44  169 1    
    92   45   46 2    
    93   45   47 1    
    94   47   48 1    
    95   47   49 1    
    96   47  170 1    
    97   48  171 1    
    98   48  172 1    
    99   48  173 1    
   100   49   50 am   BACKBONE|DICT|INTERRES
   101   49  174 1    
   102   50   51 2    
   103   50   52 1    
   104   52   53 1    
   105   52   54 1    
   106   52  175 1    
   107   53  176 1    
   108   53  177 1    
   109   53  178 1    
   110   54   55 am   BACKBONE|DICT|INTERRES
   111   54  179 1    
   112   55   56 2    
   113   55   57 1    
   114   57   58 1    
   115   57   59 1    
   116   57  180 1    
   117   58  181 1    
   118   58  182 1    
   119   58  183 1    
   120   59   60 am   BACKBONE|DICT|INTERRES
   121   59  184 1    
   122   60   61 2    
   123   60   62 1    
   124   62   63 1    
   125   62   64 1    
   126   62  185 1    
   127   63  186 1    
   128   63  187 1    
   129   63  188 1    
   130   64   65 am   BACKBONE|DICT|INTERRES
   131   64  189 1    
   132   65   66 2    
   133   67   68 2    
   134   67   69 am   BACKBONE|DICT|INTERRES
   135   69   70 1    
   136   69  190 1    
   137   70   71 1    
   138   70   72 1    
   139   70  191 1    
   140   71  192 1    
   141   71  193 1    
   142   71  194 1    
   143   72   73 2    
   144   72   74 am   BACKBONE|DICT|INTERRES
   145   74   75 1    
   146   74  195 1    
   147   75   76 1    
   148   75   77 1    
   149   75  196 1    
   150   76  197 1    
   151   76  198 1    
   152   76  199 1    
   153   77   78 2    
   154   77   79 am   BACKBONE|DICT|INTERRES
   155   79   80 1    
   156   79  200 1    
   157   80   81 1    
   158   80   82 1    
   159   80  201 1    
   160   81  202 1    
   161   81  203 1    
   162   81  204 1    
   163   82   83 2    
   164   82   84 am   BACKBONE|DICT|INTERRES
   165   84   85 1    
   166   84  205 1    
   167   85   86 1    
   168   85   87 1    
   169   85  206 1    
   170   86  207 1    
   171   86  208 1    
   172   86  209 1    
   173   87   88 2    
   174   87   89 am   BACKBONE|DICT|INTERRES
   175   89   90 1    
   176   89  210 1    
   177   90   91 1    
   178   90   92 1    
   179   90  211 1    
   180   91  212 1    
   181   91  213 1    
   182   91  214 1    
   183   92   93 2    
   184   92   94 am   BACKBONE|DICT|INTERRES
   185   94   95 1    
   186   94  215 1    
   187   95   96 1    
   188   95   97 1    
   189   95  216 1    
   190   96  217 1    
   191   96  218 1    
   192   96  219 1    
   193   97   98 2    
   194   97   99 am   BACKBONE|DICT|INTERRES
   195   99  100 1    
   196   99  220 1    
   197  100  101 1    
   198  100  102 1    
   199  100  221 1    
   200  101  222 1    
   201  101  223 1    
   202  101  224 1    
   203  102  103 2    
   204  102  104 am   BACKBONE|DICT|INTERRES
   205  104  105 1    
   206  104  225 1    
   207  105  106 1    
   208  105  107 1    
   209  105  226 1    
   210  106  227 1    
   211  106  228 1    
   212  106  229 1    
   213  107  108 2    
   214  107  109 am   BACKBONE|DICT|INTERRES
   215  109  110 1    
   216  109  230 1    
   217  110  111 1    
   218  110  112 1    
   219  110  231 1    
   220  111  232 1    
   221  111  233 1    
   222  111  234 1    
   223  112  113 2    
   224  112  114 am   BACKBONE|DICT|INTERRES
   225  114  115 1    
   226  114  235 1    
   227  115  116 1    
   228  115  117 1    
   229  115  236 1    
   230  116  237 1    
   231  116  238 1    
   232  116  239 1    
   233  117  118 2    
   234  117  119 am   BACKBONE|DICT|INTERRES
   235  119  120 1    
   236  119  240 1    
   237  120  121 1    
   238  120  124 1    
   239  120  241 1    
   240  121  122 am   BACKBONE|DICT|INTERRES
   241  121  123 2    
   242  122  242 1    
   243  122  243 1    
   244  124  125 1    
   245  124  244 1    
   246  124  245 1    
   247  125  126 1    
   248  126  246 1    
   249  126  247 1    
@<TRIPOS>SUBSTRUCTURE
     1 UNK         1 GROUP             0       ****    0 ROOT    
