@<TRIPOS>MOLECULE
3R540
247   249    1
SMALL
USER_CHARGES


@<TRIPOS>ATOM
      1 CA          2.3765  -15.3678  -47.5214 C.3       0 UNK        -0.1800 
      2 C           1.0176  -15.2717  -48.1988 C.2       0 UNK         0.5000 
      3 O           0.4510  -14.1838  -48.2952 O.2       0 UNK        -0.5000 
      4 N           0.4971  -16.4103  -48.6743 N.am      1 UNK        -0.5000 
      5 CA         -0.7476  -16.5886  -49.4391 C.3       1 UNK         0.1400 
      6 C6         -0.8224  -15.7015  -50.7161 C.3       23 UNK        -0.0398 
      7 S7         -1.3461  -16.6251  -52.2004 S.3       23 UNK        -0.2404 
      8 C8          0.2190  -16.7801  -53.1183 C.3       23 UNK        -0.0205 
      9 C9          1.0676  -17.9405  -52.6185 C.ar      23 UNK        -0.0193 
     10 C10         0.9834  -19.1853  -53.2472 C.ar      23 UNK        -0.1150 
     11 C11         1.7863  -20.2484  -52.8274 C.ar      23 UNK        -0.0193 
     12 C12         2.6712  -20.0647  -51.7608 C.ar      23 UNK        -0.1150 
     13 C13         2.7599  -18.8274  -51.1139 C.ar      23 UNK        -0.0193 
     14 C14         1.9601  -17.7673  -51.5557 C.ar      23 UNK        -0.1150 
     15 C15         3.7316  -18.6194  -49.9539 C.3       23 UNK        -0.0205 
     16 S16         3.5889  -19.8694  -48.6266 S.3       23 UNK        -0.2404 
     17 C17         1.8434  -19.7058  -48.1371 C.3       23 UNK        -0.0398 
     18 CA          1.2498  -21.0432  -47.6300 C.3       11 UNK         0.1400 
     19 N           1.5929  -21.3410  -46.2375 N.am      11 UNK        -0.5000 
     20 C           1.4639  -22.5528  -45.6755 C.2       10 UNK         0.5000 
     21 O           1.1930  -23.5740  -46.3075 O.2       10 UNK        -0.5000 
     22 CA          1.6047  -22.6312  -44.1420 C.3       10 UNK         0.1400 
     23 CB          3.0712  -22.8321  -43.7338 C.3       10 UNK        -0.1800 
     24 N           1.0631  -21.4511  -43.4652 N.am      10 UNK        -0.5000 
     25 C          -0.2311  -21.0986  -43.4754 C.2       9 UNK         0.5000 
     26 O          -1.1186  -21.7741  -43.9963 O.2       9 UNK        -0.5000 
     27 CA         -0.5878  -19.7366  -42.8516 C.3       9 UNK         0.1400 
     28 CB         -0.9660  -19.8942  -41.3724 C.3       9 UNK        -0.1800 
     29 N           0.4787  -18.7438  -42.9817 N.am      9 UNK        -0.5000 
     30 C           0.9634  -18.2646  -44.1357 C.2       8 UNK         0.5000 
     31 O           0.5255  -18.5873  -45.2394 O.2       8 UNK        -0.5000 
     32 CA          2.1779  -17.3227  -44.0410 C.3       8 UNK         0.1400 
     33 CB          1.7462  -15.8602  -43.8773 C.3       8 UNK        -0.1800 
     34 N           3.0566  -17.6834  -42.9302 N.am      8 UNK        -0.5000 
     35 C           3.9330  -18.6956  -42.9561 C.2       7 UNK         0.5000 
     36 O           4.1120  -19.4160  -43.9372 O.2       7 UNK        -0.5000 
     37 CA          4.7273  -18.9547  -41.6617 C.3       7 UNK         0.1400 
     38 CB          6.0264  -18.1352  -41.6550 C.3       7 UNK        -0.1800 
     39 N           3.9560  -18.6436  -40.4559 N.am      7 UNK        -0.5000 
     40 C           2.9242  -19.3753  -40.0128 C.2       6 UNK         0.5000 
     41 O           2.5450  -20.4151  -40.5524 O.2       6 UNK        -0.5000 
     42 CA          2.1617  -18.8259  -38.7891 C.3       6 UNK         0.1400 
     43 CB          2.8280  -19.2909  -37.4857 C.3       6 UNK        -0.1800 
     44 N           2.0321  -17.3621  -38.7744 N.am      6 UNK        -0.5000 
     45 C           1.4118  -16.6495  -39.7232 C.2       5 UNK         0.5000 
     46 O           0.9223  -17.1554  -40.7358 O.2       5 UNK        -0.5000 
     47 CA          1.3575  -15.1251  -39.5465 C.3       5 UNK         0.1400 
     48 CB          2.7513  -14.4978  -39.7344 C.3       5 UNK        -0.1800 
     49 N           0.4409  -14.6052  -40.5543 N.am      5 UNK        -0.5000 
     50 C          -0.1733  -13.4194  -40.5673 C.2       4 UNK         0.5000 
     51 O          -0.0322  -12.5670  -39.6896 O.2       4 UNK        -0.5000 
     52 CA         -1.0967  -13.1313  -41.7705 C.3       4 UNK         0.1400 
     53 CB         -0.3882  -12.2127  -42.7783 C.3       4 UNK        -0.1800 
     54 N          -1.5373  -14.3375  -42.4779 N.am      4 UNK        -0.5000 
     55 C          -2.4499  -15.2105  -42.0360 C.2       3 UNK         0.5000 
     56 O          -3.0523  -15.0781  -40.9696 O.2       3 UNK        -0.5000 
     57 CA         -2.7324  -16.4233  -42.9512 C.3       3 UNK         0.1400 
     58 CB         -3.7506  -17.4055  -42.3448 C.3       3 UNK        -0.1800 
     59 N          -3.1904  -16.0400  -44.2911 N.am      3 UNK        -0.5000 
     60 C          -2.4049  -15.5801  -45.2720 C.2       2 UNK         0.5000 
     61 O          -1.2032  -15.3534  -45.1237 O.2       2 UNK        -0.5000 
     62 CA         -3.0672  -15.3067  -46.6305 C.3       2 UNK         0.1400 
     63 CB         -3.5871  -13.8617  -46.6771 C.3       2 UNK        -0.1800 
     64 N          -2.0653  -15.4826  -47.6779 N.am      2 UNK        -0.5000 
     65 C          -2.0220  -16.4751  -48.5718 C.2       1 UNK         0.5000 
     66 O          -2.9211  -17.3033  -48.7133 O.2       1 UNK        -0.5000 
     67 C          -0.2772  -21.0526  -47.8108 C.2       11 UNK         0.5000 
     68 O          -0.7605  -21.7105  -48.7275 O.2       11 UNK        -0.5000 
     69 N          -1.0090  -20.3455  -46.9365 N.am      12 UNK        -0.5000 
     70 CA         -2.4630  -20.1567  -47.0132 C.3       12 UNK         0.1400 
     71 CB         -2.9310  -19.2417  -45.8758 C.3       12 UNK        -0.1800 
     72 C          -3.2890  -21.4531  -47.0260 C.2       12 UNK         0.5000 
     73 O          -4.3421  -21.4835  -47.6627 O.2       12 UNK        -0.5000 
     74 N          -2.7886  -22.4973  -46.3544 N.am      13 UNK        -0.5000 
     75 CA         -3.3579  -23.8437  -46.3579 C.3       13 UNK         0.1400 
     76 CB         -2.6225  -24.6969  -45.3133 C.3       13 UNK        -0.1800 
     77 C          -3.3101  -24.5234  -47.7418 C.2       13 UNK         0.5000 
     78 O          -4.2405  -25.2519  -48.0880 O.2       13 UNK        -0.5000 
     79 N          -2.2412  -24.2691  -48.5085 N.am      14 UNK        -0.5000 
     80 CA         -2.0474  -24.7871  -49.8638 C.3       14 UNK         0.1400 
     81 CB         -0.5462  -24.9973  -50.1119 C.3       14 UNK        -0.1800 
     82 C          -2.6470  -23.8418  -50.9191 C.2       14 UNK         0.5000 
     83 O          -3.2357  -24.3094  -51.8931 O.2       14 UNK        -0.5000 
     84 N          -2.5087  -22.5305  -50.6866 N.am      15 UNK        -0.5000 
     85 CA         -2.9994  -21.4409  -51.5298 C.3       15 UNK         0.1400 
     86 CB         -2.1848  -20.1738  -51.2165 C.3       15 UNK        -0.1800 
     87 C          -4.5067  -21.1645  -51.3702 C.2       15 UNK         0.5000 
     88 O          -5.0036  -20.2299  -51.9972 O.2       15 UNK        -0.5000 
     89 N          -5.1933  -21.9436  -50.5215 N.am      16 UNK        -0.5000 
     90 CA         -6.6325  -21.9293  -50.2440 C.3       16 UNK         0.1400 
     91 CB         -7.4005  -22.5605  -51.4224 C.3       16 UNK        -0.1800 
     92 C          -7.1644  -20.5366  -49.8461 C.2       16 UNK         0.5000 
     93 O          -8.1874  -20.0926  -50.3700 O.2       16 UNK        -0.5000 
     94 N          -6.4364  -19.8799  -48.9304 N.am      17 UNK        -0.5000 
     95 CA         -6.6653  -18.5251  -48.4194 C.3       17 UNK         0.1400 
     96 CB         -7.9504  -18.4717  -47.5676 C.3       17 UNK        -0.1800 
     97 C          -6.6373  -17.4660  -49.5421 C.2       17 UNK         0.5000 
     98 O          -7.6623  -16.8628  -49.8654 O.2       17 UNK        -0.5000 
     99 N          -5.4393  -17.2696  -50.1056 N.am      18 UNK        -0.5000 
    100 CA        -5.0749  -16.2650  -51.1080 C.3       18 UNK         0.1400 
    101 CB        -5.2447  -14.8381  -50.5479 C.3       18 UNK        -0.1800 
    102 C         -5.7196  -16.4524  -52.4970 C.2       18 UNK         0.5000 
    103 O         -5.8079  -15.4876  -53.2590 O.2       18 UNK        -0.5000 
    104 N         -6.1155  -17.6868  -52.8329 N.am      19 UNK        -0.5000 
    105 CA        -6.5212  -18.0730  -54.1870 C.3       19 UNK         0.1400 
    106 CB        -7.5003  -19.2535  -54.1066 C.3       19 UNK        -0.1800 
    107 C         -5.3037  -18.4344  -55.0637 C.2       19 UNK         0.5000 
    108 O         -5.3932  -18.3339  -56.2881 O.2       19 UNK        -0.5000 
    109 N         -4.1984  -18.8351  -54.4160 N.am      20 UNK        -0.5000 
    110 CA        -2.9405  -19.3230  -54.9878 C.3       20 UNK         0.1400 
    111 CB        -2.2702  -18.2482  -55.8725 C.3       20 UNK        -0.1800 
    112 C         -3.1191  -20.6926  -55.6775 C.2       20 UNK         0.5000 
    113 O         -4.0275  -21.4412  -55.3105 O.2       20 UNK        -0.5000 
    114 N         -2.2313  -21.0087  -56.6335 N.am      21 UNK        -0.5000 
    115 CA        -2.1835  -22.2506  -57.4171 C.3       21 UNK         0.1400 
    116 CB        -3.3886  -22.3315  -58.3783 C.3       21 UNK        -0.1800 
    117 C         -2.0242  -23.5068  -56.5326 C.2       21 UNK         0.5000 
    118 O         -2.8118  -24.4492  -56.6404 O.2       21 UNK        -0.5000 
    119 N         -1.0119  -23.4694  -55.6555 N.am      22 UNK        -0.5000 
    120 CA        -0.6481  -24.5336  -54.7050 C.3       22 UNK         0.1400 
    121 C         -0.3918  -25.9114  -55.3804 C.2       22 UNK         0.5000 
    122 N         -0.8861  -26.9974  -54.8015 N.am      22 UNK        -0.7600 
    123 O          0.2928  -26.0057  -56.3971 O.2       22 UNK        -0.5000 
    124 C124        0.5888  -24.1397  -53.8579 C.3       23 UNK        -0.0398 
    125 S125        0.3523  -22.6047  -52.9006 S.3       23 UNK        -0.2404 
    126 C126        1.7126  -21.5866  -53.5427 C.3       23 UNK        -0.0205 
    127 H127        2.4244  -14.6944  -46.6661 H         1 UNK         0.0600 
    128 H128        3.1615  -15.0808  -48.2208 H         1 UNK         0.0600 
    129 H129        2.5813  -16.3799  -47.1731 H         1 UNK         0.0600 
    130 H130        1.0097  -17.2624  -48.5135 H         1 UNK         0.3000 
    131 H131       -0.7030  -17.6327  -49.7548 H         1 UNK         0.0600 
    132 H132        0.1449  -15.2459  -50.9271 H         1 UNK         0.0800 
    133 H133       -1.4982  -14.8549  -50.5804 H         1 UNK         0.0800 
    134 H134        0.7829  -15.8476  -53.0703 H         1 UNK         0.0800 
    135 H135       -0.0151  -16.9267  -54.1734 H         1 UNK         0.0800 
    136 H136        0.3002  -19.3257  -54.0724 H         1 UNK         0.1150 
    137 H137        3.2935  -20.8855  -51.4329 H         1 UNK         0.1150 
    138 H138        2.0366  -16.8012  -51.0781 H         1 UNK         0.1150 
    139 H139        4.7489  -18.6436  -50.3462 H         1 UNK         0.0800 
    140 H140        3.5992  -17.6305  -49.5126 H         1 UNK         0.0800 
    141 H141        1.2821  -19.3509  -49.0023 H         1 UNK         0.0800 
    142 H142        1.7685  -18.9228  -47.3849 H         1 UNK         0.0800 
    143 H143        1.6408  -21.8473  -48.2582 H         1 UNK         0.0600 
    144 H144        1.7965  -20.5499  -45.6432 H         1 UNK         0.3000 
    145 H145        1.0359  -23.4989  -43.8009 H         1 UNK         0.0600 
    146 H146        3.1755  -22.8980  -42.6505 H         1 UNK         0.0600 
    147 H147        3.7034  -22.0162  -44.0833 H         1 UNK         0.0600 
    148 H148        3.4682  -23.7558  -44.1566 H         1 UNK         0.0600 
    149 H149        1.7221  -20.8515  -42.9879 H         1 UNK         0.3000 
    150 H150       -1.4570  -19.3470  -43.3783 H         1 UNK         0.0600 
    151 H151       -1.8156  -20.5684  -41.2580 H         1 UNK         0.0600 
    152 H152       -1.2473  -18.9382  -40.9309 H         1 UNK         0.0600 
    153 H153       -0.1423  -20.3028  -40.7877 H         1 UNK         0.0600 
    154 H154        0.8441  -18.3617  -42.1131 H         1 UNK         0.3000 
    155 H155        2.7432  -17.4073  -44.9711 H         1 UNK         0.0600 
    156 H156        1.2652  -15.5017  -44.7846 H         1 UNK         0.0600 
    157 H157        2.6002  -15.2087  -43.6912 H         1 UNK         0.0600 
    158 H158        1.0397  -15.7335  -43.0591 H         1 UNK         0.0600 
    159 H159        2.9320  -17.1734  -42.0687 H         1 UNK         0.3000 
    160 H160        4.9914  -20.0144  -41.6405 H         1 UNK         0.0600 
    161 H161        5.8275  -17.0627  -41.6590 H         1 UNK         0.0600 
    162 H162        6.6338  -18.3599  -42.5327 H         1 UNK         0.0600 
    163 H163        6.6308  -18.3618  -40.7765 H         1 UNK         0.0600 
    164 H164        4.2088  -17.8072  -39.9504 H         1 UNK         0.3000 
    165 H165        1.1534  -19.2440  -38.8214 H         1 UNK         0.0600 
    166 H166        2.2417  -18.9951  -36.6155 H         1 UNK         0.0600 
    167 H167        2.9191  -20.3777  -37.4597 H         1 UNK         0.0600 
    168 H168        3.8298  -18.8744  -37.3739 H         1 UNK         0.0600 
    169 H169        2.4202  -16.8835  -37.9741 H         1 UNK         0.3000 
    170 H170        0.9710  -14.9007  -38.5506 H         1 UNK         0.0600 
    171 H171        3.1586  -14.7136  -40.7231 H         1 UNK         0.0600 
    172 H172        2.7167  -13.4144  -39.6189 H         1 UNK         0.0600 
    173 H173        3.4591  -14.8754  -38.9957 H         1 UNK         0.0600 
    174 H174        0.2187  -15.2788  -41.2757 H         1 UNK         0.3000 
    175 H175       -1.9788  -12.6110  -41.3917 H         1 UNK         0.0600 
    176 H176        0.4961  -12.6900  -43.2031 H         1 UNK         0.0600 
    177 H177       -1.0514  -11.9438  -43.6007 H         1 UNK         0.0600 
    178 H178       -0.0660  -11.2847  -42.3042 H         1 UNK         0.0600 
    179 H179       -1.1315  -14.5118  -43.3935 H         1 UNK         0.3000 
    180 H180       -1.7862  -16.9573  -43.0525 H         1 UNK         0.0600 
    181 H181       -4.7331  -16.9464  -42.2298 H         1 UNK         0.0600 
    182 H182       -3.4296  -17.7459  -41.3596 H         1 UNK         0.0600 
    183 H183       -3.8653  -18.2915  -42.9693 H         1 UNK         0.0600 
    184 H184       -4.1790  -16.1470  -44.4658 H         1 UNK         0.3000 
    185 H185       -3.9016  -15.9970  -46.7708 H         1 UNK         0.0600 
    186 H186       -2.7868  -13.1406  -46.5044 H         1 UNK         0.0600 
    187 H187       -4.0370  -13.6319  -47.6420 H         1 UNK         0.0600 
    188 H188       -4.3499  -13.6948  -45.9156 H         1 UNK         0.0600 
    189 H189       -1.2463  -14.8857  -47.6055 H         1 UNK         0.3000 
    190 H190       -0.5220  -19.8125  -46.2207 H         1 UNK         0.3000 
    191 H191       -2.6595  -19.6539  -47.9569 H         1 UNK         0.0600 
    192 H192       -2.2551  -18.3986  -45.7442 H         1 UNK         0.0600 
    193 H193       -2.9955  -19.7800  -44.9311 H         1 UNK         0.0600 
    194 H194       -3.9222  -18.8396  -46.0865 H         1 UNK         0.0600 
    195 H195       -1.9626  -22.3494  -45.7838 H         1 UNK         0.3000 
    196 H196       -4.4061  -23.7659  -46.0618 H         1 UNK         0.0600 
    197 H197       -2.7205  -24.2682  -44.3156 H         1 UNK         0.0600 
    198 H198       -1.5580  -24.7773  -45.5384 H         1 UNK         0.0600 
    199 H199       -3.0299  -25.7080  -45.2752 H         1 UNK         0.0600 
    200 H200       -1.5512  -23.6049  -48.1787 H         1 UNK         0.3000 
    201 H201       -2.5412  -25.7566  -49.9591 H         1 UNK         0.0600 
    202 H202       -0.1179  -25.6828  -49.3806 H         1 UNK         0.0600 
    203 H203        0.0094  -24.0601  -50.0567 H         1 UNK         0.0600 
    204 H204       -0.3734  -25.4257  -51.0992 H         1 UNK         0.0600 
    205 H205       -1.9463  -22.2452  -49.8859 H         1 UNK         0.3000 
    206 H206       -2.8292  -21.7091  -52.5744 H         1 UNK         0.0600 
    207 H207       -1.1198  -20.3322  -51.3862 H         1 UNK         0.0600 
    208 H208       -2.3133  -19.8598  -50.1825 H         1 UNK         0.0600 
    209 H209       -2.4923  -19.3373  -51.8418 H         1 UNK         0.0600 
    210 H210       -4.6590  -22.6212  -49.9971 H         1 UNK         0.3000 
    211 H211       -6.7820  -22.5693  -49.3732 H         1 UNK         0.0600 
    212 H212       -7.2949  -21.9729  -52.3335 H         1 UNK         0.0600 
    213 H213       -8.4656  -22.6387  -51.2019 H         1 UNK         0.0600 
    214 H214       -7.0386  -23.5670  -51.6321 H         1 UNK         0.0600 
    215 H215       -5.6228  -20.3638  -48.5579 H         1 UNK         0.3000 
    216 H216       -5.8282  -18.3010  -47.7562 H         1 UNK         0.0600 
    217 H217       -8.0804  -17.4841  -47.1236 H         1 UNK         0.0600 
    218 H218       -7.9107  -19.1926  -46.7510 H         1 UNK         0.0600 
    219 H219       -8.8426  -18.6832  -48.1577 H         1 UNK         0.0600 
    220 H220       -4.6484  -17.7792  -49.7266 H         1 UNK         0.3000 
    221 H221       -4.0094  -16.4113  -51.2709 H         1 UNK         0.0600 
    222 H222       -4.7411  -14.7359  -49.5877 H         1 UNK         0.0600 
    223 H223       -4.8096  -14.0972  -51.2194 H         1 UNK         0.0600 
    224 H224       -6.2943  -14.5786  -50.4087 H         1 UNK         0.0600 
    225 H225       -5.9794  -18.4463  -52.1737 H         1 UNK         0.3000 
    226 H226       -7.0426  -17.2391  -54.6616 H         1 UNK         0.0600 
    227 H227       -8.3414  -19.0293  -53.4502 H         1 UNK         0.0600 
    228 H228       -7.9052  -19.4892  -55.0913 H         1 UNK         0.0600 
    229 H229       -7.0125  -20.1528  -53.7329 H         1 UNK         0.0600 
    230 H230       -4.3100  -19.0029  -53.4225 H         1 UNK         0.3000 
    231 H231       -2.2772  -19.5014  -54.1421 H         1 UNK         0.0600 
    232 H232       -1.2327  -18.5025  -56.0903 H         1 UNK         0.0600 
    233 H233       -2.2600  -17.2807  -55.3703 H         1 UNK         0.0600 
    234 H234       -2.7869  -18.1220  -56.8244 H         1 UNK         0.0600 
    235 H235       -1.5197  -20.3281  -56.8589 H         1 UNK         0.3000 
    236 H236       -1.2831  -22.1950  -58.0308 H         1 UNK         0.0600 
    237 H237       -4.3332  -22.4182  -57.8405 H         1 UNK         0.0600 
    238 H238       -3.4456  -21.4475  -59.0134 H         1 UNK         0.0600 
    239 H239       -3.3060  -23.1980  -59.0354 H         1 UNK         0.0600 
    240 H240       -0.4311  -22.6459  -55.6295 H         1 UNK         0.3000 
    241 H241       -1.4981  -24.6444  -54.0293 H         1 UNK         0.0600 
    242 H242       -0.7128  -27.8977  -55.2215 H         1 UNK         0.3800 
    243 H243       -1.4522  -26.9425  -53.9689 H         1 UNK         0.3800 
    244 H244        1.4675  -24.0420  -54.4982 H         1 UNK         0.0800 
    245 H245        0.8281  -24.9307  -53.1455 H         1 UNK         0.0800 
    246 H246        2.6545  -22.1248  -53.4255 H         1 UNK         0.0800 
    247 H247        1.5776  -21.4277  -54.6136 H         1 UNK         0.0800 
@<TRIPOS>BOND
     1    1    2 1    
     2    1  127 1    
     3    1  128 1    
     4    1  129 1    
     5    2    3 2    
     6    2    4 am   BACKBONE|DICT|INTERRES
     7    4    5 1    
     8    4  130 1    
     9    5    6 1    
    10    5   65 1    
    11    5  131 1    
    12    6    7 1    
    13    6  132 1    
    14    6  133 1    
    15    7    8 1    
    16    8    9 1    
    17    8  134 1    
    18    8  135 1    
    19    9   10 ar   
    20    9   14 ar   
    21   10   11 ar   
    22   10  136 1    
    23   11   12 ar   
    24   11  126 1    
    25   12   13 ar   
    26   12  137 1    
    27   13   14 ar   
    28   13   15 1    
    29   14  138 1    
    30   15   16 1    
    31   15  139 1    
    32   15  140 1    
    33   16   17 1    
    34   17   18 1    
    35   17  141 1    
    36   17  142 1    
    37   18   19 1    
    38   18   67 1    
    39   18  143 1    
    40   19   20 am   BACKBONE|DICT|INTERRES
    41   19  144 1    
    42   20   21 2    
    43   20   22 1    
    44   22   23 1    
    45   22   24 1    
    46   22  145 1    
    47   23  146 1    
    48   23  147 1    
    49   23  148 1    
    50   24   25 am   BACKBONE|DICT|INTERRES
    51   24  149 1    
    52   25   26 2    
    53   25   27 1    
    54   27   28 1    
    55   27   29 1    
    56   27  150 1    
    57   28  151 1    
    58   28  152 1    
    59   28  153 1    
    60   29   30 am   BACKBONE|DICT|INTERRES
    61   29  154 1    
    62   30   31 2    
    63   30   32 1    
    64   32   33 1    
    65   32   34 1    
    66   32  155 1    
    67   33  156 1    
    68   33  157 1    
    69   33  158 1    
    70   34   35 am   BACKBONE|DICT|INTERRES
    71   34  159 1    
    72   35   36 2    
    73   35   37 1    
    74   37   38 1    
    75   37   39 1    
    76   37  160 1    
    77   38  161 1    
    78   38  162 1    
    79   38  163 1    
    80   39   40 am   BACKBONE|DICT|INTERRES
    81   39  164 1    
    82   40   41 2    
    83   40   42 1    
    84   42   43 1    
    85   42   44 1    
    86   42  165 1    
    87   43  166 1    
    88   43  167 1    
    89   43  168 1    
    90   44   45 am   BACKBONE|DICT|INTERRES
    91   44  169 1    
    92   45   46 2    
    93   45   47 1    
    94   47   48 1    
    95   47   49 1    
    96   47  170 1    
    97   48  171 1    
    98   48  172 1    
    99   48  173 1    
   100   49   50 am   BACKBONE|DICT|INTERRES
   101   49  174 1    
   102   50   51 2    
   103   50   52 1    
   104   52   53 1    
   105   52   54 1    
   106   52  175 1    
   107   53  176 1    
   108   53  177 1    
   109   53  178 1    
   110   54   55 am   BACKBONE|DICT|INTERRES
   111   54  179 1    
   112   55   56 2    
   113   55   57 1    
   114   57   58 1    
   115   57   59 1    
   116   57  180 1    
   117   58  181 1    
   118   58  182 1    
   119   58  183 1    
   120   59   60 am   BACKBONE|DICT|INTERRES
   121   59  184 1    
   122   60   61 2    
   123   60   62 1    
   124   62   63 1    
   125   62   64 1    
   126   62  185 1    
   127   63  186 1    
   128   63  187 1    
   129   63  188 1    
   130   64   65 am   BACKBONE|DICT|INTERRES
   131   64  189 1    
   132   65   66 2    
   133   67   68 2    
   134   67   69 am   BACKBONE|DICT|INTERRES
   135   69   70 1    
   136   69  190 1    
   137   70   71 1    
   138   70   72 1    
   139   70  191 1    
   140   71  192 1    
   141   71  193 1    
   142   71  194 1    
   143   72   73 2    
   144   72   74 am   BACKBONE|DICT|INTERRES
   145   74   75 1    
   146   74  195 1    
   147   75   76 1    
   148   75   77 1    
   149   75  196 1    
   150   76  197 1    
   151   76  198 1    
   152   76  199 1    
   153   77   78 2    
   154   77   79 am   BACKBONE|DICT|INTERRES
   155   79   80 1    
   156   79  200 1    
   157   80   81 1    
   158   80   82 1    
   159   80  201 1    
   160   81  202 1    
   161   81  203 1    
   162   81  204 1    
   163   82   83 2    
   164   82   84 am   BACKBONE|DICT|INTERRES
   165   84   85 1    
   166   84  205 1    
   167   85   86 1    
   168   85   87 1    
   169   85  206 1    
   170   86  207 1    
   171   86  208 1    
   172   86  209 1    
   173   87   88 2    
   174   87   89 am   BACKBONE|DICT|INTERRES
   175   89   90 1    
   176   89  210 1    
   177   90   91 1    
   178   90   92 1    
   179   90  211 1    
   180   91  212 1    
   181   91  213 1    
   182   91  214 1    
   183   92   93 2    
   184   92   94 am   BACKBONE|DICT|INTERRES
   185   94   95 1    
   186   94  215 1    
   187   95   96 1    
   188   95   97 1    
   189   95  216 1    
   190   96  217 1    
   191   96  218 1    
   192   96  219 1    
   193   97   98 2    
   194   97   99 am   BACKBONE|DICT|INTERRES
   195   99  100 1    
   196   99  220 1    
   197  100  101 1    
   198  100  102 1    
   199  100  221 1    
   200  101  222 1    
   201  101  223 1    
   202  101  224 1    
   203  102  103 2    
   204  102  104 am   BACKBONE|DICT|INTERRES
   205  104  105 1    
   206  104  225 1    
   207  105  106 1    
   208  105  107 1    
   209  105  226 1    
   210  106  227 1    
   211  106  228 1    
   212  106  229 1    
   213  107  108 2    
   214  107  109 am   BACKBONE|DICT|INTERRES
   215  109  110 1    
   216  109  230 1    
   217  110  111 1    
   218  110  112 1    
   219  110  231 1    
   220  111  232 1    
   221  111  233 1    
   222  111  234 1    
   223  112  113 2    
   224  112  114 am   BACKBONE|DICT|INTERRES
   225  114  115 1    
   226  114  235 1    
   227  115  116 1    
   228  115  117 1    
   229  115  236 1    
   230  116  237 1    
   231  116  238 1    
   232  116  239 1    
   233  117  118 2    
   234  117  119 am   BACKBONE|DICT|INTERRES
   235  119  120 1    
   236  119  240 1    
   237  120  121 1    
   238  120  124 1    
   239  120  241 1    
   240  121  122 am   BACKBONE|DICT|INTERRES
   241  121  123 2    
   242  122  242 1    
   243  122  243 1    
   244  124  125 1    
   245  124  244 1    
   246  124  245 1    
   247  125  126 1    
   248  126  246 1    
   249  126  247 1    
@<TRIPOS>SUBSTRUCTURE
     1 UNK         1 GROUP             0       ****    0 ROOT    
