@<TRIPOS>MOLECULE
3R540
247   249    1
SMALL
USER_CHARGES


@<TRIPOS>ATOM
      1 CA         -1.5135  -12.0816  -44.3969 C.3       0 UNK        -0.1800 
      2 C          -1.0673  -12.0799  -45.8522 C.2       0 UNK         0.5000 
      3 O          -0.3301  -11.1868  -46.2687 O.2       0 UNK        -0.5000 
      4 N          -1.4874  -13.0908  -46.6244 N.am      1 UNK        -0.5000 
      5 CA         -1.1294  -13.2949  -48.0369 C.3       1 UNK         0.1400 
      6 C6         -2.0169  -14.3700  -48.7144 C.3       23 UNK        -0.0398 
      7 S7         -2.0873  -15.9554  -47.8095 S.3       23 UNK        -0.2404 
      8 C8         -3.0587  -16.9807  -48.9510 C.3       23 UNK        -0.0205 
      9 C9         -2.1922  -17.5119  -50.0797 C.ar      23 UNK        -0.0193 
     10 C10        -2.1725  -16.8752  -51.3228 C.ar      23 UNK        -0.1150 
     11 C11        -1.3344  -17.3366  -52.3414 C.ar      23 UNK        -0.0193 
     12 C12        -0.4911  -18.4233  -52.0965 C.ar      23 UNK        -0.1150 
     13 C13        -0.5368  -19.0985  -50.8734 C.ar      23 UNK        -0.0193 
     14 C14        -1.4041  -18.6459  -49.8755 C.ar      23 UNK        -0.1150 
     15 C15         0.2931  -20.3565  -50.6684 C.3       23 UNK        -0.0205 
     16 S16         1.7752  -20.1161  -49.6263 S.3       23 UNK        -0.2404 
     17 C17         1.1590  -20.0596  -47.9026 C.3       23 UNK        -0.0398 
     18 CA          0.8452  -21.4512  -47.2893 C.3       11 UNK         0.1400 
     19 N           0.9921  -21.4738  -45.8322 N.am      11 UNK        -0.5000 
     20 C           0.9158  -22.5766  -45.0717 C.2       10 UNK         0.5000 
     21 O           0.7697  -23.7130  -45.5226 O.2       10 UNK        -0.5000 
     22 CA          0.9565  -22.3734  -43.5469 C.3       10 UNK         0.1400 
     23 CB          2.3974  -22.1617  -43.0595 C.3       10 UNK        -0.1800 
     24 N           0.1094  -21.2658  -43.1006 N.am      10 UNK        -0.5000 
     25 C          -1.2230  -21.2247  -43.2526 C.2       9 UNK         0.5000 
     26 O          -1.8819  -22.1302  -43.7622 O.2       9 UNK        -0.5000 
     27 CA         -1.9402  -19.9422  -42.7978 C.3       9 UNK         0.1400 
     28 CB         -2.1123  -19.9237  -41.2717 C.3       9 UNK        -0.1800 
     29 N          -1.2537  -18.7265  -43.2299 N.am      9 UNK        -0.5000 
     30 C          -1.0465  -18.3785  -44.5083 C.2       8 UNK         0.5000 
     31 O          -1.4356  -19.0326  -45.4762 O.2       8 UNK        -0.5000 
     32 CA         -0.2021  -17.1149  -44.7379 C.3       8 UNK         0.1400 
     33 CB         -1.0040  -15.8485  -44.4026 C.3       8 UNK        -0.1800 
     34 N           1.0299  -17.1232  -43.9516 N.am      8 UNK        -0.5000 
     35 C           1.9907  -18.0551  -44.0280 C.2       7 UNK         0.5000 
     36 O           1.9695  -19.0038  -44.8097 O.2       7 UNK        -0.5000 
     37 CA          3.1530  -17.9237  -43.0324 C.3       7 UNK         0.1400 
     38 CB          4.1775  -16.8910  -43.5246 C.3       7 UNK        -0.1800 
     39 N           2.6824  -17.5639  -41.6950 N.am      7 UNK        -0.5000 
     40 C           1.9485  -18.3687  -40.9123 C.2       6 UNK         0.5000 
     41 O           1.6209  -19.5145  -41.2207 O.2       6 UNK        -0.5000 
     42 CA          1.4617  -17.7716  -39.5805 C.3       6 UNK         0.1400 
     43 CB          2.5735  -17.8211  -38.5217 C.3       6 UNK        -0.1800 
     44 N           0.9916  -16.3940  -39.7311 N.am      6 UNK        -0.5000 
     45 C          -0.1012  -16.0417  -40.4229 C.2       5 UNK         0.5000 
     46 O          -0.8487  -16.8476  -40.9768 O.2       5 UNK        -0.5000 
     47 CA         -0.3792  -14.5324  -40.5516 C.3       5 UNK         0.1400 
     48 CB         -1.1825  -14.0255  -39.3451 C.3       5 UNK        -0.1800 
     49 N           0.8397  -13.7309  -40.6975 N.am      5 UNK        -0.5000 
     50 C           1.6763  -13.8100  -41.7399 C.2       4 UNK         0.5000 
     51 O           1.5301  -14.5982  -42.6768 O.2       4 UNK        -0.5000 
     52 CA          2.9028  -12.8870  -41.7115 C.3       4 UNK         0.1400 
     53 CB          4.1399  -13.6446  -41.2069 C.3       4 UNK        -0.1800 
     54 N           3.1675  -12.3726  -43.0516 N.am      4 UNK        -0.5000 
     55 C           2.5746  -11.2972  -43.5792 C.2       3 UNK         0.5000 
     56 O           1.8006  -10.5707  -42.9544 O.2       3 UNK        -0.5000 
     57 CA          2.8830  -10.9803  -45.0532 C.3       3 UNK         0.1400 
     58 CB          4.3279  -10.4782  -45.2429 C.3       3 UNK        -0.1800 
     59 N           2.5542  -12.0763  -45.9720 N.am      3 UNK        -0.5000 
     60 C           3.1456  -13.2716  -46.1206 C.2       2 UNK         0.5000 
     61 O           4.1163  -13.6403  -45.4575 O.2       2 UNK        -0.5000 
     62 CA          2.5288  -14.2101  -47.1791 C.3       2 UNK         0.1400 
     63 CB          2.8492  -15.6905  -46.9179 C.3       2 UNK        -0.1800 
     64 N           1.0763  -14.0374  -47.2250 N.am      2 UNK        -0.5000 
     65 C           0.3773  -13.5648  -48.2654 C.2       1 UNK         0.5000 
     66 O           0.8761  -13.3003  -49.3598 O.2       1 UNK        -0.5000 
     67 C          -0.5461  -21.9627  -47.7058 C.2       11 UNK         0.5000 
     68 O          -0.6266  -22.8916  -48.5085 O.2       11 UNK        -0.5000 
     69 N          -1.6108  -21.3832  -47.1310 N.am      12 UNK        -0.5000 
     70 CA         -3.0000  -21.7426  -47.4227 C.3       12 UNK         0.1400 
     71 CB         -3.9501  -20.7913  -46.6817 C.3       12 UNK        -0.1800 
     72 C          -3.3334  -23.2110  -47.1014 C.2       12 UNK         0.5000 
     73 O          -4.0657  -23.8405  -47.8629 O.2       12 UNK        -0.5000 
     74 N          -2.7644  -23.7438  -46.0112 N.am      13 UNK        -0.5000 
     75 CA         -2.8642  -25.1529  -45.6342 C.3       13 UNK         0.1400 
     76 CB         -2.3279  -25.3465  -44.2077 C.3       13 UNK        -0.1800 
     77 C          -2.1368  -26.0838  -46.6218 C.2       13 UNK         0.5000 
     78 O          -2.6942  -27.1152  -46.9979 O.2       13 UNK        -0.5000 
     79 N          -0.9198  -25.7015  -47.0352 N.am      14 UNK        -0.5000 
     80 CA         -0.0924  -26.4506  -47.9833 C.3       14 UNK         0.1400 
     81 CB          1.3363  -25.8850  -47.9778 C.3       14 UNK        -0.1800 
     82 C          -0.6711  -26.4581  -49.4101 C.2       14 UNK         0.5000 
     83 O          -0.6906  -27.5081  -50.0536 O.2       14 UNK        -0.5000 
     84 N          -1.1433  -25.2930  -49.8716 N.am      15 UNK        -0.5000 
     85 CA         -1.7770  -25.1068  -51.1786 C.3       15 UNK         0.1400 
     86 CB         -1.7465  -23.6122  -51.5325 C.3       15 UNK        -0.1800 
     87 C          -3.2186  -25.6503  -51.2371 C.2       15 UNK         0.5000 
     88 O          -3.7236  -25.8994  -52.3312 O.2       15 UNK        -0.5000 
     89 N          -3.8488  -25.8130  -50.0648 N.am      16 UNK        -0.5000 
     90 CA         -5.2296  -26.2483  -49.8248 C.3       16 UNK         0.1400 
     91 CB         -5.4840  -27.6597  -50.3938 C.3       16 UNK        -0.1800 
     92 C          -6.2956  -25.2207  -50.2666 C.2       16 UNK         0.5000 
     93 O          -7.4742  -25.5681  -50.3618 O.2       16 UNK        -0.5000 
     94 N          -5.8775  -23.9709  -50.4917 N.am      17 UNK        -0.5000 
     95 CA         -6.7019  -22.8165  -50.8232 C.3       17 UNK         0.1400 
     96 CB         -7.2206  -22.9098  -52.2700 C.3       17 UNK        -0.1800 
     97 C          -5.8519  -21.5541  -50.6267 C.2       17 UNK         0.5000 
     98 O          -4.6266  -21.6170  -50.7465 O.2       17 UNK        -0.5000 
     99 N          -6.5187  -20.4297  -50.3457 N.am      18 UNK        -0.5000 
    100 CA        -5.8964  -19.1198  -50.1270 C.3       18 UNK         0.1400 
    101 CB        -6.6370  -18.4153  -48.9771 C.3       18 UNK        -0.1800 
    102 C         -5.8714  -18.2448  -51.3994 C.2       18 UNK         0.5000 
    103 O         -5.5277  -17.0656  -51.3181 O.2       18 UNK        -0.5000 
    104 N         -6.2478  -18.8159  -52.5472 N.am      19 UNK        -0.5000 
    105 CA        -6.2450  -18.1868  -53.8622 C.3       19 UNK         0.1400 
    106 CB        -7.4802  -17.2809  -54.0191 C.3       19 UNK        -0.1800 
    107 C         -6.2381  -19.2965  -54.9212 C.2       19 UNK         0.5000 
    108 O         -6.5715  -20.4415  -54.6021 O.2       19 UNK        -0.5000 
    109 N         -5.8562  -18.9411  -56.1560 N.am      20 UNK        -0.5000 
    110 CA        -5.7971  -19.7598  -57.3803 C.3       20 UNK         0.1400 
    111 CB        -7.1879  -20.3077  -57.7530 C.3       20 UNK        -0.1800 
    112 C         -4.7448  -20.8892  -57.3679 C.2       20 UNK         0.5000 
    113 O         -4.0940  -21.1206  -58.3867 O.2       20 UNK        -0.5000 
    114 N         -4.5678  -21.5456  -56.2173 N.am      21 UNK        -0.5000 
    115 CA        -3.5874  -22.6003  -55.9539 C.3       21 UNK         0.1400 
    116 CB        -4.1079  -23.4561  -54.7882 C.3       21 UNK        -0.1800 
    117 C         -2.1686  -22.0652  -55.6571 C.2       21 UNK         0.5000 
    118 O         -1.2900  -22.8570  -55.3130 O.2       21 UNK        -0.5000 
    119 N         -1.9757  -20.7438  -55.7684 N.am      22 UNK        -0.5000 
    120 CA        -0.7184  -20.0131  -55.5560 C.3       22 UNK         0.1400 
    121 C          0.4757  -20.5640  -56.3884 C.2       22 UNK         0.5000 
    122 N          1.6578  -20.6748  -55.7972 N.am      22 UNK        -0.7600 
    123 O          0.3498  -20.8415  -57.5792 O.2       22 UNK        -0.5000 
    124 C124       -0.8898  -18.4983  -55.8475 C.3       23 UNK        -0.0398 
    125 S125       -2.2504  -17.6901  -54.9286 S.3       23 UNK        -0.2404 
    126 C126       -1.3547  -16.6707  -53.7078 C.3       23 UNK        -0.0205 
    127 H127       -1.9939  -11.1351  -44.1499 H         1 UNK         0.0600 
    128 H128       -0.6512  -12.2089  -43.7418 H         1 UNK         0.0600 
    129 H129       -2.2195  -12.8861  -44.1897 H         1 UNK         0.0600 
    130 H130       -2.0983  -13.7953  -46.2359 H         1 UNK         0.3000 
    131 H131       -1.3366  -12.3511  -48.5463 H         1 UNK         0.0600 
    132 H132       -3.0364  -13.9913  -48.7977 H         1 UNK         0.0800 
    133 H133       -1.6856  -14.5503  -49.7382 H         1 UNK         0.0800 
    134 H134       -3.8987  -16.4034  -49.3384 H         1 UNK         0.0800 
    135 H135       -3.4864  -17.8135  -48.3927 H         1 UNK         0.0800 
    136 H136       -2.8149  -16.0234  -51.4969 H         1 UNK         0.1150 
    137 H137        0.1754  -18.7647  -52.8736 H         1 UNK         0.1150 
    138 H138       -1.4724  -19.1684  -48.9343 H         1 UNK         0.1150 
    139 H139       -0.3459  -21.1432  -50.2808 H         1 UNK         0.0800 
    140 H140        0.6332  -20.7282  -51.6361 H         1 UNK         0.0800 
    141 H141        0.3348  -19.3575  -47.7919 H         1 UNK         0.0800 
    142 H142        1.9751  -19.6071  -47.3391 H         1 UNK         0.0800 
    143 H143        1.5804  -22.1605  -47.6760 H         1 UNK         0.0600 
    144 H144        1.1530  -20.5770  -45.3788 H         1 UNK         0.3000 
    145 H145        0.5757  -23.2859  -43.0835 H         1 UNK         0.0600 
    146 H146        2.4409  -22.1075  -41.9717 H         1 UNK         0.0600 
    147 H147        3.0397  -22.9867  -43.3699 H         1 UNK         0.0600 
    148 H148        2.8276  -21.2427  -43.4574 H         1 UNK         0.0600 
    149 H149        0.5775  -20.4936  -42.6369 H         1 UNK         0.3000 
    150 H150       -2.9332  -19.9397  -43.2519 H         1 UNK         0.0600 
    151 H151       -2.6294  -20.8192  -40.9252 H         1 UNK         0.0600 
    152 H152       -2.7014  -19.0635  -40.9531 H         1 UNK         0.0600 
    153 H153       -1.1513  -19.8778  -40.7582 H         1 UNK         0.0600 
    154 H154       -0.9179  -18.1114  -42.4945 H         1 UNK         0.3000 
    155 H155        0.0734  -17.0828  -45.7940 H         1 UNK         0.0600 
    156 H156       -1.2548  -15.7977  -43.3451 H         1 UNK         0.0600 
    157 H157       -1.9448  -15.8169  -44.9505 H         1 UNK         0.0600 
    158 H158       -0.4396  -14.9512  -44.6513 H         1 UNK         0.0600 
    159 H159        1.1632  -16.3409  -43.3161 H         1 UNK         0.3000 
    160 H160        3.6521  -18.8927  -42.9669 H         1 UNK         0.0600 
    161 H161        3.7324  -15.9030  -43.6448 H         1 UNK         0.0600 
    162 H162        4.5847  -17.1811  -44.4940 H         1 UNK         0.0600 
    163 H163        5.0159  -16.8033  -42.8337 H         1 UNK         0.0600 
    164 H164        2.8676  -16.6227  -41.3845 H         1 UNK         0.3000 
    165 H165        0.6264  -18.3805  -39.2276 H         1 UNK         0.0600 
    166 H166        2.2123  -17.4701  -37.5549 H         1 UNK         0.0600 
    167 H167        2.9331  -18.8414  -38.3821 H         1 UNK         0.0600 
    168 H168        3.4295  -17.2068  -38.8037 H         1 UNK         0.0600 
    169 H169        1.5479  -15.6684  -39.3040 H         1 UNK         0.3000 
    170 H170       -0.9853  -14.3819  -41.4470 H         1 UNK         0.0600 
    171 H171       -2.1064  -14.5931  -39.2255 H         1 UNK         0.0600 
    172 H172       -0.6182  -14.1172  -38.4163 H         1 UNK         0.0600 
    173 H173       -1.4602  -12.9784  -39.4681 H         1 UNK         0.0600 
    174 H174        1.0298  -13.0638  -39.9635 H         1 UNK         0.3000 
    175 H175        2.7101  -12.0544  -41.0316 H         1 UNK         0.0600 
    176 H176        4.4064  -14.4711  -41.8645 H         1 UNK         0.0600 
    177 H177        5.0034  -12.9825  -41.1411 H         1 UNK         0.0600 
    178 H178        3.9703  -14.0560  -40.2111 H         1 UNK         0.0600 
    179 H179        3.7139  -12.9599  -43.6748 H         1 UNK         0.3000 
    180 H180        2.2215  -10.1604  -45.3379 H         1 UNK         0.0600 
    181 H181        5.0673  -11.2280  -44.9610 H         1 UNK         0.0600 
    182 H182        4.5134   -9.5958  -44.6295 H         1 UNK         0.0600 
    183 H183        4.5138  -10.1978  -46.2797 H         1 UNK         0.0600 
    184 H184        1.7195  -11.9056  -46.5204 H         1 UNK         0.3000 
    185 H185        2.9781  -13.9349  -48.1350 H         1 UNK         0.0600 
    186 H186        3.9226  -15.8769  -46.9657 H         1 UNK         0.0600 
    187 H187        2.5072  -15.9938  -45.9319 H         1 UNK         0.0600 
    188 H188        2.3719  -16.3378  -47.6541 H         1 UNK         0.0600 
    189 H189        0.5819  -14.2046  -46.3612 H         1 UNK         0.3000 
    190 H190       -1.4705  -20.6262  -46.4649 H         1 UNK         0.3000 
    191 H191       -3.1498  -21.6013  -48.4946 H         1 UNK         0.0600 
    192 H192       -3.8272  -20.8647  -45.6005 H         1 UNK         0.0600 
    193 H193       -4.9910  -21.0195  -46.9142 H         1 UNK         0.0600 
    194 H194       -3.7730  -19.7551  -46.9680 H         1 UNK         0.0600 
    195 H195       -2.2248  -23.1433  -45.3941 H         1 UNK         0.3000 
    196 H196       -3.9213  -25.4270  -45.6366 H         1 UNK         0.0600 
    197 H197       -2.3942  -26.3916  -43.9028 H         1 UNK         0.0600 
    198 H198       -2.9020  -24.7612  -43.4894 H         1 UNK         0.0600 
    199 H199       -1.2833  -25.0444  -44.1251 H         1 UNK         0.0600 
    200 H200       -0.5188  -24.8465  -46.6628 H         1 UNK         0.3000 
    201 H201       -0.0443  -27.4863  -47.6406 H         1 UNK         0.0600 
    202 H202        1.7858  -25.9624  -46.9877 H         1 UNK         0.0600 
    203 H203        1.3558  -24.8348  -48.2711 H         1 UNK         0.0600 
    204 H204        1.9770  -26.4325  -48.6700 H         1 UNK         0.0600 
    205 H205       -1.0399  -24.4599  -49.2928 H         1 UNK         0.3000 
    206 H206       -1.1931  -25.6445  -51.9284 H         1 UNK         0.0600 
    207 H207       -2.2879  -23.0140  -50.7987 H         1 UNK         0.0600 
    208 H208       -0.7226  -23.2416  -51.5774 H         1 UNK         0.0600 
    209 H209       -2.1984  -23.4275  -52.5067 H         1 UNK         0.0600 
    210 H210       -3.3526  -25.5234  -49.2317 H         1 UNK         0.3000 
    211 H211       -5.3232  -26.3173  -48.7401 H         1 UNK         0.0600 
    212 H212       -5.5028  -27.6621  -51.4837 H         1 UNK         0.0600 
    213 H213       -6.4430  -28.0508  -50.0525 H         1 UNK         0.0600 
    214 H214       -4.7150  -28.3602  -50.0678 H         1 UNK         0.0600 
    215 H215       -4.9004  -23.7495  -50.3413 H         1 UNK         0.3000 
    216 H216       -7.5461  -22.7818  -50.1316 H         1 UNK         0.0600 
    217 H217       -7.8239  -22.0387  -52.5281 H         1 UNK         0.0600 
    218 H218       -7.8482  -23.7885  -52.4166 H         1 UNK         0.0600 
    219 H219       -6.4014  -22.9627  -52.9861 H         1 UNK         0.0600 
    220 H220       -7.5269  -20.4571  -50.2849 H         1 UNK         0.3000 
    221 H221       -4.8577  -19.2562  -49.8199 H         1 UNK         0.0600 
    222 H222       -7.6818  -18.2280  -49.2274 H         1 UNK         0.0600 
    223 H223       -6.6110  -19.0153  -48.0673 H         1 UNK         0.0600 
    224 H224       -6.1794  -17.4542  -48.7401 H         1 UNK         0.0600 
    225 H225       -6.4864  -19.7993  -52.5631 H         1 UNK         0.3000 
    226 H226       -5.3336  -17.5955  -53.9747 H         1 UNK         0.0600 
    227 H227       -7.4807  -16.4779  -53.2821 H         1 UNK         0.0600 
    228 H228       -7.5031  -16.8132  -55.0040 H         1 UNK         0.0600 
    229 H229       -8.4066  -17.8442  -53.9005 H         1 UNK         0.0600 
    230 H230       -5.5720  -17.9803  -56.2899 H         1 UNK         0.3000 
    231 H231       -5.4979  -19.0728  -58.1735 H         1 UNK         0.0600 
    232 H232       -7.9203  -19.5042  -57.8305 H         1 UNK         0.0600 
    233 H233       -7.5544  -21.0266  -57.0197 H         1 UNK         0.0600 
    234 H234       -7.1592  -20.8155  -58.7179 H         1 UNK         0.0600 
    235 H235       -5.1836  -21.2928  -55.4481 H         1 UNK         0.3000 
    236 H236       -3.5133  -23.2372  -56.8375 H         1 UNK         0.0600 
    237 H237       -3.4519  -24.3068  -54.6009 H         1 UNK         0.0600 
    238 H238       -4.1697  -22.8786  -53.8650 H         1 UNK         0.0600 
    239 H239       -5.0989  -23.8567  -55.0017 H         1 UNK         0.0600 
    240 H240       -2.7632  -20.1805  -56.0488 H         1 UNK         0.3000 
    241 H241       -0.4766  -20.1408  -54.5013 H         1 UNK         0.0600 
    242 H242        2.4406  -21.0147  -56.3343 H         1 UNK         0.3800 
    243 H243        1.7913  -20.4478  -54.8244 H         1 UNK         0.3800 
    244 H244        0.0445  -17.9708  -55.6503 H         1 UNK         0.0800 
    245 H245       -1.0898  -18.3470  -56.9100 H         1 UNK         0.0800 
    246 H246       -0.3364  -16.4589  -54.0348 H         1 UNK         0.0800 
    247 H247       -1.8520  -15.7017  -53.6433 H         1 UNK         0.0800 
@<TRIPOS>BOND
     1    1    2 1    
     2    1  127 1    
     3    1  128 1    
     4    1  129 1    
     5    2    3 2    
     6    2    4 am   BACKBONE|DICT|INTERRES
     7    4    5 1    
     8    4  130 1    
     9    5    6 1    
    10    5   65 1    
    11    5  131 1    
    12    6    7 1    
    13    6  132 1    
    14    6  133 1    
    15    7    8 1    
    16    8    9 1    
    17    8  134 1    
    18    8  135 1    
    19    9   10 ar   
    20    9   14 ar   
    21   10   11 ar   
    22   10  136 1    
    23   11   12 ar   
    24   11  126 1    
    25   12   13 ar   
    26   12  137 1    
    27   13   14 ar   
    28   13   15 1    
    29   14  138 1    
    30   15   16 1    
    31   15  139 1    
    32   15  140 1    
    33   16   17 1    
    34   17   18 1    
    35   17  141 1    
    36   17  142 1    
    37   18   19 1    
    38   18   67 1    
    39   18  143 1    
    40   19   20 am   BACKBONE|DICT|INTERRES
    41   19  144 1    
    42   20   21 2    
    43   20   22 1    
    44   22   23 1    
    45   22   24 1    
    46   22  145 1    
    47   23  146 1    
    48   23  147 1    
    49   23  148 1    
    50   24   25 am   BACKBONE|DICT|INTERRES
    51   24  149 1    
    52   25   26 2    
    53   25   27 1    
    54   27   28 1    
    55   27   29 1    
    56   27  150 1    
    57   28  151 1    
    58   28  152 1    
    59   28  153 1    
    60   29   30 am   BACKBONE|DICT|INTERRES
    61   29  154 1    
    62   30   31 2    
    63   30   32 1    
    64   32   33 1    
    65   32   34 1    
    66   32  155 1    
    67   33  156 1    
    68   33  157 1    
    69   33  158 1    
    70   34   35 am   BACKBONE|DICT|INTERRES
    71   34  159 1    
    72   35   36 2    
    73   35   37 1    
    74   37   38 1    
    75   37   39 1    
    76   37  160 1    
    77   38  161 1    
    78   38  162 1    
    79   38  163 1    
    80   39   40 am   BACKBONE|DICT|INTERRES
    81   39  164 1    
    82   40   41 2    
    83   40   42 1    
    84   42   43 1    
    85   42   44 1    
    86   42  165 1    
    87   43  166 1    
    88   43  167 1    
    89   43  168 1    
    90   44   45 am   BACKBONE|DICT|INTERRES
    91   44  169 1    
    92   45   46 2    
    93   45   47 1    
    94   47   48 1    
    95   47   49 1    
    96   47  170 1    
    97   48  171 1    
    98   48  172 1    
    99   48  173 1    
   100   49   50 am   BACKBONE|DICT|INTERRES
   101   49  174 1    
   102   50   51 2    
   103   50   52 1    
   104   52   53 1    
   105   52   54 1    
   106   52  175 1    
   107   53  176 1    
   108   53  177 1    
   109   53  178 1    
   110   54   55 am   BACKBONE|DICT|INTERRES
   111   54  179 1    
   112   55   56 2    
   113   55   57 1    
   114   57   58 1    
   115   57   59 1    
   116   57  180 1    
   117   58  181 1    
   118   58  182 1    
   119   58  183 1    
   120   59   60 am   BACKBONE|DICT|INTERRES
   121   59  184 1    
   122   60   61 2    
   123   60   62 1    
   124   62   63 1    
   125   62   64 1    
   126   62  185 1    
   127   63  186 1    
   128   63  187 1    
   129   63  188 1    
   130   64   65 am   BACKBONE|DICT|INTERRES
   131   64  189 1    
   132   65   66 2    
   133   67   68 2    
   134   67   69 am   BACKBONE|DICT|INTERRES
   135   69   70 1    
   136   69  190 1    
   137   70   71 1    
   138   70   72 1    
   139   70  191 1    
   140   71  192 1    
   141   71  193 1    
   142   71  194 1    
   143   72   73 2    
   144   72   74 am   BACKBONE|DICT|INTERRES
   145   74   75 1    
   146   74  195 1    
   147   75   76 1    
   148   75   77 1    
   149   75  196 1    
   150   76  197 1    
   151   76  198 1    
   152   76  199 1    
   153   77   78 2    
   154   77   79 am   BACKBONE|DICT|INTERRES
   155   79   80 1    
   156   79  200 1    
   157   80   81 1    
   158   80   82 1    
   159   80  201 1    
   160   81  202 1    
   161   81  203 1    
   162   81  204 1    
   163   82   83 2    
   164   82   84 am   BACKBONE|DICT|INTERRES
   165   84   85 1    
   166   84  205 1    
   167   85   86 1    
   168   85   87 1    
   169   85  206 1    
   170   86  207 1    
   171   86  208 1    
   172   86  209 1    
   173   87   88 2    
   174   87   89 am   BACKBONE|DICT|INTERRES
   175   89   90 1    
   176   89  210 1    
   177   90   91 1    
   178   90   92 1    
   179   90  211 1    
   180   91  212 1    
   181   91  213 1    
   182   91  214 1    
   183   92   93 2    
   184   92   94 am   BACKBONE|DICT|INTERRES
   185   94   95 1    
   186   94  215 1    
   187   95   96 1    
   188   95   97 1    
   189   95  216 1    
   190   96  217 1    
   191   96  218 1    
   192   96  219 1    
   193   97   98 2    
   194   97   99 am   BACKBONE|DICT|INTERRES
   195   99  100 1    
   196   99  220 1    
   197  100  101 1    
   198  100  102 1    
   199  100  221 1    
   200  101  222 1    
   201  101  223 1    
   202  101  224 1    
   203  102  103 2    
   204  102  104 am   BACKBONE|DICT|INTERRES
   205  104  105 1    
   206  104  225 1    
   207  105  106 1    
   208  105  107 1    
   209  105  226 1    
   210  106  227 1    
   211  106  228 1    
   212  106  229 1    
   213  107  108 2    
   214  107  109 am   BACKBONE|DICT|INTERRES
   215  109  110 1    
   216  109  230 1    
   217  110  111 1    
   218  110  112 1    
   219  110  231 1    
   220  111  232 1    
   221  111  233 1    
   222  111  234 1    
   223  112  113 2    
   224  112  114 am   BACKBONE|DICT|INTERRES
   225  114  115 1    
   226  114  235 1    
   227  115  116 1    
   228  115  117 1    
   229  115  236 1    
   230  116  237 1    
   231  116  238 1    
   232  116  239 1    
   233  117  118 2    
   234  117  119 am   BACKBONE|DICT|INTERRES
   235  119  120 1    
   236  119  240 1    
   237  120  121 1    
   238  120  124 1    
   239  120  241 1    
   240  121  122 am   BACKBONE|DICT|INTERRES
   241  121  123 2    
   242  122  242 1    
   243  122  243 1    
   244  124  125 1    
   245  124  244 1    
   246  124  245 1    
   247  125  126 1    
   248  126  246 1    
   249  126  247 1    
@<TRIPOS>SUBSTRUCTURE
     1 UNK         1 GROUP             0       ****    0 ROOT    
