@<TRIPOS>MOLECULE
3R540
247   249    1
SMALL
USER_CHARGES


@<TRIPOS>ATOM
      1 CA          3.7670  -14.4866  -50.2212 C.3       0 UNK        -0.1800 
      2 C           3.1667  -14.6533  -48.8333 C.2       0 UNK         0.5000 
      3 O           3.8047  -14.2987  -47.8427 O.2       0 UNK        -0.5000 
      4 N           1.9343  -15.1735  -48.7561 N.am      1 UNK        -0.5000 
      5 CA          1.2039  -15.4608  -47.5116 C.3       1 UNK         0.1400 
      6 C6         -0.1280  -16.2042  -47.7738 C.3       23 UNK        -0.0398 
      7 S7          0.1290  -17.8054  -48.6119 S.3       23 UNK        -0.2404 
      8 C8         -0.6357  -17.5047  -50.2410 C.3       23 UNK        -0.0205 
      9 C9         -2.1496  -17.3010  -50.2110 C.ar      23 UNK        -0.0193 
     10 C10        -2.7433  -16.4910  -51.1811 C.ar      23 UNK        -0.1150 
     11 C11        -4.1274  -16.3044  -51.2097 C.ar      23 UNK        -0.0193 
     12 C12        -4.9281  -16.9497  -50.2619 C.ar      23 UNK        -0.1150 
     13 C13        -4.3551  -17.7822  -49.2935 C.ar      23 UNK        -0.0193 
     14 C14        -2.9654  -17.9368  -49.2686 C.ar      23 UNK        -0.1150 
     15 C15        -5.2443  -18.4864  -48.2708 C.3       23 UNK        -0.0205 
     16 S16        -4.8570  -20.2628  -48.0539 S.3       23 UNK        -0.2404 
     17 C17        -3.6838  -20.2360  -46.6556 C.3       23 UNK        -0.0398 
     18 CA         -2.3275  -20.9376  -46.9361 C.3       11 UNK         0.1400 
     19 N          -1.2653  -20.3958  -46.0807 N.am      11 UNK        -0.5000 
     20 C           0.0323  -20.7301  -46.1280 C.2       10 UNK         0.5000 
     21 O           0.5075  -21.5105  -46.9507 O.2       10 UNK        -0.5000 
     22 CA          0.9421  -20.1541  -45.0249 C.3       10 UNK         0.1400 
     23 CB          1.4134  -18.7343  -45.3587 C.3       10 UNK        -0.1800 
     24 N           0.3010  -20.1585  -43.7102 N.am      10 UNK        -0.5000 
     25 C          -0.0443  -21.2712  -43.0473 C.2       9 UNK         0.5000 
     26 O           0.1952  -22.4090  -43.4483 O.2       9 UNK        -0.5000 
     27 CA         -0.8447  -21.0808  -41.7493 C.3       9 UNK         0.1400 
     28 CB          0.0860  -20.7548  -40.5723 C.3       9 UNK        -0.1800 
     29 N          -1.8594  -20.0362  -41.8898 N.am      9 UNK        -0.5000 
     30 C          -2.9451  -20.1459  -42.6696 C.2       8 UNK         0.5000 
     31 O          -3.2223  -21.1555  -43.3176 O.2       8 UNK        -0.5000 
     32 CA         -3.8460  -18.9023  -42.7809 C.3       8 UNK         0.1400 
     33 CB         -4.8548  -18.8598  -41.6239 C.3       8 UNK        -0.1800 
     34 N          -3.0848  -17.6518  -42.8083 N.am      8 UNK        -0.5000 
     35 C          -2.2463  -17.2954  -43.7918 C.2       7 UNK         0.5000 
     36 O          -2.0413  -17.9754  -44.7942 O.2       7 UNK        -0.5000 
     37 CA         -1.4632  -15.9874  -43.6002 C.3       7 UNK         0.1400 
     38 CB         -2.2551  -14.7910  -44.1470 C.3       7 UNK        -0.1800 
     39 N          -1.0928  -15.7437  -42.2046 N.am      7 UNK        -0.5000 
     40 C          -0.2286  -16.5043  -41.5220 C.2       6 UNK         0.5000 
     41 O           0.3217  -17.5053  -41.9890 O.2       6 UNK        -0.5000 
     42 CA          0.0820  -16.0779  -40.0846 C.3       6 UNK         0.1400 
     43 CB         -0.3926  -17.1252  -39.0634 C.3       6 UNK        -0.1800 
     44 N           1.5229  -15.9012  -40.0004 N.am      6 UNK        -0.5000 
     45 C           2.1579  -15.0321  -39.2071 C.2       5 UNK         0.5000 
     46 O           1.6018  -14.3665  -38.3325 O.2       5 UNK        -0.5000 
     47 CA          3.6688  -14.8507  -39.4595 C.3       5 UNK         0.1400 
     48 CB          4.4825  -15.7994  -38.5661 C.3       5 UNK        -0.1800 
     49 N           4.0507  -15.0620  -40.8610 N.am      5 UNK        -0.5000 
     50 C           3.6546  -14.2921  -41.8847 C.2       4 UNK         0.5000 
     51 O           2.9479  -13.2894  -41.7525 O.2       4 UNK        -0.5000 
     52 CA          4.0929  -14.7580  -43.2860 C.3       4 UNK         0.1400 
     53 CB          3.2740  -15.9819  -43.7250 C.3       4 UNK        -0.1800 
     54 N           3.9393  -13.7041  -44.2886 N.am      4 UNK        -0.5000 
     55 C           4.7569  -12.6490  -44.4141 C.2       3 UNK         0.5000 
     56 O           5.7592  -12.4857  -43.7157 O.2       3 UNK        -0.5000 
     57 CA          4.4261  -11.6054  -45.5004 C.3       3 UNK         0.1400 
     58 CB          5.5340  -11.5588  -46.5662 C.3       3 UNK        -0.1800 
     59 N           3.1484  -11.8680  -46.1654 N.am      3 UNK        -0.5000 
     60 C           1.9794  -11.3060  -45.8252 C.2       2 UNK         0.5000 
     61 O           1.8601  -10.4763  -44.9232 O.2       2 UNK        -0.5000 
     62 CA          0.7261  -11.7322  -46.6205 C.3       2 UNK         0.1400 
     63 CB          0.3743  -10.6724  -47.6757 C.3       2 UNK        -0.1800 
     64 N           0.8566  -13.0314  -47.2836 N.am      2 UNK        -0.5000 
     65 C           0.9596  -14.2058  -46.6465 C.2       1 UNK         0.5000 
     66 O           0.9182  -14.3136  -45.4229 O.2       1 UNK        -0.5000 
     67 C          -2.4428  -22.4722  -46.8052 C.2       11 UNK         0.5000 
     68 O          -2.4796  -23.1759  -47.8170 O.2       11 UNK        -0.5000 
     69 N          -2.4471  -22.9619  -45.5564 N.am      12 UNK        -0.5000 
     70 CA         -2.4682  -24.3846  -45.2193 C.3       12 UNK         0.1400 
     71 CB         -2.7249  -24.5503  -43.7139 C.3       12 UNK        -0.1800 
     72 C          -1.1849  -25.1233  -45.6427 C.2       12 UNK         0.5000 
     73 O          -1.2769  -26.2411  -46.1496 O.2       12 UNK        -0.5000 
     74 N          -0.0209  -24.4856  -45.4509 N.am      13 UNK        -0.5000 
     75 CA          1.2898  -25.0055  -45.8479 C.3       13 UNK         0.1400 
     76 CB          2.3992  -24.1425  -45.2282 C.3       13 UNK        -0.1800 
     77 C           1.4602  -25.0979  -47.3754 C.2       13 UNK         0.5000 
     78 O           2.0159  -26.0828  -47.8636 O.2       13 UNK        -0.5000 
     79 N           0.9599  -24.0877  -48.1013 N.am      14 UNK        -0.5000 
     80 CA          0.8953  -24.0602  -49.5642 C.3       14 UNK         0.1400 
     81 CB          0.5017  -22.6502  -50.0256 C.3       14 UNK        -0.1800 
     82 C          -0.0763  -25.1105  -50.1361 C.2       14 UNK         0.5000 
     83 O           0.1819  -25.6451  -51.2148 O.2       14 UNK        -0.5000 
     84 N          -1.1458  -25.4024  -49.3799 N.am      15 UNK        -0.5000 
     85 CA         -2.1597  -26.4307  -49.6226 C.3       15 UNK         0.1400 
     86 CB         -1.5397  -27.8405  -49.5264 C.3       15 UNK        -0.1800 
     87 C          -2.9350  -26.1910  -50.9319 C.2       15 UNK         0.5000 
     88 O          -3.0513  -27.0943  -51.7627 O.2       15 UNK        -0.5000 
     89 N          -3.4506  -24.9618  -51.0754 N.am      16 UNK        -0.5000 
     90 CA         -4.1883  -24.4451  -52.2298 C.3       16 UNK         0.1400 
     91 CB         -5.5272  -25.1961  -52.4199 C.3       16 UNK        -0.1800 
     92 C          -3.2999  -24.3944  -53.4900 C.2       16 UNK         0.5000 
     93 O          -2.3637  -23.5945  -53.5261 O.2       16 UNK        -0.5000 
     94 N          -3.6119  -25.2276  -54.4949 N.am      17 UNK        -0.5000 
     95 CA         -2.8746  -25.4168  -55.7514 C.3       17 UNK         0.1400 
     96 CB         -1.5097  -26.0815  -55.4734 C.3       17 UNK        -0.1800 
     97 C          -2.7503  -24.1314  -56.5988 C.2       17 UNK         0.5000 
     98 O          -1.7255  -23.9165  -57.2473 O.2       17 UNK        -0.5000 
     99 N          -3.7877  -23.2820  -56.5471 N.am      18 UNK        -0.5000 
    100 CA        -3.9559  -21.9774  -57.2082 C.3       18 UNK         0.1400 
    101 CB        -3.8820  -22.1124  -58.7416 C.3       18 UNK        -0.1800 
    102 C         -3.0244  -20.8538  -56.7025 C.2       18 UNK         0.5000 
    103 O         -3.3921  -19.6831  -56.8065 O.2       18 UNK        -0.5000 
    104 N         -1.8588  -21.2085  -56.1472 N.am      19 UNK        -0.5000 
    105 CA        -0.9199  -20.3009  -55.4850 C.3       19 UNK         0.1400 
    106 CB         0.4070  -21.0412  -55.2580 C.3       19 UNK        -0.1800 
    107 C         -1.4654  -19.7551  -54.1511 C.2       19 UNK         0.5000 
    108 O         -1.0987  -18.6508  -53.7483 O.2       19 UNK        -0.5000 
    109 N         -2.3338  -20.5392  -53.5071 N.am      20 UNK        -0.5000 
    110 CA        -3.0694  -20.2059  -52.2979 C.3       20 UNK         0.1400 
    111 CB        -2.4009  -20.9196  -51.1113 C.3       20 UNK        -0.1800 
    112 C         -4.5410  -20.6184  -52.4640 C.2       20 UNK         0.5000 
    113 O         -4.9167  -21.1668  -53.5044 O.2       20 UNK        -0.5000 
    114 N         -5.3382  -20.3652  -51.4167 N.am      21 UNK        -0.5000 
    115 CA        -6.7751  -20.6425  -51.3043 C.3       21 UNK         0.1400 
    116 CB        -7.0541  -22.1581  -51.3212 C.3       21 UNK        -0.1800 
    117 C         -7.6019  -19.8565  -52.3401 C.2       21 UNK         0.5000 
    118 O         -8.4299  -20.4285  -53.0513 O.2       21 UNK        -0.5000 
    119 N         -7.3400  -18.5455  -52.4013 N.am      22 UNK        -0.5000 
    120 CA        -7.9715  -17.5860  -53.3223 C.3       22 UNK         0.1400 
    121 C         -9.5044  -17.3759  -53.1301 C.2       22 UNK         0.5000 
    122 N        -10.0966  -17.7574  -52.0048 N.am      22 UNK        -0.7600 
    123 O        -10.1679  -16.8535  -54.0216 O.2       22 UNK        -0.5000 
    124 C124       -7.2495  -16.2153  -53.2960 C.3       23 UNK        -0.0398 
    125 S125       -5.4585  -16.3209  -53.6479 S.3       23 UNK        -0.2404 
    126 C126       -4.7414  -15.3873  -52.2566 C.3       23 UNK        -0.0205 
    127 H127        3.0874  -14.8304  -51.0013 H         1 UNK         0.0600 
    128 H128        4.6920  -15.0576  -50.2994 H         1 UNK         0.0600 
    129 H129        3.9961  -13.4372  -50.4065 H         1 UNK         0.0600 
    130 H130        1.4684  -15.4552  -49.6058 H         1 UNK         0.3000 
    131 H131        1.8421  -16.1195  -46.9188 H         1 UNK         0.0600 
    132 H132       -0.6440  -16.4120  -46.8346 H         1 UNK         0.0800 
    133 H133       -0.8080  -15.5822  -48.3583 H         1 UNK         0.0800 
    134 H134       -0.4194  -18.3560  -50.8869 H         1 UNK         0.0800 
    135 H135       -0.1491  -16.6436  -50.7006 H         1 UNK         0.0800 
    136 H136       -2.1236  -16.0060  -51.9226 H         1 UNK         0.1150 
    137 H137       -5.9975  -16.7939  -50.2753 H         1 UNK         0.1150 
    138 H138       -2.5151  -18.5640  -48.5174 H         1 UNK         0.1150 
    139 H139       -5.1845  -17.9608  -47.3171 H         1 UNK         0.0800 
    140 H140       -6.2883  -18.4171  -48.5799 H         1 UNK         0.0800 
    141 H141       -4.1786  -20.6574  -45.7795 H         1 UNK         0.0800 
    142 H142       -3.5052  -19.1921  -46.4067 H         1 UNK         0.0800 
    143 H143       -2.0249  -20.7253  -47.9623 H         1 UNK         0.0600 
    144 H144       -1.5477  -19.6830  -45.4135 H         1 UNK         0.3000 
    145 H145        1.8270  -20.7904  -44.9636 H         1 UNK         0.0600 
    146 H146        2.1093  -18.3729  -44.6035 H         1 UNK         0.0600 
    147 H147        1.9319  -18.7103  -46.3176 H         1 UNK         0.0600 
    148 H148        0.5822  -18.0325  -45.4109 H         1 UNK         0.0600 
    149 H149        0.0925  -19.2580  -43.2952 H         1 UNK         0.3000 
    150 H150       -1.3543  -22.0210  -41.5276 H         1 UNK         0.0600 
    151 H151        0.7963  -21.5655  -40.4057 H         1 UNK         0.0600 
    152 H152       -0.4760  -20.6203  -39.6480 H         1 UNK         0.0600 
    153 H153        0.6647  -19.8488  -40.7516 H         1 UNK         0.0600 
    154 H154       -1.6769  -19.1580  -41.4284 H         1 UNK         0.3000 
    155 H155       -4.4031  -18.9788  -43.7170 H         1 UNK         0.0600 
    156 H156       -4.3584  -18.7556  -40.6582 H         1 UNK         0.0600 
    157 H157       -5.4489  -19.7741  -41.5909 H         1 UNK         0.0600 
    158 H158       -5.5490  -18.0269  -41.7366 H         1 UNK         0.0600 
    159 H159       -3.1918  -17.0329  -42.0183 H         1 UNK         0.3000 
    160 H160       -0.5417  -16.0793  -44.1773 H         1 UNK         0.0600 
    161 H161       -3.1792  -14.6284  -43.5912 H         1 UNK         0.0600 
    162 H162       -2.5218  -14.9464  -45.1934 H         1 UNK         0.0600 
    163 H163       -1.6653  -13.8753  -44.0983 H         1 UNK         0.0600 
    164 H164       -1.4955  -14.9293  -41.7637 H         1 UNK         0.3000 
    165 H165       -0.4175  -15.1284  -39.8802 H         1 UNK         0.0600 
    166 H166       -0.2195  -16.7834  -38.0429 H         1 UNK         0.0600 
    167 H167       -1.4612  -17.3176  -39.1657 H         1 UNK         0.0600 
    168 H168        0.1291  -18.0740  -39.1872 H         1 UNK         0.0600 
    169 H169        2.0506  -16.4005  -40.7037 H         1 UNK         0.3000 
    170 H170        3.9263  -13.8236  -39.1921 H         1 UNK         0.0600 
    171 H171        4.2385  -15.6490  -37.5135 H         1 UNK         0.0600 
    172 H172        4.2837  -16.8454  -38.8026 H         1 UNK         0.0600 
    173 H173        5.5530  -15.6261  -38.6777 H         1 UNK         0.0600 
    174 H174        4.6321  -15.8661  -41.0493 H         1 UNK         0.3000 
    175 H175        5.1463  -15.0429  -43.2431 H         1 UNK         0.0600 
    176 H176        2.2016  -15.7891  -43.6799 H         1 UNK         0.0600 
    177 H177        3.5198  -16.2771  -44.7454 H         1 UNK         0.0600 
    178 H178        3.4742  -16.8400  -43.0825 H         1 UNK         0.0600 
    179 H179        3.1007  -13.7383  -44.8523 H         1 UNK         0.3000 
    180 H180        4.3959  -10.6300  -45.0106 H         1 UNK         0.0600 
    181 H181        5.6591  -12.5218  -47.0618 H         1 UNK         0.0600 
    182 H182        6.4939  -11.2934  -46.1215 H         1 UNK         0.0600 
    183 H183        5.3149  -10.8135  -47.3309 H         1 UNK         0.0600 
    184 H184        3.1683  -12.5756  -46.8921 H         1 UNK         0.3000 
    185 H185       -0.1023  -11.7977  -45.9117 H         1 UNK         0.0600 
    186 H186        0.2365   -9.6929  -47.2158 H         1 UNK         0.0600 
    187 H187        1.1606  -10.5753  -48.4254 H         1 UNK         0.0600 
    188 H188       -0.5538  -10.9207  -48.1910 H         1 UNK         0.0600 
    189 H189        0.9221  -13.0232  -48.2910 H         1 UNK         0.3000 
    190 H190       -2.4494  -22.3126  -44.7760 H         1 UNK         0.3000 
    191 H191       -3.3032  -24.8399  -45.7558 H         1 UNK         0.0600 
    192 H192       -1.9353  -24.0938  -43.1167 H         1 UNK         0.0600 
    193 H193       -2.7763  -25.6048  -43.4402 H         1 UNK         0.0600 
    194 H194       -3.6700  -24.0915  -43.4229 H         1 UNK         0.0600 
    195 H195       -0.0263  -23.5954  -44.9612 H         1 UNK         0.3000 
    196 H196        1.3835  -26.0153  -45.4431 H         1 UNK         0.0600 
    197 H197        3.3854  -24.5305  -45.4855 H         1 UNK         0.0600 
    198 H198        2.3282  -24.1301  -44.1405 H         1 UNK         0.0600 
    199 H199        2.3502  -23.1118  -45.5791 H         1 UNK         0.0600 
    200 H200        0.5923  -23.2718  -47.6172 H         1 UNK         0.3000 
    201 H201        1.8909  -24.2823  -49.9535 H         1 UNK         0.0600 
    202 H202        1.2551  -21.9163  -49.7389 H         1 UNK         0.0600 
    203 H203       -0.4453  -22.3422  -49.5829 H         1 UNK         0.0600 
    204 H204        0.3939  -22.6034  -51.1103 H         1 UNK         0.0600 
    205 H205       -1.2866  -24.8475  -48.5439 H         1 UNK         0.3000 
    206 H206       -2.8855  -26.3382  -48.8132 H         1 UNK         0.0600 
    207 H207       -2.3096  -28.6101  -49.5910 H         1 UNK         0.0600 
    208 H208       -1.0230  -27.9769  -48.5761 H         1 UNK         0.0600 
    209 H209       -0.8232  -28.0263  -50.3270 H         1 UNK         0.0600 
    210 H210       -3.2561  -24.2904  -50.3450 H         1 UNK         0.3000 
    211 H211       -4.4305  -23.4127  -51.9869 H         1 UNK         0.0600 
    212 H212       -5.3899  -26.2547  -52.6403 H         1 UNK         0.0600 
    213 H213       -6.1071  -24.7617  -53.2351 H         1 UNK         0.0600 
    214 H214       -6.1399  -25.1281  -51.5211 H         1 UNK         0.0600 
    215 H215       -4.4004  -25.8444  -54.3582 H         1 UNK         0.3000 
    216 H216       -3.4630  -26.1139  -56.3494 H         1 UNK         0.0600 
    217 H217       -1.0100  -26.3585  -56.4023 H         1 UNK         0.0600 
    218 H218       -1.6279  -26.9919  -54.8856 H         1 UNK         0.0600 
    219 H219       -0.8403  -25.4166  -54.9262 H         1 UNK         0.0600 
    220 H220       -4.5521  -23.5439  -55.9404 H         1 UNK         0.3000 
    221 H221       -4.9693  -21.6590  -56.9588 H         1 UNK         0.0600 
    222 H222       -2.8832  -22.3885  -59.0802 H         1 UNK         0.0600 
    223 H223       -4.5814  -22.8648  -59.1061 H         1 UNK         0.0600 
    224 H224       -4.1379  -21.1696  -59.2264 H         1 UNK         0.0600 
    225 H225       -1.6152  -22.1920  -56.1621 H         1 UNK         0.3000 
    226 H226       -0.7361  -19.4515  -56.1460 H         1 UNK         0.0600 
    227 H227        0.2743  -21.9128  -54.6150 H         1 UNK         0.0600 
    228 H228        0.8356  -21.3817  -56.2008 H         1 UNK         0.0600 
    229 H229        1.1415  -20.3900  -54.7824 H         1 UNK         0.0600 
    230 H230       -2.5823  -21.4306  -53.9207 H         1 UNK         0.3000 
    231 H231       -3.0553  -19.1282  -52.1372 H         1 UNK         0.0600 
    232 H232       -1.3715  -20.5846  -50.9906 H         1 UNK         0.0600 
    233 H233       -2.3864  -22.0012  -51.2460 H         1 UNK         0.0600 
    234 H234       -2.9142  -20.7140  -50.1750 H         1 UNK         0.0600 
    235 H235       -4.9242  -19.9344  -50.6007 H         1 UNK         0.3000 
    236 H236       -7.0824  -20.2710  -50.3259 H         1 UNK         0.0600 
    237 H237       -8.1001  -22.3631  -51.0910 H         1 UNK         0.0600 
    238 H238       -6.8462  -22.5951  -52.2974 H         1 UNK         0.0600 
    239 H239       -6.4504  -22.6786  -50.5777 H         1 UNK         0.0600 
    240 H240       -6.6050  -18.1744  -51.8197 H         1 UNK         0.3000 
    241 H241       -7.8526  -17.9989  -54.3259 H         1 UNK         0.0600 
    242 H242      -11.0890  -17.6179  -51.8954 H         1 UNK         0.3800 
    243 H243       -9.5681  -18.1904  -51.2653 H         1 UNK         0.3800 
    244 H244       -7.6827  -15.5449  -54.0407 H         1 UNK         0.0800 
    245 H245       -7.4131  -15.7345  -52.3307 H         1 UNK         0.0800 
    246 H246       -5.4809  -14.7339  -51.7927 H         1 UNK         0.0800 
    247 H247       -3.9772  -14.7196  -52.6575 H         1 UNK         0.0800 
@<TRIPOS>BOND
     1    1    2 1    
     2    1  127 1    
     3    1  128 1    
     4    1  129 1    
     5    2    3 2    
     6    2    4 am   BACKBONE|DICT|INTERRES
     7    4    5 1    
     8    4  130 1    
     9    5    6 1    
    10    5   65 1    
    11    5  131 1    
    12    6    7 1    
    13    6  132 1    
    14    6  133 1    
    15    7    8 1    
    16    8    9 1    
    17    8  134 1    
    18    8  135 1    
    19    9   10 ar   
    20    9   14 ar   
    21   10   11 ar   
    22   10  136 1    
    23   11   12 ar   
    24   11  126 1    
    25   12   13 ar   
    26   12  137 1    
    27   13   14 ar   
    28   13   15 1    
    29   14  138 1    
    30   15   16 1    
    31   15  139 1    
    32   15  140 1    
    33   16   17 1    
    34   17   18 1    
    35   17  141 1    
    36   17  142 1    
    37   18   19 1    
    38   18   67 1    
    39   18  143 1    
    40   19   20 am   BACKBONE|DICT|INTERRES
    41   19  144 1    
    42   20   21 2    
    43   20   22 1    
    44   22   23 1    
    45   22   24 1    
    46   22  145 1    
    47   23  146 1    
    48   23  147 1    
    49   23  148 1    
    50   24   25 am   BACKBONE|DICT|INTERRES
    51   24  149 1    
    52   25   26 2    
    53   25   27 1    
    54   27   28 1    
    55   27   29 1    
    56   27  150 1    
    57   28  151 1    
    58   28  152 1    
    59   28  153 1    
    60   29   30 am   BACKBONE|DICT|INTERRES
    61   29  154 1    
    62   30   31 2    
    63   30   32 1    
    64   32   33 1    
    65   32   34 1    
    66   32  155 1    
    67   33  156 1    
    68   33  157 1    
    69   33  158 1    
    70   34   35 am   BACKBONE|DICT|INTERRES
    71   34  159 1    
    72   35   36 2    
    73   35   37 1    
    74   37   38 1    
    75   37   39 1    
    76   37  160 1    
    77   38  161 1    
    78   38  162 1    
    79   38  163 1    
    80   39   40 am   BACKBONE|DICT|INTERRES
    81   39  164 1    
    82   40   41 2    
    83   40   42 1    
    84   42   43 1    
    85   42   44 1    
    86   42  165 1    
    87   43  166 1    
    88   43  167 1    
    89   43  168 1    
    90   44   45 am   BACKBONE|DICT|INTERRES
    91   44  169 1    
    92   45   46 2    
    93   45   47 1    
    94   47   48 1    
    95   47   49 1    
    96   47  170 1    
    97   48  171 1    
    98   48  172 1    
    99   48  173 1    
   100   49   50 am   BACKBONE|DICT|INTERRES
   101   49  174 1    
   102   50   51 2    
   103   50   52 1    
   104   52   53 1    
   105   52   54 1    
   106   52  175 1    
   107   53  176 1    
   108   53  177 1    
   109   53  178 1    
   110   54   55 am   BACKBONE|DICT|INTERRES
   111   54  179 1    
   112   55   56 2    
   113   55   57 1    
   114   57   58 1    
   115   57   59 1    
   116   57  180 1    
   117   58  181 1    
   118   58  182 1    
   119   58  183 1    
   120   59   60 am   BACKBONE|DICT|INTERRES
   121   59  184 1    
   122   60   61 2    
   123   60   62 1    
   124   62   63 1    
   125   62   64 1    
   126   62  185 1    
   127   63  186 1    
   128   63  187 1    
   129   63  188 1    
   130   64   65 am   BACKBONE|DICT|INTERRES
   131   64  189 1    
   132   65   66 2    
   133   67   68 2    
   134   67   69 am   BACKBONE|DICT|INTERRES
   135   69   70 1    
   136   69  190 1    
   137   70   71 1    
   138   70   72 1    
   139   70  191 1    
   140   71  192 1    
   141   71  193 1    
   142   71  194 1    
   143   72   73 2    
   144   72   74 am   BACKBONE|DICT|INTERRES
   145   74   75 1    
   146   74  195 1    
   147   75   76 1    
   148   75   77 1    
   149   75  196 1    
   150   76  197 1    
   151   76  198 1    
   152   76  199 1    
   153   77   78 2    
   154   77   79 am   BACKBONE|DICT|INTERRES
   155   79   80 1    
   156   79  200 1    
   157   80   81 1    
   158   80   82 1    
   159   80  201 1    
   160   81  202 1    
   161   81  203 1    
   162   81  204 1    
   163   82   83 2    
   164   82   84 am   BACKBONE|DICT|INTERRES
   165   84   85 1    
   166   84  205 1    
   167   85   86 1    
   168   85   87 1    
   169   85  206 1    
   170   86  207 1    
   171   86  208 1    
   172   86  209 1    
   173   87   88 2    
   174   87   89 am   BACKBONE|DICT|INTERRES
   175   89   90 1    
   176   89  210 1    
   177   90   91 1    
   178   90   92 1    
   179   90  211 1    
   180   91  212 1    
   181   91  213 1    
   182   91  214 1    
   183   92   93 2    
   184   92   94 am   BACKBONE|DICT|INTERRES
   185   94   95 1    
   186   94  215 1    
   187   95   96 1    
   188   95   97 1    
   189   95  216 1    
   190   96  217 1    
   191   96  218 1    
   192   96  219 1    
   193   97   98 2    
   194   97   99 am   BACKBONE|DICT|INTERRES
   195   99  100 1    
   196   99  220 1    
   197  100  101 1    
   198  100  102 1    
   199  100  221 1    
   200  101  222 1    
   201  101  223 1    
   202  101  224 1    
   203  102  103 2    
   204  102  104 am   BACKBONE|DICT|INTERRES
   205  104  105 1    
   206  104  225 1    
   207  105  106 1    
   208  105  107 1    
   209  105  226 1    
   210  106  227 1    
   211  106  228 1    
   212  106  229 1    
   213  107  108 2    
   214  107  109 am   BACKBONE|DICT|INTERRES
   215  109  110 1    
   216  109  230 1    
   217  110  111 1    
   218  110  112 1    
   219  110  231 1    
   220  111  232 1    
   221  111  233 1    
   222  111  234 1    
   223  112  113 2    
   224  112  114 am   BACKBONE|DICT|INTERRES
   225  114  115 1    
   226  114  235 1    
   227  115  116 1    
   228  115  117 1    
   229  115  236 1    
   230  116  237 1    
   231  116  238 1    
   232  116  239 1    
   233  117  118 2    
   234  117  119 am   BACKBONE|DICT|INTERRES
   235  119  120 1    
   236  119  240 1    
   237  120  121 1    
   238  120  124 1    
   239  120  241 1    
   240  121  122 am   BACKBONE|DICT|INTERRES
   241  121  123 2    
   242  122  242 1    
   243  122  243 1    
   244  124  125 1    
   245  124  244 1    
   246  124  245 1    
   247  125  126 1    
   248  126  246 1    
   249  126  247 1    
@<TRIPOS>SUBSTRUCTURE
     1 UNK         1 GROUP             0       ****    0 ROOT    
