@<TRIPOS>MOLECULE
3R540
247   249    1
SMALL
USER_CHARGES


@<TRIPOS>ATOM
      1 CA          2.4772   -9.7415  -47.0148 C.3       0 UNK        -0.1800 
      2 C           2.2474  -11.1445  -47.5565 C.2       0 UNK         0.5000 
      3 O           1.9548  -12.0555  -46.7808 O.2       0 UNK        -0.5000 
      4 N           2.3847  -11.3209  -48.8795 N.am      1 UNK        -0.5000 
      5 CA          2.2380  -12.5806  -49.6197 C.3       1 UNK         0.1400 
      6 C6          0.7763  -13.1123  -49.5963 C.3       23 UNK        -0.0398 
      7 S7          0.4900  -14.6303  -50.5768 S.3       23 UNK        -0.2404 
      8 C8         -0.1547  -15.7056  -49.2618 C.3       23 UNK        -0.0205 
      9 C9         -0.4873  -17.1059  -49.7444 C.ar      23 UNK        -0.0193 
     10 C10        -1.8178  -17.4778  -49.9517 C.ar      23 UNK        -0.1150 
     11 C11        -2.1389  -18.7857  -50.3217 C.ar      23 UNK        -0.0193 
     12 C12        -1.1187  -19.7288  -50.4677 C.ar      23 UNK        -0.1150 
     13 C13         0.2168  -19.3725  -50.2591 C.ar      23 UNK        -0.0193 
     14 C14         0.5276  -18.0508  -49.9188 C.ar      23 UNK        -0.1150 
     15 C15         1.3045  -20.4337  -50.3949 C.3       23 UNK        -0.0205 
     16 S16         2.5291  -20.4587  -49.0354 S.3       23 UNK        -0.2404 
     17 C17         1.5223  -20.2965  -47.5196 C.3       23 UNK        -0.0398 
     18 CA          1.0647  -21.6366  -46.8967 C.3       11 UNK         0.1400 
     19 N           0.7656  -21.4801  -45.4712 N.am      11 UNK        -0.5000 
     20 C           0.4449  -22.4637  -44.6206 C.2       10 UNK         0.5000 
     21 O           0.4131  -23.6541  -44.9296 O.2       10 UNK        -0.5000 
     22 CA          0.0421  -22.0378  -43.1960 C.3       10 UNK         0.1400 
     23 CB          1.2790  -21.7526  -42.3312 C.3       10 UNK        -0.1800 
     24 N          -0.8433  -20.8716  -43.1922 N.am      10 UNK        -0.5000 
     25 C          -2.0856  -20.8695  -43.6977 C.2       9 UNK         0.5000 
     26 O          -2.6310  -21.8661  -44.1732 O.2       9 UNK        -0.5000 
     27 CA         -2.8243  -19.5181  -43.7199 C.3       9 UNK         0.1400 
     28 CB         -3.4183  -19.1941  -42.3412 C.3       9 UNK        -0.1800 
     29 N          -1.9694  -18.4141  -44.1583 N.am      9 UNK        -0.5000 
     30 C          -1.4061  -18.3296  -45.3718 C.2       8 UNK         0.5000 
     31 O          -1.5859  -19.1513  -46.2675 O.2       8 UNK        -0.5000 
     32 CA         -0.4311  -17.1657  -45.6093 C.3       8 UNK         0.1400 
     33 CB         -1.1944  -15.8741  -45.9320 C.3       8 UNK        -0.1800 
     34 N           0.4640  -16.9407  -44.4750 N.am      8 UNK        -0.5000 
     35 C           1.3431  -17.8345  -44.0000 C.2       7 UNK         0.5000 
     36 O           1.5210  -18.9457  -44.4922 O.2       7 UNK        -0.5000 
     37 CA          2.1225  -17.4389  -42.7367 C.3       7 UNK         0.1400 
     38 CB          3.3347  -16.5621  -43.0863 C.3       7 UNK        -0.1800 
     39 N           1.2656  -16.7483  -41.7748 N.am      7 UNK        -0.5000 
     40 C           0.2818  -17.3420  -41.0840 C.2       6 UNK         0.5000 
     41 O           0.0318  -18.5468  -41.1453 O.2       6 UNK        -0.5000 
     42 CA         -0.5931  -16.4215  -40.2132 C.3       6 UNK         0.1400 
     43 CB          0.0808  -16.1528  -38.8593 C.3       6 UNK        -0.1800 
     44 N          -0.8896  -15.1462  -40.8707 N.am      6 UNK        -0.5000 
     45 C          -1.6637  -15.0232  -41.9582 C.2       5 UNK         0.5000 
     46 O          -2.2349  -15.9712  -42.4970 O.2       5 UNK        -0.5000 
     47 CA         -1.7880  -13.6130  -42.5703 C.3       5 UNK         0.1400 
     48 CB         -2.9220  -12.8315  -41.8905 C.3       5 UNK        -0.1800 
     49 N          -0.5528  -12.8220  -42.5149 N.am      5 UNK        -0.5000 
     50 C           0.6137  -13.1799  -43.0676 C.2       4 UNK         0.5000 
     51 O           0.7896  -14.2515  -43.6540 O.2       4 UNK        -0.5000 
     52 CA          1.7875  -12.2024  -42.9047 C.3       4 UNK         0.1400 
     53 CB          2.2065  -12.0863  -41.4255 C.3       4 UNK        -0.1800 
     54 N           2.9031  -12.7016  -43.6997 N.am      4 UNK        -0.5000 
     55 C           3.9982  -12.0262  -44.0635 C.2       3 UNK         0.5000 
     56 O           4.2031  -10.8438  -43.7882 O.2       3 UNK        -0.5000 
     57 CA          5.0427  -12.8144  -44.8690 C.3       3 UNK         0.1400 
     58 CB          5.9302  -13.6027  -43.8788 C.3       3 UNK        -0.1800 
     59 N           4.3686  -13.6726  -45.8529 N.am      3 UNK        -0.5000 
     60 C           4.8925  -14.6725  -46.5792 C.2       2 UNK         0.5000 
     61 O           6.0635  -15.0455  -46.5146 O.2       2 UNK        -0.5000 
     62 CA          3.9450  -15.3716  -47.5722 C.3       2 UNK         0.1400 
     63 CB          3.1525  -16.4841  -46.8724 C.3       2 UNK        -0.1800 
     64 N           3.0082  -14.4358  -48.1894 N.am      2 UNK        -0.5000 
     65 C           3.3247  -13.5865  -49.1749 C.2       1 UNK         0.5000 
     66 O           4.4334  -13.5469  -49.7115 O.2       1 UNK        -0.5000 
     67 C          -0.1289  -22.2422  -47.6632 C.2       11 UNK         0.5000 
     68 O           0.0564  -23.2010  -48.4112 O.2       11 UNK        -0.5000 
     69 N          -1.3364  -21.7083  -47.4268 N.am      12 UNK        -0.5000 
     70 CA         -2.5919  -22.1928  -47.9980 C.3       12 UNK         0.1400 
     71 CB         -3.7436  -21.2619  -47.5937 C.3       12 UNK        -0.1800 
     72 C          -2.9059  -23.6404  -47.5931 C.2       12 UNK         0.5000 
     73 O          -3.2924  -24.4317  -48.4529 O.2       12 UNK        -0.5000 
     74 N          -2.7049  -23.9659  -46.3080 N.am      13 UNK        -0.5000 
     75 CA         -2.8606  -25.3111  -45.7555 C.3       13 UNK         0.1400 
     76 CB         -2.7574  -25.2594  -44.2241 C.3       13 UNK        -0.1800 
     77 C          -1.8509  -26.3119  -46.3452 C.2       13 UNK         0.5000 
     78 O          -2.2511  -27.4051  -46.7469 O.2       13 UNK        -0.5000 
     79 N          -0.5757  -25.9063  -46.4396 N.am      14 UNK        -0.5000 
     80 CA          0.5061  -26.6773  -47.0621 C.3       14 UNK         0.1400 
     81 CB          1.8452  -25.9614  -46.8308 C.3       14 UNK        -0.1800 
     82 C           0.2780  -26.9327  -48.5649 C.2       14 UNK         0.5000 
     83 O           0.6353  -27.9996  -49.0645 O.2       14 UNK        -0.5000 
     84 N          -0.3636  -25.9719  -49.2409 N.am      15 UNK        -0.5000 
     85 CA         -0.8145  -26.0486  -50.6302 C.3       15 UNK         0.1400 
     86 CB         -0.8740  -24.6219  -51.1999 C.3       15 UNK        -0.1800 
     87 C          -2.1558  -26.8009  -50.8077 C.2       15 UNK         0.5000 
     88 O          -2.7350  -26.7402  -51.8928 O.2       15 UNK        -0.5000 
     89 N          -2.6158  -27.5071  -49.7627 N.am      16 UNK        -0.5000 
     90 CA         -3.8071  -28.3598  -49.7048 C.3       16 UNK         0.1400 
     91 CB         -3.7096  -29.5290  -50.7084 C.3       16 UNK        -0.1800 
     92 C          -5.1219  -27.5632  -49.8110 C.2       16 UNK         0.5000 
     93 O          -6.0131  -27.9330  -50.5777 O.2       16 UNK        -0.5000 
     94 N          -5.2107  -26.4902  -49.0128 N.am      17 UNK        -0.5000 
     95 CA         -6.3272  -25.5469  -48.8967 C.3       17 UNK         0.1400 
     96 CB         -7.6081  -26.2464  -48.3941 C.3       17 UNK        -0.1800 
     97 C          -6.5285  -24.7413  -50.1937 C.2       17 UNK         0.5000 
     98 O          -7.6335  -24.6933  -50.7388 O.2       17 UNK        -0.5000 
     99 N          -5.4326  -24.1382  -50.6714 N.am      18 UNK        -0.5000 
    100 CA        -5.4012  -23.2890  -51.8622 C.3       18 UNK         0.1400 
    101 CB        -3.9396  -23.0063  -52.2347 C.3       18 UNK        -0.1800 
    102 C         -6.1844  -21.9740  -51.6780 C.2       18 UNK         0.5000 
    103 O         -6.3078  -21.4751  -50.5568 O.2       18 UNK        -0.5000 
    104 N         -6.6749  -21.4321  -52.7958 N.am      19 UNK        -0.5000 
    105 CA        -7.4527  -20.2009  -52.8929 C.3       19 UNK         0.1400 
    106 CB        -8.9167  -20.4824  -52.5021 C.3       19 UNK        -0.1800 
    107 C         -7.3485  -19.6663  -54.3324 C.2       19 UNK         0.5000 
    108 O         -6.8110  -20.3627  -55.1982 O.2       19 UNK        -0.5000 
    109 N         -7.8936  -18.4612  -54.5574 N.am      20 UNK        -0.5000 
    110 CA        -8.0225  -17.7617  -55.8428 C.3       20 UNK         0.1400 
    111 CB        -8.9388  -18.5457  -56.8067 C.3       20 UNK        -0.1800 
    112 C         -6.6575  -17.4128  -56.4697 C.2       20 UNK         0.5000 
    113 O         -6.1967  -18.1006  -57.3827 O.2       20 UNK        -0.5000 
    114 N         -6.0407  -16.3407  -55.9488 N.am      21 UNK        -0.5000 
    115 CA        -4.7323  -15.7940  -56.3425 C.3       21 UNK         0.1400 
    116 CB        -4.7531  -15.2812  -57.7985 C.3       21 UNK        -0.1800 
    117 C         -3.5679  -16.7658  -56.0535 C.2       21 UNK         0.5000 
    118 O         -2.6211  -16.8679  -56.8357 O.2       21 UNK        -0.5000 
    119 N         -3.6771  -17.4649  -54.9198 N.am      22 UNK        -0.5000 
    120 CA        -2.7077  -18.4398  -54.4012 C.3       22 UNK         0.1400 
    121 C         -1.3779  -17.8348  -53.8625 C.2       22 UNK         0.5000 
    122 N         -1.3159  -16.5482  -53.5406 N.am      22 UNK        -0.7600 
    123 O         -0.3807  -18.5435  -53.7630 O.2       22 UNK        -0.5000 
    124 C124       -3.3792  -19.3800  -53.3664 C.3       23 UNK        -0.0398 
    125 S125       -4.2882  -18.4816  -52.0556 S.3       23 UNK        -0.2404 
    126 C126       -3.5908  -19.1839  -50.5322 C.3       23 UNK        -0.0205 
    127 H127        3.3403   -9.7344  -46.3494 H         1 UNK         0.0600 
    128 H128        2.6556   -9.0215  -47.8136 H         1 UNK         0.0600 
    129 H129        1.6067   -9.4124  -46.4476 H         1 UNK         0.0600 
    130 H130        2.6553  -10.5284  -49.4455 H         1 UNK         0.3000 
    131 H131        2.4652  -12.3389  -50.6594 H         1 UNK         0.0600 
    132 H132        0.4379  -13.2655  -48.5712 H         1 UNK         0.0800 
    133 H133        0.1155  -12.3439  -49.9995 H         1 UNK         0.0800 
    134 H134        0.5717  -15.7749  -48.4531 H         1 UNK         0.0800 
    135 H135       -1.0439  -15.2351  -48.8409 H         1 UNK         0.0800 
    136 H136       -2.6083  -16.7530  -49.8184 H         1 UNK         0.1150 
    137 H137       -1.3649  -20.7451  -50.7396 H         1 UNK         0.1150 
    138 H138        1.5571  -17.7654  -49.7559 H         1 UNK         0.1150 
    139 H139        0.8593  -21.4273  -50.4663 H         1 UNK         0.0800 
    140 H140        1.8307  -20.2701  -51.3359 H         1 UNK         0.0800 
    141 H141        0.6814  -19.6201  -47.6669 H         1 UNK         0.0800 
    142 H142        2.1754  -19.7813  -46.8157 H         1 UNK         0.0800 
    143 H143        1.8925  -22.3456  -46.9625 H         1 UNK         0.0600 
    144 H144        0.8213  -20.5318  -45.1062 H         1 UNK         0.3000 
    145 H145       -0.5005  -22.8702  -42.7430 H         1 UNK         0.0600 
    146 H146        0.9952  -21.5051  -41.3081 H         1 UNK         0.0600 
    147 H147        1.9321  -22.6249  -42.2868 H         1 UNK         0.0600 
    148 H148        1.8669  -20.9228  -42.7233 H         1 UNK         0.0600 
    149 H149       -0.4709  -20.0131  -42.8051 H         1 UNK         0.3000 
    150 H150       -3.6473  -19.6034  -44.4325 H         1 UNK         0.0600 
    151 H151       -4.0737  -19.9962  -41.9997 H         1 UNK         0.0600 
    152 H152       -4.0116  -18.2801  -42.3737 H         1 UNK         0.0600 
    153 H153       -2.6414  -19.0602  -41.5879 H         1 UNK         0.0600 
    154 H154       -1.8143  -17.6626  -43.4937 H         1 UNK         0.3000 
    155 H155        0.1849  -17.4225  -46.4731 H         1 UNK         0.0600 
    156 H156       -0.5126  -15.0588  -46.1748 H         1 UNK         0.0600 
    157 H157       -1.8137  -15.5545  -45.0960 H         1 UNK         0.0600 
    158 H158       -1.8591  -16.0193  -46.7837 H         1 UNK         0.0600 
    159 H159        0.4242  -16.0224  -44.0397 H         1 UNK         0.3000 
    160 H160        2.4914  -18.3546  -42.2696 H         1 UNK         0.0600 
    161 H161        3.0417  -15.6427  -43.5906 H         1 UNK         0.0600 
    162 H162        4.0182  -17.0925  -43.7504 H         1 UNK         0.0600 
    163 H163        3.8967  -16.2906  -42.1926 H         1 UNK         0.0600 
    164 H164        1.3663  -15.7465  -41.7119 H         1 UNK         0.3000 
    165 H165       -1.5374  -16.9382  -40.0281 H         1 UNK         0.0600 
    166 H166        1.0215  -15.6130  -38.9754 H         1 UNK         0.0600 
    167 H167       -0.5656  -15.5649  -38.2074 H         1 UNK         0.0600 
    168 H168        0.3000  -17.0872  -38.3410 H         1 UNK         0.0600 
    169 H169       -0.4589  -14.3181  -40.4871 H         1 UNK         0.3000 
    170 H170       -2.0487  -13.7345  -43.6229 H         1 UNK         0.0600 
    171 H171       -3.8602  -13.3864  -41.9351 H         1 UNK         0.0600 
    172 H172       -2.7047  -12.6380  -40.8393 H         1 UNK         0.0600 
    173 H173       -3.0903  -11.8728  -42.3813 H         1 UNK         0.0600 
    174 H174       -0.6147  -11.9318  -42.0423 H         1 UNK         0.3000 
    175 H175        1.4812  -11.2273  -43.2884 H         1 UNK         0.0600 
    176 H176        3.0379  -11.3928  -41.3003 H         1 UNK         0.0600 
    177 H177        1.3888  -11.7148  -40.8073 H         1 UNK         0.0600 
    178 H178        2.5149  -13.0509  -41.0201 H         1 UNK         0.0600 
    179 H179        2.7756  -13.6565  -44.0081 H         1 UNK         0.3000 
    180 H180        5.6607  -12.0976  -45.4123 H         1 UNK         0.0600 
    181 H181        5.4029  -14.4573  -43.4549 H         1 UNK         0.0600 
    182 H182        6.2498  -12.9720  -43.0478 H         1 UNK         0.0600 
    183 H183        6.8406  -13.9676  -44.3524 H         1 UNK         0.0600 
    184 H184        3.4176  -13.3867  -46.0651 H         1 UNK         0.3000 
    185 H185        4.5541  -15.8304  -48.3541 H         1 UNK         0.0600 
    186 H186        2.5555  -17.0548  -47.5832 H         1 UNK         0.0600 
    187 H187        3.8179  -17.1885  -46.3718 H         1 UNK         0.0600 
    188 H188        2.4808  -16.0715  -46.1211 H         1 UNK         0.0600 
    189 H189        2.1030  -14.3424  -47.7540 H         1 UNK         0.3000 
    190 H190       -1.4017  -20.8804  -46.8375 H         1 UNK         0.3000 
    191 H191       -2.4925  -22.1632  -49.0839 H         1 UNK         0.0600 
    192 H192       -3.5278  -20.2282  -47.8594 H         1 UNK         0.0600 
    193 H193       -4.6686  -21.5443  -48.0985 H         1 UNK         0.0600 
    194 H194       -3.9305  -21.2912  -46.5201 H         1 UNK         0.0600 
    195 H195       -2.4265  -23.2370  -45.6583 H         1 UNK         0.3000 
    196 H196       -3.8625  -25.6610  -46.0131 H         1 UNK         0.0600 
    197 H197       -2.8925  -26.2506  -43.7896 H         1 UNK         0.0600 
    198 H198       -3.5243  -24.6107  -43.8004 H         1 UNK         0.0600 
    199 H199       -1.7874  -24.8857  -43.8958 H         1 UNK         0.0600 
    200 H200       -0.3189  -25.0023  -46.0501 H         1 UNK         0.3000 
    201 H201        0.5488  -27.6487  -46.5656 H         1 UNK         0.0600 
    202 H202        2.0527  -25.8484  -45.7666 H         1 UNK         0.0600 
    203 H203        1.8527  -24.9678  -47.2798 H         1 UNK         0.0600 
    204 H204        2.6711  -26.5255  -47.2656 H         1 UNK         0.0600 
    205 H205       -0.5546  -25.0976  -48.7615 H         1 UNK         0.3000 
    206 H206       -0.0693  -26.6017  -51.2050 H         1 UNK         0.0600 
    207 H207        0.0902  -24.1216  -51.1082 H         1 UNK         0.0600 
    208 H208       -1.1317  -24.6276  -52.2592 H         1 UNK         0.0600 
    209 H209       -1.6125  -24.0159  -50.6759 H         1 UNK         0.0600 
    210 H210       -2.0952  -27.4518  -48.8957 H         1 UNK         0.3000 
    211 H211       -3.8076  -28.7987  -48.7060 H         1 UNK         0.0600 
    212 H212       -3.7624  -29.1867  -51.7421 H         1 UNK         0.0600 
    213 H213       -4.5252  -30.2374  -50.5594 H         1 UNK         0.0600 
    214 H214       -2.7768  -30.0787  -50.5835 H         1 UNK         0.0600 
    215 H215       -4.3721  -26.2088  -48.5178 H         1 UNK         0.3000 
    216 H216       -6.0371  -24.8240  -48.1329 H         1 UNK         0.0600 
    217 H217       -7.4228  -26.7884  -47.4668 H         1 UNK         0.0600 
    218 H218       -8.0032  -26.9538  -49.1235 H         1 UNK         0.0600 
    219 H219       -8.3933  -25.5170  -48.1923 H         1 UNK         0.0600 
    220 H220       -4.5732  -24.2256  -50.1423 H         1 UNK         0.3000 
    221 H221       -5.8610  -23.8481  -52.6800 H         1 UNK         0.0600 
    222 H222       -3.8731  -22.3828  -53.1263 H         1 UNK         0.0600 
    223 H223       -3.4142  -23.9345  -52.4558 H         1 UNK         0.0600 
    224 H224       -3.4080  -22.4960  -51.4318 H         1 UNK         0.0600 
    225 H225       -6.4786  -21.8521  -53.6965 H         1 UNK         0.3000 
    226 H226       -7.0355  -19.4527  -52.2174 H         1 UNK         0.0600 
    227 H227       -8.9888  -20.8643  -51.4836 H         1 UNK         0.0600 
    228 H228       -9.5220  -19.5766  -52.5470 H         1 UNK         0.0600 
    229 H229       -9.3733  -21.2170  -53.1665 H         1 UNK         0.0600 
    230 H230       -8.2901  -17.9715  -53.7672 H         1 UNK         0.3000 
    231 H231       -8.5252  -16.8167  -55.6299 H         1 UNK         0.0600 
    232 H232       -9.0957  -17.9881  -57.7307 H         1 UNK         0.0600 
    233 H233       -9.9186  -18.7207  -56.3626 H         1 UNK         0.0600 
    234 H234       -8.5184  -19.5138  -57.0801 H         1 UNK         0.0600 
    235 H235       -6.5013  -15.8514  -55.1937 H         1 UNK         0.3000 
    236 H236       -4.5618  -14.9287  -55.7003 H         1 UNK         0.0600 
    237 H237       -3.8341  -14.7437  -58.0351 H         1 UNK         0.0600 
    238 H238       -4.8464  -16.0958  -58.5171 H         1 UNK         0.0600 
    239 H239       -5.5815  -14.5921  -57.9623 H         1 UNK         0.0600 
    240 H240       -4.4857  -17.3122  -54.3353 H         1 UNK         0.3000 
    241 H241       -2.4139  -19.0648  -55.2468 H         1 UNK         0.0600 
    242 H242       -2.1312  -15.9624  -53.6086 H         1 UNK         0.3800 
    243 H243       -0.4549  -16.1726  -53.1767 H         1 UNK         0.3800 
    244 H244       -4.1013  -20.0144  -53.8815 H         1 UNK         0.0800 
    245 H245       -2.6507  -20.0642  -52.9293 H         1 UNK         0.0800 
    246 H246       -4.1840  -18.8290  -49.6887 H         1 UNK         0.0800 
    247 H247       -3.7034  -20.2679  -50.5472 H         1 UNK         0.0800 
@<TRIPOS>BOND
     1    1    2 1    
     2    1  127 1    
     3    1  128 1    
     4    1  129 1    
     5    2    3 2    
     6    2    4 am   BACKBONE|DICT|INTERRES
     7    4    5 1    
     8    4  130 1    
     9    5    6 1    
    10    5   65 1    
    11    5  131 1    
    12    6    7 1    
    13    6  132 1    
    14    6  133 1    
    15    7    8 1    
    16    8    9 1    
    17    8  134 1    
    18    8  135 1    
    19    9   10 ar   
    20    9   14 ar   
    21   10   11 ar   
    22   10  136 1    
    23   11   12 ar   
    24   11  126 1    
    25   12   13 ar   
    26   12  137 1    
    27   13   14 ar   
    28   13   15 1    
    29   14  138 1    
    30   15   16 1    
    31   15  139 1    
    32   15  140 1    
    33   16   17 1    
    34   17   18 1    
    35   17  141 1    
    36   17  142 1    
    37   18   19 1    
    38   18   67 1    
    39   18  143 1    
    40   19   20 am   BACKBONE|DICT|INTERRES
    41   19  144 1    
    42   20   21 2    
    43   20   22 1    
    44   22   23 1    
    45   22   24 1    
    46   22  145 1    
    47   23  146 1    
    48   23  147 1    
    49   23  148 1    
    50   24   25 am   BACKBONE|DICT|INTERRES
    51   24  149 1    
    52   25   26 2    
    53   25   27 1    
    54   27   28 1    
    55   27   29 1    
    56   27  150 1    
    57   28  151 1    
    58   28  152 1    
    59   28  153 1    
    60   29   30 am   BACKBONE|DICT|INTERRES
    61   29  154 1    
    62   30   31 2    
    63   30   32 1    
    64   32   33 1    
    65   32   34 1    
    66   32  155 1    
    67   33  156 1    
    68   33  157 1    
    69   33  158 1    
    70   34   35 am   BACKBONE|DICT|INTERRES
    71   34  159 1    
    72   35   36 2    
    73   35   37 1    
    74   37   38 1    
    75   37   39 1    
    76   37  160 1    
    77   38  161 1    
    78   38  162 1    
    79   38  163 1    
    80   39   40 am   BACKBONE|DICT|INTERRES
    81   39  164 1    
    82   40   41 2    
    83   40   42 1    
    84   42   43 1    
    85   42   44 1    
    86   42  165 1    
    87   43  166 1    
    88   43  167 1    
    89   43  168 1    
    90   44   45 am   BACKBONE|DICT|INTERRES
    91   44  169 1    
    92   45   46 2    
    93   45   47 1    
    94   47   48 1    
    95   47   49 1    
    96   47  170 1    
    97   48  171 1    
    98   48  172 1    
    99   48  173 1    
   100   49   50 am   BACKBONE|DICT|INTERRES
   101   49  174 1    
   102   50   51 2    
   103   50   52 1    
   104   52   53 1    
   105   52   54 1    
   106   52  175 1    
   107   53  176 1    
   108   53  177 1    
   109   53  178 1    
   110   54   55 am   BACKBONE|DICT|INTERRES
   111   54  179 1    
   112   55   56 2    
   113   55   57 1    
   114   57   58 1    
   115   57   59 1    
   116   57  180 1    
   117   58  181 1    
   118   58  182 1    
   119   58  183 1    
   120   59   60 am   BACKBONE|DICT|INTERRES
   121   59  184 1    
   122   60   61 2    
   123   60   62 1    
   124   62   63 1    
   125   62   64 1    
   126   62  185 1    
   127   63  186 1    
   128   63  187 1    
   129   63  188 1    
   130   64   65 am   BACKBONE|DICT|INTERRES
   131   64  189 1    
   132   65   66 2    
   133   67   68 2    
   134   67   69 am   BACKBONE|DICT|INTERRES
   135   69   70 1    
   136   69  190 1    
   137   70   71 1    
   138   70   72 1    
   139   70  191 1    
   140   71  192 1    
   141   71  193 1    
   142   71  194 1    
   143   72   73 2    
   144   72   74 am   BACKBONE|DICT|INTERRES
   145   74   75 1    
   146   74  195 1    
   147   75   76 1    
   148   75   77 1    
   149   75  196 1    
   150   76  197 1    
   151   76  198 1    
   152   76  199 1    
   153   77   78 2    
   154   77   79 am   BACKBONE|DICT|INTERRES
   155   79   80 1    
   156   79  200 1    
   157   80   81 1    
   158   80   82 1    
   159   80  201 1    
   160   81  202 1    
   161   81  203 1    
   162   81  204 1    
   163   82   83 2    
   164   82   84 am   BACKBONE|DICT|INTERRES
   165   84   85 1    
   166   84  205 1    
   167   85   86 1    
   168   85   87 1    
   169   85  206 1    
   170   86  207 1    
   171   86  208 1    
   172   86  209 1    
   173   87   88 2    
   174   87   89 am   BACKBONE|DICT|INTERRES
   175   89   90 1    
   176   89  210 1    
   177   90   91 1    
   178   90   92 1    
   179   90  211 1    
   180   91  212 1    
   181   91  213 1    
   182   91  214 1    
   183   92   93 2    
   184   92   94 am   BACKBONE|DICT|INTERRES
   185   94   95 1    
   186   94  215 1    
   187   95   96 1    
   188   95   97 1    
   189   95  216 1    
   190   96  217 1    
   191   96  218 1    
   192   96  219 1    
   193   97   98 2    
   194   97   99 am   BACKBONE|DICT|INTERRES
   195   99  100 1    
   196   99  220 1    
   197  100  101 1    
   198  100  102 1    
   199  100  221 1    
   200  101  222 1    
   201  101  223 1    
   202  101  224 1    
   203  102  103 2    
   204  102  104 am   BACKBONE|DICT|INTERRES
   205  104  105 1    
   206  104  225 1    
   207  105  106 1    
   208  105  107 1    
   209  105  226 1    
   210  106  227 1    
   211  106  228 1    
   212  106  229 1    
   213  107  108 2    
   214  107  109 am   BACKBONE|DICT|INTERRES
   215  109  110 1    
   216  109  230 1    
   217  110  111 1    
   218  110  112 1    
   219  110  231 1    
   220  111  232 1    
   221  111  233 1    
   222  111  234 1    
   223  112  113 2    
   224  112  114 am   BACKBONE|DICT|INTERRES
   225  114  115 1    
   226  114  235 1    
   227  115  116 1    
   228  115  117 1    
   229  115  236 1    
   230  116  237 1    
   231  116  238 1    
   232  116  239 1    
   233  117  118 2    
   234  117  119 am   BACKBONE|DICT|INTERRES
   235  119  120 1    
   236  119  240 1    
   237  120  121 1    
   238  120  124 1    
   239  120  241 1    
   240  121  122 am   BACKBONE|DICT|INTERRES
   241  121  123 2    
   242  122  242 1    
   243  122  243 1    
   244  124  125 1    
   245  124  244 1    
   246  124  245 1    
   247  125  126 1    
   248  126  246 1    
   249  126  247 1    
@<TRIPOS>SUBSTRUCTURE
     1 UNK         1 GROUP             0       ****    0 ROOT    
