@<TRIPOS>MOLECULE
3R540
247   249    1
SMALL
USER_CHARGES


@<TRIPOS>ATOM
      1 CA         -3.8508   -9.3906  -47.5005 C.3       0 UNK        -0.1800 
      2 C          -2.6279  -10.2908  -47.4164 C.2       0 UNK         0.5000 
      3 O          -1.5459   -9.8242  -47.0620 O.2       0 UNK        -0.5000 
      4 N          -2.7917  -11.5852  -47.7183 N.am      1 UNK        -0.5000 
      5 CA         -1.7253  -12.5949  -47.6969 C.3       1 UNK         0.1400 
      6 C6         -2.1495  -13.9247  -48.3649 C.3       23 UNK        -0.0398 
      7 S7         -3.7081  -14.6315  -47.7276 S.3       23 UNK        -0.2404 
      8 C8         -4.0186  -15.9326  -48.9631 C.3       23 UNK        -0.0205 
      9 C9         -3.0387  -17.0895  -48.8331 C.ar      23 UNK        -0.0193 
     10 C10        -1.8704  -17.1181  -49.6000 C.ar      23 UNK        -0.1150 
     11 C11        -0.9756  -18.1864  -49.4924 C.ar      23 UNK        -0.0193 
     12 C12        -1.2599  -19.2363  -48.6148 C.ar      23 UNK        -0.1150 
     13 C13        -2.4339  -19.2273  -47.8575 C.ar      23 UNK        -0.0193 
     14 C14        -3.3142  -18.1468  -47.9623 C.ar      23 UNK        -0.1150 
     15 C15        -2.7714  -20.4014  -46.9565 C.3       23 UNK        -0.0205 
     16 S16        -1.8447  -20.3322  -45.3965 S.3       23 UNK        -0.2404 
     17 C17        -2.6462  -21.6940  -44.4877 C.3       23 UNK        -0.0398 
     18 CA         -1.9862  -23.0641  -44.7692 C.3       11 UNK         0.1400 
     19 N          -0.5903  -23.1181  -44.3153 N.am      11 UNK        -0.5000 
     20 C           0.2674  -24.1174  -44.5752 C.2       10 UNK         0.5000 
     21 O          -0.0291  -25.0925  -45.2649 O.2       10 UNK        -0.5000 
     22 CA          1.6625  -24.0675  -43.9186 C.3       10 UNK         0.1400 
     23 CB          2.7054  -23.5681  -44.9292 C.3       10 UNK        -0.1800 
     24 N           1.7323  -23.2352  -42.7163 N.am      10 UNK        -0.5000 
     25 C           1.0019  -23.3890  -41.6013 C.2       9 UNK         0.5000 
     26 O           0.2230  -24.3254  -41.4202 O.2       9 UNK        -0.5000 
     27 CA          1.1102  -22.2686  -40.5432 C.3       9 UNK         0.1400 
     28 CB          2.0759  -22.6813  -39.4220 C.3       9 UNK        -0.1800 
     29 N           1.5314  -20.9680  -41.0859 N.am      9 UNK        -0.5000 
     30 C           0.8913  -20.2911  -42.0509 C.2       8 UNK         0.5000 
     31 O          -0.1534  -20.6895  -42.5706 O.2       8 UNK        -0.5000 
     32 CA          1.5508  -18.9968  -42.5561 C.3       8 UNK         0.1400 
     33 CB          3.0359  -19.2154  -42.9202 C.3       8 UNK        -0.1800 
     34 N           0.8188  -18.5241  -43.7291 N.am      8 UNK        -0.5000 
     35 C           0.8913  -17.2987  -44.2536 C.2       7 UNK         0.5000 
     36 O           1.5455  -16.3779  -43.7559 O.2       7 UNK        -0.5000 
     37 CA          0.0863  -17.0568  -45.5429 C.3       7 UNK         0.1400 
     38 CB         -1.3207  -16.5368  -45.2182 C.3       7 UNK        -0.1800 
     39 N           0.7775  -16.0827  -46.3825 N.am      7 UNK        -0.5000 
     40 C           1.8238  -16.3732  -47.1686 C.2       6 UNK         0.5000 
     41 O           2.2139  -17.5172  -47.4024 O.2       6 UNK        -0.5000 
     42 CA          2.5926  -15.1757  -47.7530 C.3       6 UNK         0.1400 
     43 CB          1.9182  -14.6519  -49.0305 C.3       6 UNK        -0.1800 
     44 N           2.6777  -14.0958  -46.7736 N.am      6 UNK        -0.5000 
     45 C           3.5601  -14.0407  -45.7681 C.2       5 UNK         0.5000 
     46 O           4.5060  -14.8215  -45.6475 O.2       5 UNK        -0.5000 
     47 CA          3.3250  -12.9324  -44.7187 C.3       5 UNK         0.1400 
     48 CB          4.5963  -12.5623  -43.9273 C.3       5 UNK        -0.1800 
     49 N           2.6814  -11.7388  -45.2788 N.am      5 UNK        -0.5000 
     50 C           3.1687  -10.8980  -46.2042 C.2       4 UNK         0.5000 
     51 O           4.2962  -10.9875  -46.6903 O.2       4 UNK        -0.5000 
     52 CA          2.2284   -9.7765  -46.6941 C.3       4 UNK         0.1400 
     53 CB          1.7248  -10.0922  -48.1110 C.3       4 UNK        -0.1800 
     54 N           1.0697   -9.5644  -45.8242 N.am      4 UNK        -0.5000 
     55 C           1.1090   -8.9941  -44.6122 C.2       3 UNK         0.5000 
     56 O           2.1257   -8.5114  -44.1133 O.2       3 UNK        -0.5000 
     57 CA         -0.2030   -9.0100  -43.8083 C.3       3 UNK         0.1400 
     58 CB         -1.0946   -7.8169  -44.1855 C.3       3 UNK        -0.1800 
     59 N          -0.9452  -10.2583  -44.0007 N.am      3 UNK        -0.5000 
     60 C          -0.5965  -11.4380  -43.4668 C.2       2 UNK         0.5000 
     61 O           0.3761  -11.5920  -42.7289 O.2       2 UNK        -0.5000 
     62 CA         -1.4560  -12.6572  -43.8469 C.3       2 UNK         0.1400 
     63 CB         -2.6734  -12.7788  -42.9196 C.3       2 UNK        -0.1800 
     64 N          -1.9096  -12.6073  -45.2370 N.am      2 UNK        -0.5000 
     65 C          -1.1192  -12.8259  -46.2962 C.2       1 UNK         0.5000 
     66 O           0.0596  -13.1692  -46.2038 O.2       1 UNK        -0.5000 
     67 C          -2.8617  -24.2080  -44.2075 C.2       11 UNK         0.5000 
     68 O          -3.9077  -24.4964  -44.7887 O.2       11 UNK        -0.5000 
     69 N          -2.4259  -24.8564  -43.1161 N.am      12 UNK        -0.5000 
     70 CA         -3.0550  -26.0629  -42.5771 C.3       12 UNK         0.1400 
     71 CB         -2.5678  -26.2808  -41.1362 C.3       12 UNK        -0.1800 
     72 C          -2.7805  -27.3180  -43.4328 C.2       12 UNK         0.5000 
     73 O          -3.5689  -28.2627  -43.3768 O.2       12 UNK        -0.5000 
     74 N          -1.6747  -27.3160  -44.1914 N.am      13 UNK        -0.5000 
     75 CA         -1.2483  -28.4186  -45.0530 C.3       13 UNK         0.1400 
     76 CB          0.2629  -28.6360  -44.8729 C.3       13 UNK        -0.1800 
     77 C          -1.5788  -28.1530  -46.5318 C.2       13 UNK         0.5000 
     78 O          -1.9386  -29.0909  -47.2452 O.2       13 UNK        -0.5000 
     79 N          -1.4370  -26.8949  -46.9726 N.am      14 UNK        -0.5000 
     80 CA         -1.6898  -26.4503  -48.3435 C.3       14 UNK         0.1400 
     81 CB         -1.2145  -24.9964  -48.4970 C.3       14 UNK        -0.1800 
     82 C          -3.1711  -26.5694  -48.7488 C.2       14 UNK         0.5000 
     83 O          -4.0614  -26.3494  -47.9240 O.2       14 UNK        -0.5000 
     84 N          -3.3998  -26.8854  -50.0280 N.am      15 UNK        -0.5000 
     85 CA         -4.7201  -26.9058  -50.6543 C.3       15 UNK         0.1400 
     86 CB         -4.6285  -27.7202  -51.9555 C.3       15 UNK        -0.1800 
     87 C          -5.2160  -25.4811  -50.9589 C.2       15 UNK         0.5000 
     88 O          -4.4050  -24.5621  -51.1008 O.2       15 UNK        -0.5000 
     89 N          -6.5354  -25.3330  -51.1355 N.am      16 UNK        -0.5000 
     90 CA         -7.1797  -24.0760  -51.5325 C.3       16 UNK         0.1400 
     91 CB         -8.7051  -24.2529  -51.5064 C.3       16 UNK        -0.1800 
     92 C          -6.7155  -23.5701  -52.9129 C.2       16 UNK         0.5000 
     93 O          -6.5621  -22.3640  -53.1005 O.2       16 UNK        -0.5000 
     94 N          -6.4504  -24.5061  -53.8357 N.am      17 UNK        -0.5000 
     95 CA         -5.8944  -24.2320  -55.1615 C.3       17 UNK         0.1400 
     96 CB         -5.9831  -25.5037  -56.0185 C.3       17 UNK        -0.1800 
     97 C          -4.4434  -23.7170  -55.1073 C.2       17 UNK         0.5000 
     98 O          -4.0707  -22.8762  -55.9248 O.2       17 UNK        -0.5000 
     99 N          -3.6608  -24.2082  -54.1350 N.am      18 UNK        -0.5000 
    100 CA        -2.2957  -23.7535  -53.8729 C.3       18 UNK         0.1400 
    101 CB        -1.5496  -24.7857  -53.0122 C.3       18 UNK        -0.1800 
    102 C         -2.2935  -22.3658  -53.2130 C.2       18 UNK         0.5000 
    103 O         -1.5587  -21.4879  -53.6628 O.2       18 UNK        -0.5000 
    104 N         -3.1649  -22.1767  -52.2104 N.am      19 UNK        -0.5000 
    105 CA        -3.3876  -20.9080  -51.5096 C.3       19 UNK         0.1400 
    106 CB        -4.3944  -21.1295  -50.3710 C.3       19 UNK        -0.1800 
    107 C         -3.8545  -19.7668  -52.4369 C.2       19 UNK         0.5000 
    108 O         -3.4969  -18.6118  -52.2144 O.2       19 UNK        -0.5000 
    109 N         -4.6290  -20.1116  -53.4737 N.am      20 UNK        -0.5000 
    110 CA        -5.0606  -19.1923  -54.5250 C.3       20 UNK         0.1400 
    111 CB        -6.2616  -19.8079  -55.2598 C.3       20 UNK        -0.1800 
    112 C         -3.9435  -18.8379  -55.5284 C.2       20 UNK         0.5000 
    113 O         -4.0305  -17.7887  -56.1683 O.2       20 UNK        -0.5000 
    114 N         -2.9406  -19.7144  -55.6803 N.am      21 UNK        -0.5000 
    115 CA        -1.8426  -19.5505  -56.6323 C.3       21 UNK         0.1400 
    116 CB        -1.3056  -20.9291  -57.0495 C.3       21 UNK        -0.1800 
    117 C         -0.7136  -18.6651  -56.0788 C.2       21 UNK         0.5000 
    118 O         -0.2027  -17.8170  -56.8128 O.2       21 UNK        -0.5000 
    119 N         -0.3337  -18.8765  -54.8117 N.am      22 UNK        -0.5000 
    120 CA         0.6778  -18.0709  -54.1064 C.3       22 UNK         0.1400 
    121 C          0.1879  -16.6448  -53.7141 C.2       22 UNK         0.5000 
    122 N          1.1009  -15.7530  -53.3493 N.am      22 UNK        -0.7600 
    123 O         -1.0001  -16.3314  -53.7247 O.2       22 UNK        -0.5000 
    124 C124        1.3117  -18.8377  -52.9137 C.3       23 UNK        -0.0398 
    125 S125        0.1067  -19.4361  -51.6848 S.3       23 UNK        -0.2404 
    126 C126        0.2804  -18.2200  -50.3469 C.3       23 UNK        -0.0205 
    127 H127       -4.0373   -8.9209  -46.5351 H         1 UNK         0.0600 
    128 H128       -4.7433   -9.9459  -47.7882 H         1 UNK         0.0600 
    129 H129       -3.6859   -8.6043  -48.2364 H         1 UNK         0.0600 
    130 H130       -3.7047  -11.9251  -47.9866 H         1 UNK         0.3000 
    131 H131       -0.9122  -12.1918  -48.3033 H         1 UNK         0.0600 
    132 H132       -2.2671  -13.7594  -49.4366 H         1 UNK         0.0800 
    133 H133       -1.3619  -14.6731  -48.2657 H         1 UNK         0.0800 
    134 H134       -5.0374  -16.3012  -48.8354 H         1 UNK         0.0800 
    135 H135       -3.9762  -15.5085  -49.9676 H         1 UNK         0.0800 
    136 H136       -1.6640  -16.3142  -50.2924 H         1 UNK         0.1150 
    137 H137       -0.5776  -20.0714  -48.5394 H         1 UNK         0.1150 
    138 H138       -4.2217  -18.1329  -47.3753 H         1 UNK         0.1150 
    139 H139       -3.8422  -20.4153  -46.7479 H         1 UNK         0.0800 
    140 H140       -2.5454  -21.3354  -47.4730 H         1 UNK         0.0800 
    141 H141       -3.7060  -21.7063  -44.7492 H         1 UNK         0.0800 
    142 H142       -2.6064  -21.4659  -43.4213 H         1 UNK         0.0800 
    143 H143       -1.9704  -23.2051  -45.8506 H         1 UNK         0.0600 
    144 H144       -0.2897  -22.3441  -43.7315 H         1 UNK         0.3000 
    145 H145        1.9212  -25.0881  -43.6297 H         1 UNK         0.0600 
    146 H146        3.7123  -23.6129  -44.5133 H         1 UNK         0.0600 
    147 H147        2.7008  -24.1815  -45.8315 H         1 UNK         0.0600 
    148 H148        2.5108  -22.5381  -45.2316 H         1 UNK         0.0600 
    149 H149        2.3418  -22.4331  -42.7660 H         1 UNK         0.3000 
    150 H150        0.1164  -22.1383  -40.1096 H         1 UNK         0.0600 
    151 H151        3.0955  -22.7985  -39.7920 H         1 UNK         0.0600 
    152 H152        1.7763  -23.6318  -38.9780 H         1 UNK         0.0600 
    153 H153        2.0909  -21.9417  -38.6211 H         1 UNK         0.0600 
    154 H154        2.3839  -20.5830  -40.7054 H         1 UNK         0.3000 
    155 H155        1.4718  -18.2521  -41.7619 H         1 UNK         0.0600 
    156 H156        3.1508  -19.9844  -43.6851 H         1 UNK         0.0600 
    157 H157        3.6232  -19.5192  -42.0534 H         1 UNK         0.0600 
    158 H158        3.4926  -18.3016  -43.3006 H         1 UNK         0.0600 
    159 H159        0.1865  -19.2114  -44.1245 H         1 UNK         0.3000 
    160 H160       -0.0076  -17.9962  -46.0917 H         1 UNK         0.0600 
    161 H161       -1.2896  -15.6086  -44.6501 H         1 UNK         0.0600 
    162 H162       -1.8797  -17.2646  -44.6293 H         1 UNK         0.0600 
    163 H163       -1.8882  -16.3547  -46.1291 H         1 UNK         0.0600 
    164 H164        0.5688  -15.1076  -46.2023 H         1 UNK         0.3000 
    165 H165        3.5998  -15.5094  -48.0113 H         1 UNK         0.0600 
    166 H166        1.8461  -15.4370  -49.7836 H         1 UNK         0.0600 
    167 H167        0.9108  -14.2857  -48.8365 H         1 UNK         0.0600 
    168 H168        2.4905  -13.8338  -49.4680 H         1 UNK         0.0600 
    169 H169        1.8904  -13.4564  -46.7378 H         1 UNK         0.3000 
    170 H170        2.6092  -13.3480  -44.0080 H         1 UNK         0.0600 
    171 H171        4.9789  -13.4240  -43.3795 H         1 UNK         0.0600 
    172 H172        5.3950  -12.2116  -44.5808 H         1 UNK         0.0600 
    173 H173        4.3907  -11.7798  -43.1968 H         1 UNK         0.0600 
    174 H174        1.7338  -11.5781  -44.9681 H         1 UNK         0.3000 
    175 H175        2.8064   -8.8510  -46.7311 H         1 UNK         0.0600 
    176 H176        1.0735   -9.3021  -48.4852 H         1 UNK         0.0600 
    177 H177        2.5562  -10.1872  -48.8104 H         1 UNK         0.0600 
    178 H178        1.1670  -11.0282  -48.1373 H         1 UNK         0.0600 
    179 H179        0.1672   -9.8560  -46.1898 H         1 UNK         0.3000 
    180 H180        0.0520   -8.9192  -42.7503 H         1 UNK         0.0600 
    181 H181       -1.3879   -7.8438  -45.2351 H         1 UNK         0.0600 
    182 H182       -0.5739   -6.8737  -44.0157 H         1 UNK         0.0600 
    183 H183       -2.0033   -7.7985  -43.5839 H         1 UNK         0.0600 
    184 H184       -1.7246  -10.2251  -44.6412 H         1 UNK         0.3000 
    185 H185       -0.8363  -13.5457  -43.7117 H         1 UNK         0.0600 
    186 H186       -2.3641  -12.8361  -41.8752 H         1 UNK         0.0600 
    187 H187       -3.3435  -11.9239  -43.0177 H         1 UNK         0.0600 
    188 H188       -3.2448  -13.6812  -43.1384 H         1 UNK         0.0600 
    189 H189       -2.8714  -12.3476  -45.4001 H         1 UNK         0.3000 
    190 H190       -1.5625  -24.5607  -42.6745 H         1 UNK         0.3000 
    191 H191       -4.1361  -25.9091  -42.5495 H         1 UNK         0.0600 
    192 H192       -2.7804  -25.4133  -40.5110 H         1 UNK         0.0600 
    193 H193       -3.0646  -27.1390  -40.6817 H         1 UNK         0.0600 
    194 H194       -1.4935  -26.4666  -41.0987 H         1 UNK         0.0600 
    195 H195       -1.1054  -26.4792  -44.2244 H         1 UNK         0.3000 
    196 H196       -1.7532  -29.3419  -44.7615 H         1 UNK         0.0600 
    197 H197        0.6149  -29.4625  -45.4919 H         1 UNK         0.0600 
    198 H198        0.5042  -28.8792  -43.8379 H         1 UNK         0.0600 
    199 H199        0.8360  -27.7506  -45.1507 H         1 UNK         0.0600 
    200 H200       -1.0859  -26.1913  -46.3296 H         1 UNK         0.3000 
    201 H201       -1.0929  -27.0794  -49.0072 H         1 UNK         0.0600 
    202 H202       -1.3169  -24.6580  -49.5289 H         1 UNK         0.0600 
    203 H203       -1.7978  -24.3182  -47.8747 H         1 UNK         0.0600 
    204 H204       -0.1653  -24.8890  -48.2206 H         1 UNK         0.0600 
    205 H205       -2.6131  -27.0174  -50.6458 H         1 UNK         0.3000 
    206 H206       -5.4291  -27.3907  -49.9795 H         1 UNK         0.0600 
    207 H207       -4.2898  -28.7379  -51.7593 H         1 UNK         0.0600 
    208 H208       -5.6005  -27.7947  -52.4448 H         1 UNK         0.0600 
    209 H209       -3.9357  -27.2690  -52.6678 H         1 UNK         0.0600 
    210 H210       -7.1419  -26.1311  -51.0115 H         1 UNK         0.3000 
    211 H211       -6.9125  -23.3169  -50.7948 H         1 UNK         0.0600 
    212 H212       -9.0343  -25.0240  -52.2040 H         1 UNK         0.0600 
    213 H213       -9.2098  -23.3252  -51.7801 H         1 UNK         0.0600 
    214 H214       -9.0533  -24.5290  -50.5108 H         1 UNK         0.0600 
    215 H215       -6.6134  -25.4735  -53.5999 H         1 UNK         0.3000 
    216 H216       -6.5040  -23.4578  -55.6325 H         1 UNK         0.0600 
    217 H217       -5.5936  -25.3256  -57.0219 H         1 UNK         0.0600 
    218 H218       -7.0160  -25.8354  -56.1263 H         1 UNK         0.0600 
    219 H219       -5.4097  -26.3240  -55.5844 H         1 UNK         0.0600 
    220 H220       -4.0616  -24.8483  -53.4660 H         1 UNK         0.3000 
    221 H221       -1.7700  -23.6725  -54.8271 H         1 UNK         0.0600 
    222 H222       -2.0007  -24.9027  -52.0276 H         1 UNK         0.0600 
    223 H223       -1.5353  -25.7636  -53.4934 H         1 UNK         0.0600 
    224 H224       -0.5129  -24.4832  -52.8596 H         1 UNK         0.0600 
    225 H225       -3.7083  -22.9728  -51.8868 H         1 UNK         0.3000 
    226 H226       -2.4401  -20.6075  -51.0626 H         1 UNK         0.0600 
    227 H227       -4.5459  -20.2113  -49.8027 H         1 UNK         0.0600 
    228 H228       -5.3663  -21.4428  -50.7509 H         1 UNK         0.0600 
    229 H229       -4.0430  -21.8913  -49.6747 H         1 UNK         0.0600 
    230 H230       -4.9607  -21.0672  -53.5364 H         1 UNK         0.3000 
    231 H231       -5.3905  -18.2622  -54.0574 H         1 UNK         0.0600 
    232 H232       -6.0005  -20.7564  -55.7306 H         1 UNK         0.0600 
    233 H233       -6.6269  -19.1413  -56.0421 H         1 UNK         0.0600 
    234 H234       -7.0907  -19.9907  -54.5759 H         1 UNK         0.0600 
    235 H235       -2.9097  -20.5353  -55.0894 H         1 UNK         0.3000 
    236 H236       -2.2297  -19.0685  -57.5329 H         1 UNK         0.0600 
    237 H237       -0.5235  -20.8289  -57.8031 H         1 UNK         0.0600 
    238 H238       -0.8784  -21.4737  -56.2078 H         1 UNK         0.0600 
    239 H239       -2.0950  -21.5453  -57.4804 H         1 UNK         0.0600 
    240 H240       -0.8050  -19.5882  -54.2632 H         1 UNK         0.3000 
    241 H241        1.4869  -17.9061  -54.8208 H         1 UNK         0.0600 
    242 H242        2.0862  -15.9655  -53.3515 H         1 UNK         0.3800 
    243 H243        0.7978  -14.8255  -53.0975 H         1 UNK         0.3800 
    244 H244        2.0775  -18.2383  -52.4190 H         1 UNK         0.0800 
    245 H245        1.8372  -19.7129  -53.2974 H         1 UNK         0.0800 
    246 H246        1.1443  -18.4757  -49.7326 H         1 UNK         0.0800 
    247 H247        0.4743  -17.2328  -50.7668 H         1 UNK         0.0800 
@<TRIPOS>BOND
     1    1    2 1    
     2    1  127 1    
     3    1  128 1    
     4    1  129 1    
     5    2    3 2    
     6    2    4 am   BACKBONE|DICT|INTERRES
     7    4    5 1    
     8    4  130 1    
     9    5    6 1    
    10    5   65 1    
    11    5  131 1    
    12    6    7 1    
    13    6  132 1    
    14    6  133 1    
    15    7    8 1    
    16    8    9 1    
    17    8  134 1    
    18    8  135 1    
    19    9   10 ar   
    20    9   14 ar   
    21   10   11 ar   
    22   10  136 1    
    23   11   12 ar   
    24   11  126 1    
    25   12   13 ar   
    26   12  137 1    
    27   13   14 ar   
    28   13   15 1    
    29   14  138 1    
    30   15   16 1    
    31   15  139 1    
    32   15  140 1    
    33   16   17 1    
    34   17   18 1    
    35   17  141 1    
    36   17  142 1    
    37   18   19 1    
    38   18   67 1    
    39   18  143 1    
    40   19   20 am   BACKBONE|DICT|INTERRES
    41   19  144 1    
    42   20   21 2    
    43   20   22 1    
    44   22   23 1    
    45   22   24 1    
    46   22  145 1    
    47   23  146 1    
    48   23  147 1    
    49   23  148 1    
    50   24   25 am   BACKBONE|DICT|INTERRES
    51   24  149 1    
    52   25   26 2    
    53   25   27 1    
    54   27   28 1    
    55   27   29 1    
    56   27  150 1    
    57   28  151 1    
    58   28  152 1    
    59   28  153 1    
    60   29   30 am   BACKBONE|DICT|INTERRES
    61   29  154 1    
    62   30   31 2    
    63   30   32 1    
    64   32   33 1    
    65   32   34 1    
    66   32  155 1    
    67   33  156 1    
    68   33  157 1    
    69   33  158 1    
    70   34   35 am   BACKBONE|DICT|INTERRES
    71   34  159 1    
    72   35   36 2    
    73   35   37 1    
    74   37   38 1    
    75   37   39 1    
    76   37  160 1    
    77   38  161 1    
    78   38  162 1    
    79   38  163 1    
    80   39   40 am   BACKBONE|DICT|INTERRES
    81   39  164 1    
    82   40   41 2    
    83   40   42 1    
    84   42   43 1    
    85   42   44 1    
    86   42  165 1    
    87   43  166 1    
    88   43  167 1    
    89   43  168 1    
    90   44   45 am   BACKBONE|DICT|INTERRES
    91   44  169 1    
    92   45   46 2    
    93   45   47 1    
    94   47   48 1    
    95   47   49 1    
    96   47  170 1    
    97   48  171 1    
    98   48  172 1    
    99   48  173 1    
   100   49   50 am   BACKBONE|DICT|INTERRES
   101   49  174 1    
   102   50   51 2    
   103   50   52 1    
   104   52   53 1    
   105   52   54 1    
   106   52  175 1    
   107   53  176 1    
   108   53  177 1    
   109   53  178 1    
   110   54   55 am   BACKBONE|DICT|INTERRES
   111   54  179 1    
   112   55   56 2    
   113   55   57 1    
   114   57   58 1    
   115   57   59 1    
   116   57  180 1    
   117   58  181 1    
   118   58  182 1    
   119   58  183 1    
   120   59   60 am   BACKBONE|DICT|INTERRES
   121   59  184 1    
   122   60   61 2    
   123   60   62 1    
   124   62   63 1    
   125   62   64 1    
   126   62  185 1    
   127   63  186 1    
   128   63  187 1    
   129   63  188 1    
   130   64   65 am   BACKBONE|DICT|INTERRES
   131   64  189 1    
   132   65   66 2    
   133   67   68 2    
   134   67   69 am   BACKBONE|DICT|INTERRES
   135   69   70 1    
   136   69  190 1    
   137   70   71 1    
   138   70   72 1    
   139   70  191 1    
   140   71  192 1    
   141   71  193 1    
   142   71  194 1    
   143   72   73 2    
   144   72   74 am   BACKBONE|DICT|INTERRES
   145   74   75 1    
   146   74  195 1    
   147   75   76 1    
   148   75   77 1    
   149   75  196 1    
   150   76  197 1    
   151   76  198 1    
   152   76  199 1    
   153   77   78 2    
   154   77   79 am   BACKBONE|DICT|INTERRES
   155   79   80 1    
   156   79  200 1    
   157   80   81 1    
   158   80   82 1    
   159   80  201 1    
   160   81  202 1    
   161   81  203 1    
   162   81  204 1    
   163   82   83 2    
   164   82   84 am   BACKBONE|DICT|INTERRES
   165   84   85 1    
   166   84  205 1    
   167   85   86 1    
   168   85   87 1    
   169   85  206 1    
   170   86  207 1    
   171   86  208 1    
   172   86  209 1    
   173   87   88 2    
   174   87   89 am   BACKBONE|DICT|INTERRES
   175   89   90 1    
   176   89  210 1    
   177   90   91 1    
   178   90   92 1    
   179   90  211 1    
   180   91  212 1    
   181   91  213 1    
   182   91  214 1    
   183   92   93 2    
   184   92   94 am   BACKBONE|DICT|INTERRES
   185   94   95 1    
   186   94  215 1    
   187   95   96 1    
   188   95   97 1    
   189   95  216 1    
   190   96  217 1    
   191   96  218 1    
   192   96  219 1    
   193   97   98 2    
   194   97   99 am   BACKBONE|DICT|INTERRES
   195   99  100 1    
   196   99  220 1    
   197  100  101 1    
   198  100  102 1    
   199  100  221 1    
   200  101  222 1    
   201  101  223 1    
   202  101  224 1    
   203  102  103 2    
   204  102  104 am   BACKBONE|DICT|INTERRES
   205  104  105 1    
   206  104  225 1    
   207  105  106 1    
   208  105  107 1    
   209  105  226 1    
   210  106  227 1    
   211  106  228 1    
   212  106  229 1    
   213  107  108 2    
   214  107  109 am   BACKBONE|DICT|INTERRES
   215  109  110 1    
   216  109  230 1    
   217  110  111 1    
   218  110  112 1    
   219  110  231 1    
   220  111  232 1    
   221  111  233 1    
   222  111  234 1    
   223  112  113 2    
   224  112  114 am   BACKBONE|DICT|INTERRES
   225  114  115 1    
   226  114  235 1    
   227  115  116 1    
   228  115  117 1    
   229  115  236 1    
   230  116  237 1    
   231  116  238 1    
   232  116  239 1    
   233  117  118 2    
   234  117  119 am   BACKBONE|DICT|INTERRES
   235  119  120 1    
   236  119  240 1    
   237  120  121 1    
   238  120  124 1    
   239  120  241 1    
   240  121  122 am   BACKBONE|DICT|INTERRES
   241  121  123 2    
   242  122  242 1    
   243  122  243 1    
   244  124  125 1    
   245  124  244 1    
   246  124  245 1    
   247  125  126 1    
   248  126  246 1    
   249  126  247 1    
@<TRIPOS>SUBSTRUCTURE
     1 UNK         1 GROUP             0       ****    0 ROOT    
