@<TRIPOS>MOLECULE
3R540
247   249    1
SMALL
USER_CHARGES


@<TRIPOS>ATOM
      1 CA         -3.9426  -13.9101  -47.8951 C.3       0 UNK        -0.1800 
      2 C          -2.4251  -13.7944  -47.9049 C.2       0 UNK         0.5000 
      3 O          -1.8860  -12.7447  -47.5540 O.2       0 UNK        -0.5000 
      4 N          -1.7365  -14.8737  -48.2977 N.am      1 UNK        -0.5000 
      5 CA         -0.2766  -14.9535  -48.4578 C.3       1 UNK         0.1400 
      6 C6          0.1771  -16.2622  -49.1530 C.3       23 UNK        -0.0398 
      7 S7         -0.7426  -16.6657  -50.6766 S.3       23 UNK        -0.2404 
      8 C8         -1.4716  -18.2722  -50.2319 C.3       23 UNK        -0.0205 
      9 C9         -2.7995  -18.1331  -49.5025 C.ar      23 UNK        -0.0193 
     10 C10        -3.9904  -18.3233  -50.2021 C.ar      23 UNK        -0.1150 
     11 C11        -5.2221  -18.2782  -49.5506 C.ar      23 UNK        -0.0193 
     12 C12        -5.2620  -17.9765  -48.1861 C.ar      23 UNK        -0.1150 
     13 C13        -4.0806  -17.7459  -47.4727 C.ar      23 UNK        -0.0193 
     14 C14        -2.8504  -17.8497  -48.1349 C.ar      23 UNK        -0.1150 
     15 C15        -4.1539  -17.3354  -46.0050 C.3       23 UNK        -0.0205 
     16 S16        -2.9234  -18.1583  -44.9455 S.3       23 UNK        -0.2404 
     17 C17        -3.6145  -19.8399  -44.7956 C.3       23 UNK        -0.0398 
     18 CA         -3.0283  -20.8528  -45.8120 C.3       11 UNK         0.1400 
     19 N          -1.5707  -20.7806  -45.9230 N.am      11 UNK        -0.5000 
     20 C          -0.8459  -21.2909  -46.9262 C.2       10 UNK         0.5000 
     21 O          -1.3315  -21.8619  -47.9045 O.2       10 UNK        -0.5000 
     22 CA          0.6842  -21.1695  -46.7865 C.3       10 UNK         0.1400 
     23 CB          1.1748  -19.8246  -47.3421 C.3       10 UNK        -0.1800 
     24 N           1.1306  -21.3010  -45.3977 N.am      10 UNK        -0.5000 
     25 C           1.0586  -22.4372  -44.6874 C.2       9 UNK         0.5000 
     26 O           0.6497  -23.5019  -45.1483 O.2       9 UNK        -0.5000 
     27 CA          1.4545  -22.3612  -43.1990 C.3       9 UNK         0.1400 
     28 CB          2.9575  -22.6247  -43.0284 C.3       9 UNK        -0.1800 
     29 N           1.1169  -21.0805  -42.5749 N.am      9 UNK        -0.5000 
     30 C          -0.1135  -20.5533  -42.5068 C.2       8 UNK         0.5000 
     31 O          -1.1218  -21.1434  -42.8944 O.2       8 UNK        -0.5000 
     32 CA         -0.2477  -19.1189  -41.9594 C.3       8 UNK         0.1400 
     33 CB         -0.9209  -19.1282  -40.5796 C.3       8 UNK        -0.1800 
     34 N           1.0091  -18.3700  -41.8658 N.am      8 UNK        -0.5000 
     35 C           1.8089  -18.0144  -42.8792 C.2       7 UNK         0.5000 
     36 O           1.6099  -18.3477  -44.0493 O.2       7 UNK        -0.5000 
     37 CA          3.0205  -17.1320  -42.5025 C.3       7 UNK         0.1400 
     38 CB          3.9384  -16.8263  -43.6999 C.3       7 UNK        -0.1800 
     39 N           2.6136  -15.8682  -41.8810 N.am      7 UNK        -0.5000 
     40 C           2.1753  -15.7161  -40.6227 C.2       6 UNK         0.5000 
     41 O           2.0630  -16.6523  -39.8282 O.2       6 UNK        -0.5000 
     42 CA          1.7903  -14.2825  -40.2001 C.3       6 UNK         0.1400 
     43 CB          1.5993  -14.1254  -38.6774 C.3       6 UNK        -0.1800 
     44 N           2.7188  -13.2766  -40.7212 N.am      6 UNK        -0.5000 
     45 C           4.0313  -13.1629  -40.4638 C.2       5 UNK         0.5000 
     46 O           4.6472  -13.8861  -39.6800 O.2       5 UNK        -0.5000 
     47 CA          4.7963  -12.0605  -41.2233 C.3       5 UNK         0.1400 
     48 CB          5.5698  -12.6699  -42.4034 C.3       5 UNK        -0.1800 
     49 N           3.9282  -10.9979  -41.7329 N.am      5 UNK        -0.5000 
     50 C           3.3116  -10.0732  -40.9824 C.2       4 UNK         0.5000 
     51 O           3.4640   -9.9706  -39.7648 O.2       4 UNK        -0.5000 
     52 CA          2.3555   -9.1065  -41.7123 C.3       4 UNK         0.1400 
     53 CB          3.0246   -7.7381  -41.9142 C.3       4 UNK        -0.1800 
     54 N           1.9069   -9.6114  -43.0139 N.am      4 UNK        -0.5000 
     55 C           1.0627  -10.6373  -43.1893 C.2       3 UNK         0.5000 
     56 O           0.5059  -11.2180  -42.2540 O.2       3 UNK        -0.5000 
     57 CA          0.8107  -11.0881  -44.6479 C.3       3 UNK         0.1400 
     58 CB          2.0165  -10.8316  -45.5799 C.3       3 UNK        -0.1800 
     59 N           0.3967  -12.4900  -44.7649 N.am      3 UNK        -0.5000 
     60 C           1.0429  -13.5720  -44.3029 C.2       2 UNK         0.5000 
     61 O           2.0900  -13.5422  -43.6533 O.2       2 UNK        -0.5000 
     62 CA          0.4205  -14.9353  -44.6512 C.3       2 UNK         0.1400 
     63 CB         -0.6390  -15.3286  -43.6119 C.3       2 UNK        -0.1800 
     64 N          -0.1621  -14.9970  -45.9918 N.am      2 UNK        -0.5000 
     65 C           0.5093  -14.7979  -47.1371 C.2       1 UNK         0.5000 
     66 O           1.7106  -14.5312  -47.1876 O.2       1 UNK        -0.5000 
     67 C          -3.4660  -22.2849  -45.4509 C.2       11 UNK         0.5000 
     68 O          -4.4059  -22.8050  -46.0503 O.2       11 UNK        -0.5000 
     69 N          -2.7474  -22.9122  -44.5063 N.am      12 UNK        -0.5000 
     70 CA         -2.9480  -24.2964  -44.0666 C.3       12 UNK         0.1400 
     71 CB         -2.0502  -24.5796  -42.8535 C.3       12 UNK        -0.1800 
     72 C          -2.6952  -25.3274  -45.1839 C.2       12 UNK         0.5000 
     73 O          -3.3963  -26.3369  -45.2514 O.2       12 UNK        -0.5000 
     74 N          -1.7367  -25.0263  -46.0706 N.am      13 UNK        -0.5000 
     75 CA         -1.4518  -25.7685  -47.3008 C.3       13 UNK         0.1400 
     76 CB         -0.0332  -25.4089  -47.7731 C.3       13 UNK        -0.1800 
     77 C          -2.4757  -25.5148  -48.4292 C.2       13 UNK         0.5000 
     78 O          -2.3231  -26.0845  -49.5115 O.2       13 UNK        -0.5000 
     79 N          -3.4700  -24.6460  -48.1866 N.am      14 UNK        -0.5000 
     80 CA         -4.5270  -24.2195  -49.1065 C.3       14 UNK         0.1400 
     81 CB         -5.4918  -25.3860  -49.4053 C.3       14 UNK        -0.1800 
     82 C          -3.9568  -23.5693  -50.3783 C.2       14 UNK         0.5000 
     83 O          -4.3964  -23.8911  -51.4823 O.2       14 UNK        -0.5000 
     84 N          -2.9508  -22.6983  -50.2012 N.am      15 UNK        -0.5000 
     85 CA         -2.1993  -22.0182  -51.2599 C.3       15 UNK         0.1400 
     86 CB         -3.1480  -21.1588  -52.1157 C.3       15 UNK        -0.1800 
     87 C          -1.3754  -23.0039  -52.1107 C.2       15 UNK         0.5000 
     88 O          -1.2876  -22.8366  -53.3287 O.2       15 UNK        -0.5000 
     89 N          -0.8282  -24.0336  -51.4474 N.am      16 UNK        -0.5000 
     90 CA         -0.1491  -25.1973  -52.0249 C.3       16 UNK         0.1400 
     91 CB          1.1961  -24.7915  -52.6613 C.3       16 UNK        -0.1800 
     92 C          -1.0802  -25.9742  -52.9785 C.2       16 UNK         0.5000 
     93 O          -0.7286  -26.2169  -54.1335 O.2       16 UNK        -0.5000 
     94 N          -2.2713  -26.3133  -52.4629 N.am      17 UNK        -0.5000 
     95 CA         -3.3892  -26.9623  -53.1552 C.3       17 UNK         0.1400 
     96 CB         -3.0305  -28.4155  -53.5300 C.3       17 UNK        -0.1800 
     97 C          -3.9067  -26.1321  -54.3504 C.2       17 UNK         0.5000 
     98 O          -3.9919  -26.6367  -55.4719 O.2       17 UNK        -0.5000 
     99 N          -4.2417  -24.8646  -54.0700 N.am      18 UNK        -0.5000 
    100 CA        -4.7970  -23.8585  -54.9812 C.3       18 UNK         0.1400 
    101 CB        -6.2114  -24.2642  -55.4444 C.3       18 UNK        -0.1800 
    102 C         -3.8619  -23.4789  -56.1494 C.2       18 UNK         0.5000 
    103 O         -4.3421  -23.1097  -57.2228 O.2       18 UNK        -0.5000 
    104 N         -2.5438  -23.5617  -55.9247 N.am      19 UNK        -0.5000 
    105 CA        -1.5222  -23.1318  -56.8784 C.3       19 UNK         0.1400 
    106 CB        -0.2087  -23.8746  -56.5956 C.3       19 UNK        -0.1800 
    107 C         -1.3117  -21.6089  -56.8246 C.2       19 UNK         0.5000 
    108 O         -1.1589  -20.9818  -57.8742 O.2       19 UNK        -0.5000 
    109 N         -1.3160  -21.0486  -55.6072 N.am      20 UNK        -0.5000 
    110 CA        -1.2380  -19.6135  -55.3420 C.3       20 UNK         0.1400 
    111 CB        -0.2782  -19.3630  -54.1595 C.3       20 UNK        -0.1800 
    112 C         -2.6513  -19.0086  -55.1807 C.2       20 UNK         0.5000 
    113 O         -3.5712  -19.4105  -55.8960 O.2       20 UNK        -0.5000 
    114 N         -2.8052  -18.0322  -54.2746 N.am      21 UNK        -0.5000 
    115 CA        -3.9490  -17.1148  -54.1892 C.3       21 UNK         0.1400 
    116 CB        -3.6440  -16.0257  -53.1475 C.3       21 UNK        -0.1800 
    117 C         -5.3454  -17.7338  -53.9547 C.2       21 UNK         0.5000 
    118 O         -6.3346  -17.0617  -54.2508 O.2       21 UNK        -0.5000 
    119 N         -5.4300  -18.9770  -53.4548 N.am      22 UNK        -0.5000 
    120 CA        -6.7031  -19.7254  -53.3866 C.3       22 UNK         0.1400 
    121 C         -7.1285  -20.3306  -54.7622 C.2       22 UNK         0.5000 
    122 N         -6.2824  -20.3545  -55.7862 N.am      22 UNK        -0.7600 
    123 O         -8.2600  -20.7852  -54.9054 O.2       22 UNK        -0.5000 
    124 C124       -6.7277  -20.8322  -52.2924 C.3       23 UNK        -0.0398 
    125 S125       -6.6918  -20.3924  -50.5084 S.3       23 UNK        -0.2404 
    126 C126       -6.4969  -18.5871  -50.3214 C.3       23 UNK        -0.0205 
    127 H127       -4.3832  -13.1076  -48.4866 H         1 UNK         0.0600 
    128 H128       -4.3194  -13.8300  -46.8757 H         1 UNK         0.0600 
    129 H129       -4.2797  -14.8598  -48.3116 H         1 UNK         0.0600 
    130 H130       -2.2437  -15.6952  -48.5981 H         1 UNK         0.3000 
    131 H131        0.0151  -14.1185  -49.0982 H         1 UNK         0.0600 
    132 H132        0.1183  -17.1021  -48.4603 H         1 UNK         0.0800 
    133 H133        1.2311  -16.1878  -49.4269 H         1 UNK         0.0800 
    134 H134       -0.7780  -18.8642  -49.6366 H         1 UNK         0.0800 
    135 H135       -1.6127  -18.8324  -51.1545 H         1 UNK         0.0800 
    136 H136       -3.9583  -18.5358  -51.2574 H         1 UNK         0.1150 
    137 H137       -6.2157  -17.9188  -47.6806 H         1 UNK         0.1150 
    138 H138       -1.9336  -17.7029  -47.5836 H         1 UNK         0.1150 
    139 H139       -3.9888  -16.2597  -45.9447 H         1 UNK         0.0800 
    140 H140       -5.1506  -17.5125  -45.5981 H         1 UNK         0.0800 
    141 H141       -4.7003  -19.7951  -44.8946 H         1 UNK         0.0800 
    142 H142       -3.4248  -20.1641  -43.7711 H         1 UNK         0.0800 
    143 H143       -3.4456  -20.6169  -46.7937 H         1 UNK         0.0600 
    144 H144       -1.0905  -20.3553  -45.1437 H         1 UNK         0.3000 
    145 H145        1.1404  -21.9716  -47.3704 H         1 UNK         0.0600 
    146 H146        0.7066  -18.9815  -46.8317 H         1 UNK         0.0600 
    147 H147        2.2545  -19.7224  -47.2314 H         1 UNK         0.0600 
    148 H148        0.9526  -19.7395  -48.4052 H         1 UNK         0.0600 
    149 H149        1.4518  -20.4562  -44.9400 H         1 UNK         0.3000 
    150 H150        0.9073  -23.1422  -42.6685 H         1 UNK         0.0600 
    151 H151        3.2375  -23.5838  -43.4663 H         1 UNK         0.0600 
    152 H152        3.2358  -22.6566  -41.9749 H         1 UNK         0.0600 
    153 H153        3.5591  -21.8542  -43.5125 H         1 UNK         0.0600 
    154 H154        1.8862  -20.5265  -42.2302 H         1 UNK         0.3000 
    155 H155       -0.8980  -18.5797  -42.6499 H         1 UNK         0.0600 
    156 H156       -1.8817  -19.6437  -40.6148 H         1 UNK         0.0600 
    157 H157       -1.1111  -18.1141  -40.2272 H         1 UNK         0.0600 
    158 H158       -0.3032  -19.6325  -39.8355 H         1 UNK         0.0600 
    159 H159        1.2568  -18.0195  -40.9446 H         1 UNK         0.3000 
    160 H160        3.6106  -17.6973  -41.7782 H         1 UNK         0.0600 
    161 H161        4.8231  -16.2736  -43.3832 H         1 UNK         0.0600 
    162 H162        3.4350  -16.2343  -44.4639 H         1 UNK         0.0600 
    163 H163        4.2844  -17.7462  -44.1728 H         1 UNK         0.0600 
    164 H164        2.6446  -15.0436  -42.4732 H         1 UNK         0.3000 
    165 H165        0.8290  -14.0750  -40.6718 H         1 UNK         0.0600 
    166 H166        2.5046  -14.3782  -38.1249 H         1 UNK         0.0600 
    167 H167        1.3230  -13.1031  -38.4190 H         1 UNK         0.0600 
    168 H168        0.8038  -14.7774  -38.3149 H         1 UNK         0.0600 
    169 H169        2.3276  -12.6553  -41.4184 H         1 UNK         0.3000 
    170 H170        5.5146  -11.6174  -40.5304 H         1 UNK         0.0600 
    171 H171        4.8974  -13.1194  -43.1357 H         1 UNK         0.0600 
    172 H172        6.1692  -11.9164  -42.9147 H         1 UNK         0.0600 
    173 H173        6.2518  -13.4503  -42.0632 H         1 UNK         0.0600 
    174 H174        3.7404  -11.0091  -42.7243 H         1 UNK         0.3000 
    175 H175        1.4789   -8.9689  -41.0757 H         1 UNK         0.0600 
    176 H176        3.9054   -7.8108  -42.5535 H         1 UNK         0.0600 
    177 H177        2.3364   -7.0253  -42.3687 H         1 UNK         0.0600 
    178 H178        3.3450   -7.3152  -40.9611 H         1 UNK         0.0600 
    179 H179        2.3144   -9.1751  -43.8285 H         1 UNK         0.3000 
    180 H180       -0.0277  -10.4926  -45.0112 H         1 UNK         0.0600 
    181 H181        2.9216  -11.3185  -45.2142 H         1 UNK         0.0600 
    182 H182        2.2267   -9.7670  -45.6856 H         1 UNK         0.0600 
    183 H183        1.8215  -11.2137  -46.5824 H         1 UNK         0.0600 
    184 H184       -0.4559  -12.6457  -45.2851 H         1 UNK         0.3000 
    185 H185        1.2194  -15.6745  -44.6188 H         1 UNK         0.0600 
    186 H186       -0.9622  -16.3577  -43.7574 H         1 UNK         0.0600 
    187 H187       -0.2444  -15.2600  -42.5983 H         1 UNK         0.0600 
    188 H188       -1.5185  -14.6860  -43.6664 H         1 UNK         0.0600 
    189 H189       -1.1456  -15.2142  -46.0507 H         1 UNK         0.3000 
    190 H190       -2.0219  -22.3851  -44.0271 H         1 UNK         0.3000 
    191 H191       -3.9889  -24.3954  -43.7523 H         1 UNK         0.0600 
    192 H192       -0.9939  -24.5293  -43.1164 H         1 UNK         0.0600 
    193 H193       -2.2313  -23.8648  -42.0505 H         1 UNK         0.0600 
    194 H194       -2.2403  -25.5761  -42.4530 H         1 UNK         0.0600 
    195 H195       -1.1515  -24.2178  -45.8900 H         1 UNK         0.3000 
    196 H196       -1.4766  -26.8366  -47.0764 H         1 UNK         0.0600 
    197 H197        0.7050  -25.6268  -47.0011 H         1 UNK         0.0600 
    198 H198        0.0505  -24.3514  -48.0257 H         1 UNK         0.0600 
    199 H199        0.2480  -25.9835  -48.6562 H         1 UNK         0.0600 
    200 H200       -3.5064  -24.2050  -47.2751 H         1 UNK         0.3000 
    201 H201       -5.0957  -23.4414  -48.5961 H         1 UNK         0.0600 
    202 H202       -6.3413  -25.0467  -49.9993 H         1 UNK         0.0600 
    203 H203       -5.8898  -25.8121  -48.4845 H         1 UNK         0.0600 
    204 H204       -5.0034  -26.1865  -49.9617 H         1 UNK         0.0600 
    205 H205       -2.6220  -22.5115  -49.2575 H         1 UNK         0.3000 
    206 H206       -1.4928  -21.3562  -50.7579 H         1 UNK         0.0600 
    207 H207       -2.6183  -20.3497  -52.6050 H         1 UNK         0.0600 
    208 H208       -3.9237  -20.7197  -51.4959 H         1 UNK         0.0600 
    209 H209       -3.6389  -21.7421  -52.8928 H         1 UNK         0.0600 
    210 H210       -1.0113  -24.0898  -50.4562 H         1 UNK         0.3000 
    211 H211        0.0718  -25.8729  -51.1975 H         1 UNK         0.0600 
    212 H212        1.8429  -24.3048  -51.9315 H         1 UNK         0.0600 
    213 H213        1.7297  -25.6655  -53.0362 H         1 UNK         0.0600 
    214 H214        1.0642  -24.1059  -53.4972 H         1 UNK         0.0600 
    215 H215       -2.4393  -26.0823  -51.4873 H         1 UNK         0.3000 
    216 H216       -4.2083  -27.0037  -52.4356 H         1 UNK         0.0600 
    217 H217       -3.8944  -28.9340  -53.9473 H         1 UNK         0.0600 
    218 H218       -2.2334  -28.4604  -54.2726 H         1 UNK         0.0600 
    219 H219       -2.7058  -28.9786  -52.6551 H         1 UNK         0.0600 
    220 H220       -4.1588  -24.5551  -53.1011 H         1 UNK         0.3000 
    221 H221       -4.9084  -22.9504  -54.3897 H         1 UNK         0.0600 
    222 H222       -6.8519  -24.4975  -54.5939 H         1 UNK         0.0600 
    223 H223       -6.6913  -23.4536  -55.9939 H         1 UNK         0.0600 
    224 H224       -6.1893  -25.1355  -56.0993 H         1 UNK         0.0600 
    225 H225       -2.2176  -23.8349  -55.0053 H         1 UNK         0.3000 
    226 H226       -1.8433  -23.3943  -57.8886 H         1 UNK         0.0600 
    227 H227       -0.3431  -24.9539  -56.6689 H         1 UNK         0.0600 
    228 H228        0.5626  -23.5915  -57.3127 H         1 UNK         0.0600 
    229 H229        0.1712  -23.6522  -55.5990 H         1 UNK         0.0600 
    230 H230       -1.4273  -21.6570  -54.8001 H         1 UNK         0.3000 
    231 H231       -0.8027  -19.1087  -56.2065 H         1 UNK         0.0600 
    232 H232       -0.1677  -18.3004  -53.9405 H         1 UNK         0.0600 
    233 H233        0.7188  -19.7345  -54.3975 H         1 UNK         0.0600 
    234 H234       -0.5920  -19.8656  -53.2475 H         1 UNK         0.0600 
    235 H235       -2.0023  -17.7761  -53.7187 H         1 UNK         0.3000 
    236 H236       -4.0105  -16.6186  -55.1601 H         1 UNK         0.0600 
    237 H237       -2.7490  -15.4640  -53.4156 H         1 UNK         0.0600 
    238 H238       -4.4626  -15.3085  -53.0749 H         1 UNK         0.0600 
    239 H239       -3.4875  -16.4411  -52.1542 H         1 UNK         0.0600 
    240 H240       -4.5829  -19.4911  -53.2731 H         1 UNK         0.3000 
    241 H241       -7.4997  -19.0242  -53.1322 H         1 UNK         0.0600 
    242 H242       -5.3426  -19.9710  -55.7192 H         1 UNK         0.3800 
    243 H243       -6.5865  -20.7477  -56.6621 H         1 UNK         0.3800 
    244 H244       -7.6428  -21.4180  -52.3975 H         1 UNK         0.0800 
    245 H245       -5.9294  -21.5504  -52.4740 H         1 UNK         0.0800 
    246 H246       -6.4965  -18.0575  -51.2696 H         1 UNK         0.0800 
    247 H247       -7.3618  -18.2058  -49.7768 H         1 UNK         0.0800 
@<TRIPOS>BOND
     1    1    2 1    
     2    1  127 1    
     3    1  128 1    
     4    1  129 1    
     5    2    3 2    
     6    2    4 am   BACKBONE|DICT|INTERRES
     7    4    5 1    
     8    4  130 1    
     9    5    6 1    
    10    5   65 1    
    11    5  131 1    
    12    6    7 1    
    13    6  132 1    
    14    6  133 1    
    15    7    8 1    
    16    8    9 1    
    17    8  134 1    
    18    8  135 1    
    19    9   10 ar   
    20    9   14 ar   
    21   10   11 ar   
    22   10  136 1    
    23   11   12 ar   
    24   11  126 1    
    25   12   13 ar   
    26   12  137 1    
    27   13   14 ar   
    28   13   15 1    
    29   14  138 1    
    30   15   16 1    
    31   15  139 1    
    32   15  140 1    
    33   16   17 1    
    34   17   18 1    
    35   17  141 1    
    36   17  142 1    
    37   18   19 1    
    38   18   67 1    
    39   18  143 1    
    40   19   20 am   BACKBONE|DICT|INTERRES
    41   19  144 1    
    42   20   21 2    
    43   20   22 1    
    44   22   23 1    
    45   22   24 1    
    46   22  145 1    
    47   23  146 1    
    48   23  147 1    
    49   23  148 1    
    50   24   25 am   BACKBONE|DICT|INTERRES
    51   24  149 1    
    52   25   26 2    
    53   25   27 1    
    54   27   28 1    
    55   27   29 1    
    56   27  150 1    
    57   28  151 1    
    58   28  152 1    
    59   28  153 1    
    60   29   30 am   BACKBONE|DICT|INTERRES
    61   29  154 1    
    62   30   31 2    
    63   30   32 1    
    64   32   33 1    
    65   32   34 1    
    66   32  155 1    
    67   33  156 1    
    68   33  157 1    
    69   33  158 1    
    70   34   35 am   BACKBONE|DICT|INTERRES
    71   34  159 1    
    72   35   36 2    
    73   35   37 1    
    74   37   38 1    
    75   37   39 1    
    76   37  160 1    
    77   38  161 1    
    78   38  162 1    
    79   38  163 1    
    80   39   40 am   BACKBONE|DICT|INTERRES
    81   39  164 1    
    82   40   41 2    
    83   40   42 1    
    84   42   43 1    
    85   42   44 1    
    86   42  165 1    
    87   43  166 1    
    88   43  167 1    
    89   43  168 1    
    90   44   45 am   BACKBONE|DICT|INTERRES
    91   44  169 1    
    92   45   46 2    
    93   45   47 1    
    94   47   48 1    
    95   47   49 1    
    96   47  170 1    
    97   48  171 1    
    98   48  172 1    
    99   48  173 1    
   100   49   50 am   BACKBONE|DICT|INTERRES
   101   49  174 1    
   102   50   51 2    
   103   50   52 1    
   104   52   53 1    
   105   52   54 1    
   106   52  175 1    
   107   53  176 1    
   108   53  177 1    
   109   53  178 1    
   110   54   55 am   BACKBONE|DICT|INTERRES
   111   54  179 1    
   112   55   56 2    
   113   55   57 1    
   114   57   58 1    
   115   57   59 1    
   116   57  180 1    
   117   58  181 1    
   118   58  182 1    
   119   58  183 1    
   120   59   60 am   BACKBONE|DICT|INTERRES
   121   59  184 1    
   122   60   61 2    
   123   60   62 1    
   124   62   63 1    
   125   62   64 1    
   126   62  185 1    
   127   63  186 1    
   128   63  187 1    
   129   63  188 1    
   130   64   65 am   BACKBONE|DICT|INTERRES
   131   64  189 1    
   132   65   66 2    
   133   67   68 2    
   134   67   69 am   BACKBONE|DICT|INTERRES
   135   69   70 1    
   136   69  190 1    
   137   70   71 1    
   138   70   72 1    
   139   70  191 1    
   140   71  192 1    
   141   71  193 1    
   142   71  194 1    
   143   72   73 2    
   144   72   74 am   BACKBONE|DICT|INTERRES
   145   74   75 1    
   146   74  195 1    
   147   75   76 1    
   148   75   77 1    
   149   75  196 1    
   150   76  197 1    
   151   76  198 1    
   152   76  199 1    
   153   77   78 2    
   154   77   79 am   BACKBONE|DICT|INTERRES
   155   79   80 1    
   156   79  200 1    
   157   80   81 1    
   158   80   82 1    
   159   80  201 1    
   160   81  202 1    
   161   81  203 1    
   162   81  204 1    
   163   82   83 2    
   164   82   84 am   BACKBONE|DICT|INTERRES
   165   84   85 1    
   166   84  205 1    
   167   85   86 1    
   168   85   87 1    
   169   85  206 1    
   170   86  207 1    
   171   86  208 1    
   172   86  209 1    
   173   87   88 2    
   174   87   89 am   BACKBONE|DICT|INTERRES
   175   89   90 1    
   176   89  210 1    
   177   90   91 1    
   178   90   92 1    
   179   90  211 1    
   180   91  212 1    
   181   91  213 1    
   182   91  214 1    
   183   92   93 2    
   184   92   94 am   BACKBONE|DICT|INTERRES
   185   94   95 1    
   186   94  215 1    
   187   95   96 1    
   188   95   97 1    
   189   95  216 1    
   190   96  217 1    
   191   96  218 1    
   192   96  219 1    
   193   97   98 2    
   194   97   99 am   BACKBONE|DICT|INTERRES
   195   99  100 1    
   196   99  220 1    
   197  100  101 1    
   198  100  102 1    
   199  100  221 1    
   200  101  222 1    
   201  101  223 1    
   202  101  224 1    
   203  102  103 2    
   204  102  104 am   BACKBONE|DICT|INTERRES
   205  104  105 1    
   206  104  225 1    
   207  105  106 1    
   208  105  107 1    
   209  105  226 1    
   210  106  227 1    
   211  106  228 1    
   212  106  229 1    
   213  107  108 2    
   214  107  109 am   BACKBONE|DICT|INTERRES
   215  109  110 1    
   216  109  230 1    
   217  110  111 1    
   218  110  112 1    
   219  110  231 1    
   220  111  232 1    
   221  111  233 1    
   222  111  234 1    
   223  112  113 2    
   224  112  114 am   BACKBONE|DICT|INTERRES
   225  114  115 1    
   226  114  235 1    
   227  115  116 1    
   228  115  117 1    
   229  115  236 1    
   230  116  237 1    
   231  116  238 1    
   232  116  239 1    
   233  117  118 2    
   234  117  119 am   BACKBONE|DICT|INTERRES
   235  119  120 1    
   236  119  240 1    
   237  120  121 1    
   238  120  124 1    
   239  120  241 1    
   240  121  122 am   BACKBONE|DICT|INTERRES
   241  121  123 2    
   242  122  242 1    
   243  122  243 1    
   244  124  125 1    
   245  124  244 1    
   246  124  245 1    
   247  125  126 1    
   248  126  246 1    
   249  126  247 1    
@<TRIPOS>SUBSTRUCTURE
     1 UNK         1 GROUP             0       ****    0 ROOT    
