@<TRIPOS>MOLECULE
3R540
247   249    1
SMALL
USER_CHARGES


@<TRIPOS>ATOM
      1 CA          4.9597  -11.8437  -47.9078 C.3       0 UNK        -0.1800 
      2 C           3.9896  -12.9506  -47.5238 C.2       0 UNK         0.5000 
      3 O           3.8945  -13.3011  -46.3470 O.2       0 UNK        -0.5000 
      4 N           3.2531  -13.4918  -48.5042 N.am      1 UNK        -0.5000 
      5 CA          2.2730  -14.5710  -48.3234 C.3       1 UNK         0.1400 
      6 C6          1.7328  -15.1300  -49.6653 C.3       23 UNK        -0.0398 
      7 S7          1.0831  -13.8759  -50.8312 S.3       23 UNK        -0.2404 
      8 C8         -0.7015  -13.8238  -50.4577 C.3       23 UNK        -0.0205 
      9 C9         -1.4485  -15.0713  -50.9041 C.ar      23 UNK        -0.0193 
     10 C10        -1.9697  -15.1555  -52.1974 C.ar      23 UNK        -0.1150 
     11 C11        -2.7218  -16.2670  -52.5879 C.ar      23 UNK        -0.0193 
     12 C12        -2.9427  -17.3066  -51.6787 C.ar      23 UNK        -0.1150 
     13 C13        -2.4269  -17.2345  -50.3809 C.ar      23 UNK        -0.0193 
     14 C14        -1.6758  -16.1157  -50.0044 C.ar      23 UNK        -0.1150 
     15 C15        -2.6783  -18.3614  -49.3875 C.3       23 UNK        -0.0205 
     16 S16        -3.3570  -17.7376  -47.8143 S.3       23 UNK        -0.2404 
     17 C17        -3.5754  -19.2187  -46.7666 C.3       23 UNK        -0.0398 
     18 CA         -2.5428  -20.3635  -46.9283 C.3       11 UNK         0.1400 
     19 N          -1.1563  -19.8957  -46.8377 N.am      11 UNK        -0.5000 
     20 C          -0.0647  -20.6577  -46.9957 C.2       10 UNK         0.5000 
     21 O          -0.1028  -21.8726  -47.1956 O.2       10 UNK        -0.5000 
     22 CA          1.3071  -19.9669  -46.8636 C.3       10 UNK         0.1400 
     23 CB          1.2419  -18.4257  -46.9286 C.3       10 UNK        -0.1800 
     24 N           2.0288  -20.4020  -45.6611 N.am      10 UNK        -0.5000 
     25 C           1.5695  -20.4055  -44.4007 C.2       9 UNK         0.5000 
     26 O           0.4348  -20.0405  -44.0813 O.2       9 UNK        -0.5000 
     27 CA          2.5330  -20.9397  -43.3288 C.3       9 UNK         0.1400 
     28 CB          3.7688  -20.0405  -43.1491 C.3       9 UNK        -0.1800 
     29 N           1.8259  -21.0512  -42.0592 N.am      9 UNK        -0.5000 
     30 C           2.0612  -21.9481  -41.0982 C.2       8 UNK         0.5000 
     31 O           2.9389  -22.8096  -41.1767 O.2       8 UNK        -0.5000 
     32 CA          1.1838  -21.8401  -39.8297 C.3       8 UNK         0.1400 
     33 CB          1.5394  -22.8966  -38.7679 C.3       8 UNK        -0.1800 
     34 N           1.2777  -20.5111  -39.2190 N.am      8 UNK        -0.5000 
     35 C           0.6323  -19.4188  -39.6465 C.2       7 UNK         0.5000 
     36 O          -0.1785  -19.4431  -40.5752 O.2       7 UNK        -0.5000 
     37 CA          0.9630  -18.0947  -38.9310 C.3       7 UNK         0.1400 
     38 CB          2.4803  -17.8321  -38.8980 C.3       7 UNK        -0.1800 
     39 N           0.3285  -16.9896  -39.6415 N.am      7 UNK        -0.5000 
     40 C          -0.6749  -16.2279  -39.1895 C.2       6 UNK         0.5000 
     41 O          -1.1356  -16.3114  -38.0500 O.2       6 UNK        -0.5000 
     42 CA         -1.2706  -15.1920  -40.1677 C.3       6 UNK         0.1400 
     43 CB         -0.8209  -13.7714  -39.7932 C.3       6 UNK        -0.1800 
     44 N          -0.9103  -15.4577  -41.5625 N.am      6 UNK        -0.5000 
     45 C          -1.4767  -16.4108  -42.3172 C.2       5 UNK         0.5000 
     46 O          -2.4537  -17.0665  -41.9535 O.2       5 UNK        -0.5000 
     47 CA         -0.8618  -16.6930  -43.7042 C.3       5 UNK         0.1400 
     48 CB         -1.7839  -16.1715  -44.8165 C.3       5 UNK        -0.1800 
     49 N           0.4849  -16.1503  -43.9106 N.am      5 UNK        -0.5000 
     50 C           1.5817  -16.5034  -43.2253 C.2       4 UNK         0.5000 
     51 O           1.5788  -17.3193  -42.3062 O.2       4 UNK        -0.5000 
     52 CA          2.8915  -15.7739  -43.5784 C.3       4 UNK         0.1400 
     53 CB          3.5800  -16.4247  -44.7849 C.3       4 UNK        -0.1800 
     54 N           2.6983  -14.3486  -43.8467 N.am      4 UNK        -0.5000 
     55 C           2.2429  -13.4576  -42.9545 C.2       3 UNK         0.5000 
     56 O           1.9660  -13.7369  -41.7888 O.2       3 UNK        -0.5000 
     57 CA          2.0183  -12.0258  -43.4663 C.3       3 UNK         0.1400 
     58 CB          3.3375  -11.2395  -43.5104 C.3       3 UNK        -0.1800 
     59 N           1.4020  -12.0320  -44.7919 N.am      3 UNK        -0.5000 
     60 C           0.1076  -12.2973  -45.0181 C.2       2 UNK         0.5000 
     61 O          -0.7197  -12.4820  -44.1254 O.2       2 UNK        -0.5000 
     62 CA         -0.3325  -12.3941  -46.4903 C.3       2 UNK         0.1400 
     63 CB         -0.7761  -11.0216  -47.0172 C.3       2 UNK        -0.1800 
     64 N           0.7163  -12.9255  -47.3612 N.am      2 UNK        -0.5000 
     65 C           1.1303  -14.2005  -47.3553 C.2       1 UNK         0.5000 
     66 O           0.6740  -15.0599  -46.6041 O.2       1 UNK        -0.5000 
     67 C          -2.8619  -21.4761  -45.9099 C.2       11 UNK         0.5000 
     68 O          -3.6116  -22.3934  -46.2429 O.2       11 UNK        -0.5000 
     69 N          -2.2810  -21.3875  -44.7043 N.am      12 UNK        -0.5000 
     70 CA         -2.4864  -22.3536  -43.6256 C.3       12 UNK         0.1400 
     71 CB         -2.0569  -21.7254  -42.2929 C.3       12 UNK        -0.1800 
     72 C          -1.7384  -23.6758  -43.8670 C.2       12 UNK         0.5000 
     73 O          -2.2348  -24.7301  -43.4711 O.2       12 UNK        -0.5000 
     74 N          -0.5745  -23.6017  -44.5271 N.am      13 UNK        -0.5000 
     75 CA          0.2214  -24.7662  -44.9165 C.3       13 UNK         0.1400 
     76 CB          1.6774  -24.3424  -45.1576 C.3       13 UNK        -0.1800 
     77 C          -0.3615  -25.4636  -46.1562 C.2       13 UNK         0.5000 
     78 O          -0.4008  -26.6933  -46.2023 O.2       13 UNK        -0.5000 
     79 N          -0.8234  -24.6645  -47.1273 N.am      14 UNK        -0.5000 
     80 CA         -1.4570  -25.1347  -48.3588 C.3       14 UNK         0.1400 
     81 CB         -1.4480  -23.9906  -49.3853 C.3       14 UNK        -0.1800 
     82 C          -2.8963  -25.6445  -48.1553 C.2       14 UNK         0.5000 
     83 O          -3.4137  -26.3264  -49.0377 O.2       14 UNK        -0.5000 
     84 N          -3.5339  -25.2677  -47.0365 N.am      15 UNK        -0.5000 
     85 CA         -4.9548  -25.4651  -46.7215 C.3       15 UNK         0.1400 
     86 CB         -5.2823  -26.9606  -46.5308 C.3       15 UNK        -0.1800 
     87 C          -5.8593  -24.7627  -47.7575 C.2       15 UNK         0.5000 
     88 O          -6.8029  -25.3587  -48.2784 O.2       15 UNK        -0.5000 
     89 N          -5.4955  -23.5089  -48.0650 N.am      16 UNK        -0.5000 
     90 CA         -6.0811  -22.5897  -49.0487 C.3       16 UNK         0.1400 
     91 CB         -7.5581  -22.2930  -48.7221 C.3       16 UNK        -0.1800 
     92 C          -5.8919  -22.9940  -50.5283 C.2       16 UNK         0.5000 
     93 O          -6.3145  -22.2401  -51.4064 O.2       16 UNK        -0.5000 
     94 N          -5.2268  -24.1274  -50.8059 N.am      17 UNK        -0.5000 
     95 CA         -4.9968  -24.6533  -52.1586 C.3       17 UNK         0.1400 
     96 CB         -4.4301  -26.0769  -52.0710 C.3       17 UNK        -0.1800 
     97 C          -4.0845  -23.7711  -53.0325 C.2       17 UNK         0.5000 
     98 O          -4.1269  -23.8877  -54.2570 O.2       17 UNK        -0.5000 
     99 N          -3.3128  -22.8735  -52.4010 N.am      18 UNK        -0.5000 
    100 CA        -2.4639  -21.8683  -53.0463 C.3       18 UNK         0.1400 
    101 CB        -1.7125  -21.0780  -51.9656 C.3       18 UNK        -0.1800 
    102 C         -3.2309  -20.9127  -53.9826 C.2       18 UNK         0.5000 
    103 O         -2.6409  -20.4020  -54.9328 O.2       18 UNK        -0.5000 
    104 N         -4.5421  -20.7408  -53.7550 N.am      19 UNK        -0.5000 
    105 CA        -5.4509  -20.0019  -54.6333 C.3       19 UNK         0.1400 
    106 CB        -6.8487  -19.9719  -54.0000 C.3       19 UNK        -0.1800 
    107 C         -5.5172  -20.5590  -56.0713 C.2       19 UNK         0.5000 
    108 O         -5.7092  -19.7826  -57.0081 O.2       19 UNK        -0.5000 
    109 N         -5.3093  -21.8749  -56.2342 N.am      20 UNK        -0.5000 
    110 CA        -5.2350  -22.5370  -57.5381 C.3       20 UNK         0.1400 
    111 CB        -5.3969  -24.0534  -57.3532 C.3       20 UNK        -0.1800 
    112 C         -3.9320  -22.2195  -58.2979 C.2       20 UNK         0.5000 
    113 O         -3.9304  -22.2676  -59.5285 O.2       20 UNK        -0.5000 
    114 N         -2.8568  -21.8904  -57.5663 N.am      21 UNK        -0.5000 
    115 CA        -1.5935  -21.4186  -58.1333 C.3       21 UNK         0.1400 
    116 CB        -0.4401  -21.7053  -57.1586 C.3       21 UNK        -0.1800 
    117 C         -1.6676  -19.9224  -58.4861 C.2       21 UNK         0.5000 
    118 O         -1.1249  -19.5203  -59.5163 O.2       21 UNK        -0.5000 
    119 N         -2.3531  -19.1338  -57.6453 N.am      22 UNK        -0.5000 
    120 CA        -2.6635  -17.7168  -57.8970 C.3       22 UNK         0.1400 
    121 C         -3.5967  -17.5064  -59.1226 C.2       22 UNK         0.5000 
    122 N         -4.6750  -18.2703  -59.2510 N.am      22 UNK        -0.7600 
    123 O         -3.3417  -16.6444  -59.9591 O.2       22 UNK        -0.5000 
    124 C124       -3.2668  -17.0101  -56.6584 C.3       23 UNK        -0.0398 
    125 S125       -2.1928  -17.0559  -55.1878 S.3       23 UNK        -0.2404 
    126 C126       -3.3320  -16.3222  -53.9775 C.3       23 UNK        -0.0205 
    127 H127        4.9216  -11.6232  -48.9748 H         1 UNK         0.0600 
    128 H128        5.9790  -12.1363  -47.6559 H         1 UNK         0.0600 
    129 H129        4.7211  -10.9310  -47.3618 H         1 UNK         0.0600 
    130 H130        3.3588  -13.1556  -49.4514 H         1 UNK         0.3000 
    131 H131        2.8132  -15.3900  -47.8453 H         1 UNK         0.0600 
    132 H132        2.5505  -15.6357  -50.1804 H         1 UNK         0.0800 
    133 H133        0.9933  -15.9109  -49.4927 H         1 UNK         0.0800 
    134 H134       -1.1278  -12.9530  -50.9578 H         1 UNK         0.0800 
    135 H135       -0.8656  -13.6556  -49.3947 H         1 UNK         0.0800 
    136 H136       -1.8067  -14.3458  -52.8951 H         1 UNK         0.1150 
    137 H137       -3.5264  -18.1648  -51.9814 H         1 UNK         0.1150 
    138 H138       -1.2891  -16.0480  -48.9970 H         1 UNK         0.1150 
    139 H139       -3.3810  -19.0875  -49.7975 H         1 UNK         0.0800 
    140 H140       -1.7349  -18.8805  -49.2245 H         1 UNK         0.0800 
    141 H141       -4.5804  -19.5996  -46.9590 H         1 UNK         0.0800 
    142 H142       -3.5864  -18.8663  -45.7332 H         1 UNK         0.0800 
    143 H143       -2.6689  -20.8019  -47.9201 H         1 UNK         0.0600 
    144 H144       -1.0311  -18.9139  -46.6399 H         1 UNK         0.3000 
    145 H145        1.8925  -20.3055  -47.7196 H         1 UNK         0.0600 
    146 H146        0.6891  -18.0827  -47.8044 H         1 UNK         0.0600 
    147 H147        0.7714  -17.9942  -46.0455 H         1 UNK         0.0600 
    148 H148        2.2439  -18.0074  -47.0085 H         1 UNK         0.0600 
    149 H149        2.9588  -20.7584  -45.8292 H         1 UNK         0.3000 
    150 H150        2.8623  -21.9278  -43.6507 H         1 UNK         0.0600 
    151 H151        4.3067  -19.9044  -44.0875 H         1 UNK         0.0600 
    152 H152        4.4700  -20.4788  -42.4389 H         1 UNK         0.0600 
    153 H153        3.4971  -19.0545  -42.7746 H         1 UNK         0.0600 
    154 H154        1.0649  -20.3864  -41.9387 H         1 UNK         0.3000 
    155 H155        0.1511  -22.0195  -40.1349 H         1 UNK         0.0600 
    156 H156        2.5637  -22.7817  -38.4111 H         1 UNK         0.0600 
    157 H157        1.4420  -23.9054  -39.1714 H         1 UNK         0.0600 
    158 H158        0.8746  -22.8287  -37.9067 H         1 UNK         0.0600 
    159 H159        1.9474  -20.4160  -38.4695 H         1 UNK         0.3000 
    160 H160        0.5906  -18.1640  -37.9073 H         1 UNK         0.0600 
    161 H161        2.9153  -17.8629  -39.8982 H         1 UNK         0.0600 
    162 H162        3.0021  -18.5694  -38.2876 H         1 UNK         0.0600 
    163 H163        2.6995  -16.8531  -38.4712 H         1 UNK         0.0600 
    164 H164        0.5903  -16.9194  -40.6205 H         1 UNK         0.3000 
    165 H165       -2.3576  -15.2357  -40.0737 H         1 UNK         0.0600 
    166 H166       -1.2119  -13.0328  -40.4935 H         1 UNK         0.0600 
    167 H167       -1.1797  -13.5004  -38.7996 H         1 UNK         0.0600 
    168 H168        0.2654  -13.6828  -39.7809 H         1 UNK         0.0600 
    169 H169       -0.1089  -14.9594  -41.9269 H         1 UNK         0.3000 
    170 H170       -0.7973  -17.7773  -43.8009 H         1 UNK         0.0600 
    171 H171       -2.7980  -16.5566  -44.7036 H         1 UNK         0.0600 
    172 H172       -1.8421  -15.0827  -44.8104 H         1 UNK         0.0600 
    173 H173       -1.4299  -16.4826  -45.7988 H         1 UNK         0.0600 
    174 H174        0.5901  -15.5112  -44.6927 H         1 UNK         0.3000 
    175 H175        3.5579  -15.8646  -42.7181 H         1 UNK         0.0600 
    176 H176        3.0042  -16.2711  -45.6949 H         1 UNK         0.0600 
    177 H177        4.5728  -16.0041  -44.9455 H         1 UNK         0.0600 
    178 H178        3.6971  -17.4991  -44.6469 H         1 UNK         0.0600 
    179 H179        2.9485  -14.0216  -44.7752 H         1 UNK         0.3000 
    180 H180        1.3474  -11.5197  -42.7686 H         1 UNK         0.0600 
    181 H181        3.1724  -10.2119  -43.8347 H         1 UNK         0.0600 
    182 H182        4.0603  -11.6928  -44.1891 H         1 UNK         0.0600 
    183 H183        3.7978  -11.1985  -42.5225 H         1 UNK         0.0600 
    184 H184        2.0243  -11.9417  -45.5821 H         1 UNK         0.3000 
    185 H185       -1.1892  -13.0702  -46.5360 H         1 UNK         0.0600 
    186 H186       -1.1561  -11.0949  -48.0364 H         1 UNK         0.0600 
    187 H187       -1.5761  -10.6077  -46.4019 H         1 UNK         0.0600 
    188 H188        0.0451  -10.3038  -47.0149 H         1 UNK         0.0600 
    189 H189        1.1523  -12.2804  -48.0040 H         1 UNK         0.3000 
    190 H190       -1.6193  -20.6402  -44.5245 H         1 UNK         0.3000 
    191 H191       -3.5530  -22.5809  -43.5636 H         1 UNK         0.0600 
    192 H192       -2.2383  -22.4065  -41.4606 H         1 UNK         0.0600 
    193 H193       -2.6091  -20.8075  -42.0898 H         1 UNK         0.0600 
    194 H194       -0.9959  -21.4804  -42.2916 H         1 UNK         0.0600 
    195 H195       -0.2686  -22.7005  -44.8647 H         1 UNK         0.3000 
    196 H196        0.2161  -25.4888  -44.0974 H         1 UNK         0.0600 
    197 H197        1.7521  -23.5335  -45.8851 H         1 UNK         0.0600 
    198 H198        2.1412  -24.0133  -44.2289 H         1 UNK         0.0600 
    199 H199        2.2711  -25.1773  -45.5321 H         1 UNK         0.0600 
    200 H200       -0.6889  -23.6599  -47.0430 H         1 UNK         0.3000 
    201 H201       -0.8668  -25.9608  -48.7606 H         1 UNK         0.0600 
    202 H202       -0.4345  -23.6325  -49.5675 H         1 UNK         0.0600 
    203 H203       -2.0461  -23.1428  -49.0486 H         1 UNK         0.0600 
    204 H204       -1.8498  -24.3232  -50.3428 H         1 UNK         0.0600 
    205 H205       -3.0327  -24.6608  -46.4022 H         1 UNK         0.3000 
    206 H206       -5.1312  -24.9643  -45.7684 H         1 UNK         0.0600 
    207 H207       -4.6227  -27.4158  -45.7920 H         1 UNK         0.0600 
    208 H208       -6.3056  -27.0917  -46.1775 H         1 UNK         0.0600 
    209 H209       -5.1845  -27.5233  -47.4595 H         1 UNK         0.0600 
    210 H210       -4.7193  -23.1256  -47.5289 H         1 UNK         0.3000 
    211 H211       -5.5315  -21.6548  -48.9304 H         1 UNK         0.0600 
    212 H212       -7.9458  -21.4940  -49.3553 H         1 UNK         0.0600 
    213 H213       -7.6762  -21.9707  -47.6875 H         1 UNK         0.0600 
    214 H214       -8.1928  -23.1655  -48.8777 H         1 UNK         0.0600 
    215 H215       -4.9178  -24.7096  -50.0389 H         1 UNK         0.3000 
    216 H216       -5.9666  -24.7069  -52.6574 H         1 UNK         0.0600 
    217 H217       -3.4209  -26.0825  -51.6585 H         1 UNK         0.0600 
    218 H218       -4.3788  -26.5361  -53.0590 H         1 UNK         0.0600 
    219 H219       -5.0545  -26.7168  -51.4471 H         1 UNK         0.0600 
    220 H220       -3.3555  -22.8491  -51.3943 H         1 UNK         0.3000 
    221 H221       -1.7305  -22.3973  -53.6581 H         1 UNK         0.0600 
    222 H222       -1.0495  -21.7248  -51.3910 H         1 UNK         0.0600 
    223 H223       -2.4024  -20.6021  -51.2710 H         1 UNK         0.0600 
    224 H224       -1.0966  -20.2933  -52.4076 H         1 UNK         0.0600 
    225 H225       -4.9658  -21.2153  -52.9673 H         1 UNK         0.3000 
    226 H226       -5.0836  -18.9774  -54.6979 H         1 UNK         0.0600 
    227 H227       -7.2575  -20.9765  -53.8829 H         1 UNK         0.0600 
    228 H228       -6.8258  -19.5039  -53.0156 H         1 UNK         0.0600 
    229 H229       -7.5457  -19.4016  -54.6155 H         1 UNK         0.0600 
    230 H230       -5.1074  -22.4514  -55.4248 H         1 UNK         0.3000 
    231 H231       -6.0683  -22.1821  -58.1483 H         1 UNK         0.0600 
    232 H232       -4.5604  -24.4846  -56.8027 H         1 UNK         0.0600 
    233 H233       -5.4454  -24.5587  -58.3186 H         1 UNK         0.0600 
    234 H234       -6.3140  -24.2920  -56.8144 H         1 UNK         0.0600 
    235 H235       -2.9512  -21.8246  -56.5616 H         1 UNK         0.3000 
    236 H236       -1.3919  -21.9709  -59.0537 H         1 UNK         0.0600 
    237 H237       -0.5331  -21.1383  -56.2329 H         1 UNK         0.0600 
    238 H238       -0.3943  -22.7636  -56.9014 H         1 UNK         0.0600 
    239 H239        0.5177  -21.4377  -57.6063 H         1 UNK         0.0600 
    240 H240       -2.6934  -19.5267  -56.7749 H         1 UNK         0.3000 
    241 H241       -1.7189  -17.2204  -58.1278 H         1 UNK         0.0600 
    242 H242       -5.2810  -18.1410  -60.0453 H         1 UNK         0.3800 
    243 H243       -4.9398  -18.9267  -58.5213 H         1 UNK         0.3800 
    244 H244       -4.2285  -17.4567  -56.4023 H         1 UNK         0.0800 
    245 H245       -3.4683  -15.9613  -56.8849 H         1 UNK         0.0800 
    246 H246       -3.6043  -15.3167  -54.3025 H         1 UNK         0.0800 
    247 H247       -4.2593  -16.8950  -53.9503 H         1 UNK         0.0800 
@<TRIPOS>BOND
     1    1    2 1    
     2    1  127 1    
     3    1  128 1    
     4    1  129 1    
     5    2    3 2    
     6    2    4 am   BACKBONE|DICT|INTERRES
     7    4    5 1    
     8    4  130 1    
     9    5    6 1    
    10    5   65 1    
    11    5  131 1    
    12    6    7 1    
    13    6  132 1    
    14    6  133 1    
    15    7    8 1    
    16    8    9 1    
    17    8  134 1    
    18    8  135 1    
    19    9   10 ar   
    20    9   14 ar   
    21   10   11 ar   
    22   10  136 1    
    23   11   12 ar   
    24   11  126 1    
    25   12   13 ar   
    26   12  137 1    
    27   13   14 ar   
    28   13   15 1    
    29   14  138 1    
    30   15   16 1    
    31   15  139 1    
    32   15  140 1    
    33   16   17 1    
    34   17   18 1    
    35   17  141 1    
    36   17  142 1    
    37   18   19 1    
    38   18   67 1    
    39   18  143 1    
    40   19   20 am   BACKBONE|DICT|INTERRES
    41   19  144 1    
    42   20   21 2    
    43   20   22 1    
    44   22   23 1    
    45   22   24 1    
    46   22  145 1    
    47   23  146 1    
    48   23  147 1    
    49   23  148 1    
    50   24   25 am   BACKBONE|DICT|INTERRES
    51   24  149 1    
    52   25   26 2    
    53   25   27 1    
    54   27   28 1    
    55   27   29 1    
    56   27  150 1    
    57   28  151 1    
    58   28  152 1    
    59   28  153 1    
    60   29   30 am   BACKBONE|DICT|INTERRES
    61   29  154 1    
    62   30   31 2    
    63   30   32 1    
    64   32   33 1    
    65   32   34 1    
    66   32  155 1    
    67   33  156 1    
    68   33  157 1    
    69   33  158 1    
    70   34   35 am   BACKBONE|DICT|INTERRES
    71   34  159 1    
    72   35   36 2    
    73   35   37 1    
    74   37   38 1    
    75   37   39 1    
    76   37  160 1    
    77   38  161 1    
    78   38  162 1    
    79   38  163 1    
    80   39   40 am   BACKBONE|DICT|INTERRES
    81   39  164 1    
    82   40   41 2    
    83   40   42 1    
    84   42   43 1    
    85   42   44 1    
    86   42  165 1    
    87   43  166 1    
    88   43  167 1    
    89   43  168 1    
    90   44   45 am   BACKBONE|DICT|INTERRES
    91   44  169 1    
    92   45   46 2    
    93   45   47 1    
    94   47   48 1    
    95   47   49 1    
    96   47  170 1    
    97   48  171 1    
    98   48  172 1    
    99   48  173 1    
   100   49   50 am   BACKBONE|DICT|INTERRES
   101   49  174 1    
   102   50   51 2    
   103   50   52 1    
   104   52   53 1    
   105   52   54 1    
   106   52  175 1    
   107   53  176 1    
   108   53  177 1    
   109   53  178 1    
   110   54   55 am   BACKBONE|DICT|INTERRES
   111   54  179 1    
   112   55   56 2    
   113   55   57 1    
   114   57   58 1    
   115   57   59 1    
   116   57  180 1    
   117   58  181 1    
   118   58  182 1    
   119   58  183 1    
   120   59   60 am   BACKBONE|DICT|INTERRES
   121   59  184 1    
   122   60   61 2    
   123   60   62 1    
   124   62   63 1    
   125   62   64 1    
   126   62  185 1    
   127   63  186 1    
   128   63  187 1    
   129   63  188 1    
   130   64   65 am   BACKBONE|DICT|INTERRES
   131   64  189 1    
   132   65   66 2    
   133   67   68 2    
   134   67   69 am   BACKBONE|DICT|INTERRES
   135   69   70 1    
   136   69  190 1    
   137   70   71 1    
   138   70   72 1    
   139   70  191 1    
   140   71  192 1    
   141   71  193 1    
   142   71  194 1    
   143   72   73 2    
   144   72   74 am   BACKBONE|DICT|INTERRES
   145   74   75 1    
   146   74  195 1    
   147   75   76 1    
   148   75   77 1    
   149   75  196 1    
   150   76  197 1    
   151   76  198 1    
   152   76  199 1    
   153   77   78 2    
   154   77   79 am   BACKBONE|DICT|INTERRES
   155   79   80 1    
   156   79  200 1    
   157   80   81 1    
   158   80   82 1    
   159   80  201 1    
   160   81  202 1    
   161   81  203 1    
   162   81  204 1    
   163   82   83 2    
   164   82   84 am   BACKBONE|DICT|INTERRES
   165   84   85 1    
   166   84  205 1    
   167   85   86 1    
   168   85   87 1    
   169   85  206 1    
   170   86  207 1    
   171   86  208 1    
   172   86  209 1    
   173   87   88 2    
   174   87   89 am   BACKBONE|DICT|INTERRES
   175   89   90 1    
   176   89  210 1    
   177   90   91 1    
   178   90   92 1    
   179   90  211 1    
   180   91  212 1    
   181   91  213 1    
   182   91  214 1    
   183   92   93 2    
   184   92   94 am   BACKBONE|DICT|INTERRES
   185   94   95 1    
   186   94  215 1    
   187   95   96 1    
   188   95   97 1    
   189   95  216 1    
   190   96  217 1    
   191   96  218 1    
   192   96  219 1    
   193   97   98 2    
   194   97   99 am   BACKBONE|DICT|INTERRES
   195   99  100 1    
   196   99  220 1    
   197  100  101 1    
   198  100  102 1    
   199  100  221 1    
   200  101  222 1    
   201  101  223 1    
   202  101  224 1    
   203  102  103 2    
   204  102  104 am   BACKBONE|DICT|INTERRES
   205  104  105 1    
   206  104  225 1    
   207  105  106 1    
   208  105  107 1    
   209  105  226 1    
   210  106  227 1    
   211  106  228 1    
   212  106  229 1    
   213  107  108 2    
   214  107  109 am   BACKBONE|DICT|INTERRES
   215  109  110 1    
   216  109  230 1    
   217  110  111 1    
   218  110  112 1    
   219  110  231 1    
   220  111  232 1    
   221  111  233 1    
   222  111  234 1    
   223  112  113 2    
   224  112  114 am   BACKBONE|DICT|INTERRES
   225  114  115 1    
   226  114  235 1    
   227  115  116 1    
   228  115  117 1    
   229  115  236 1    
   230  116  237 1    
   231  116  238 1    
   232  116  239 1    
   233  117  118 2    
   234  117  119 am   BACKBONE|DICT|INTERRES
   235  119  120 1    
   236  119  240 1    
   237  120  121 1    
   238  120  124 1    
   239  120  241 1    
   240  121  122 am   BACKBONE|DICT|INTERRES
   241  121  123 2    
   242  122  242 1    
   243  122  243 1    
   244  124  125 1    
   245  124  244 1    
   246  124  245 1    
   247  125  126 1    
   248  126  246 1    
   249  126  247 1    
@<TRIPOS>SUBSTRUCTURE
     1 UNK         1 GROUP             0       ****    0 ROOT    
