@<TRIPOS>MOLECULE
3R540
247   249    1
SMALL
USER_CHARGES


@<TRIPOS>ATOM
      1 CA          7.5305  -11.4615  -46.7148 C.3       0 UNK        -0.1800 
      2 C           6.0732  -11.8253  -46.4758 C.2       0 UNK         0.5000 
      3 O           5.5140  -11.4638  -45.4407 O.2       0 UNK        -0.5000 
      4 N           5.4471  -12.5195  -47.4353 N.am      1 UNK        -0.5000 
      5 CA          4.0676  -13.0295  -47.3752 C.3       1 UNK         0.1400 
      6 C6          3.7260  -13.9216  -48.5912 C.3       23 UNK        -0.0398 
      7 S7          4.8761  -15.3252  -48.8196 S.3       23 UNK        -0.2404 
      8 C8          3.8486  -16.7567  -48.3394 C.3       23 UNK        -0.0205 
      9 C9          2.9868  -17.3354  -49.4645 C.ar      23 UNK        -0.0193 
     10 C10         2.2856  -16.5145  -50.3540 C.ar      23 UNK        -0.1150 
     11 C11         1.4415  -17.0601  -51.3208 C.ar      23 UNK        -0.0193 
     12 C12         1.2952  -18.4462  -51.4026 C.ar      23 UNK        -0.1150 
     13 C13         1.9920  -19.2924  -50.5351 C.ar      23 UNK        -0.0193 
     14 C14         2.8461  -18.7236  -49.5770 C.ar      23 UNK        -0.1150 
     15 C15         1.7756  -20.8035  -50.6798 C.3       23 UNK        -0.0205 
     16 S16         2.3762  -21.8481  -49.3048 S.3       23 UNK        -0.2404 
     17 C17         1.3715  -21.2201  -47.9188 C.3       23 UNK        -0.0398 
     18 CA          0.3429  -22.2252  -47.3543 C.3       11 UNK         0.1400 
     19 N          -0.1759  -21.7537  -46.0679 N.am      11 UNK        -0.5000 
     20 C          -0.9845  -22.4356  -45.2475 C.2       10 UNK         0.5000 
     21 O          -1.3688  -23.5817  -45.4647 O.2       10 UNK        -0.5000 
     22 CA         -1.4971  -21.6916  -44.0019 C.3       10 UNK         0.1400 
     23 CB         -0.4347  -21.6781  -42.8933 C.3       10 UNK        -0.1800 
     24 N          -1.9200  -20.3240  -44.3073 N.am      10 UNK        -0.5000 
     25 C          -2.9394  -20.0171  -45.1229 C.2       9 UNK         0.5000 
     26 O          -3.6655  -20.8601  -45.6514 O.2       9 UNK        -0.5000 
     27 CA         -3.1575  -18.5248  -45.4365 C.3       9 UNK         0.1400 
     28 CB         -3.9191  -17.8317  -44.2973 C.3       9 UNK        -0.1800 
     29 N          -1.9067  -17.8100  -45.6983 N.am      9 UNK        -0.5000 
     30 C          -1.0828  -18.0669  -46.7248 C.2       8 UNK         0.5000 
     31 O          -1.3128  -18.9135  -47.5875 O.2       8 UNK        -0.5000 
     32 CA          0.2499  -17.2940  -46.7570 C.3       8 UNK         0.1400 
     33 CB          0.0552  -15.8719  -47.3026 C.3       8 UNK        -0.1800 
     34 N           0.8930  -17.2381  -45.4423 N.am      8 UNK        -0.5000 
     35 C           1.3149  -18.3154  -44.7638 C.2       7 UNK         0.5000 
     36 O           1.2646  -19.4619  -45.2034 O.2       7 UNK        -0.5000 
     37 CA          1.8219  -18.0863  -43.3319 C.3       7 UNK         0.1400 
     38 CB          3.3000  -17.6692  -43.3315 C.3       7 UNK        -0.1800 
     39 N           1.0102  -17.0931  -42.6288 N.am      7 UNK        -0.5000 
     40 C          -0.2486  -17.3119  -42.2189 C.2       6 UNK         0.5000 
     41 O          -0.8305  -18.3884  -42.3503 O.2       6 UNK        -0.5000 
     42 CA         -0.9986  -16.1179  -41.5996 C.3       6 UNK         0.1400 
     43 CB         -0.6907  -16.0043  -40.0995 C.3       6 UNK        -0.1800 
     44 N          -0.6774  -14.8516  -42.2583 N.am      6 UNK        -0.5000 
     45 C          -0.9938  -14.5541  -43.5268 C.2       5 UNK         0.5000 
     46 O          -1.6549  -15.2941  -44.2543 O.2       5 UNK        -0.5000 
     47 CA         -0.4303  -13.2360  -44.0907 C.3       5 UNK         0.1400 
     48 CB         -1.4224  -12.0837  -43.8799 C.3       5 UNK        -0.1800 
     49 N           0.8639  -12.8697  -43.5110 N.am      5 UNK        -0.5000 
     50 C           1.9919  -13.5789  -43.6423 C.2       4 UNK         0.5000 
     51 O           2.0497  -14.6457  -44.2572 O.2       4 UNK        -0.5000 
     52 CA          3.2471  -12.9970  -42.9603 C.3       4 UNK         0.1400 
     53 CB          4.4989  -13.8667  -43.1715 C.3       4 UNK        -0.1800 
     54 N           3.5327  -11.6409  -43.4253 N.am      4 UNK        -0.5000 
     55 C           2.9347  -10.5216  -42.9962 C.2       3 UNK         0.5000 
     56 O           2.0486  -10.5079  -42.1406 O.2       3 UNK        -0.5000 
     57 CA          3.3684   -9.2117  -43.6712 C.3       3 UNK         0.1400 
     58 CB          4.7637   -8.7803  -43.1921 C.3       3 UNK        -0.1800 
     59 N           3.3793   -9.3760  -45.1229 N.am      3 UNK        -0.5000 
     60 C           2.3374   -9.1147  -45.9245 C.2       2 UNK         0.5000 
     61 O           1.2857   -8.6035  -45.5382 O.2       2 UNK        -0.5000 
     62 CA          2.4882   -9.5018  -47.4094 C.3       2 UNK         0.1400 
     63 CB          3.0714   -8.3316  -48.2158 C.3       2 UNK        -0.1800 
     64 N           3.3292  -10.6841  -47.6040 N.am      2 UNK        -0.5000 
     65 C           2.9944  -11.9262  -47.2254 C.2       1 UNK         0.5000 
     66 O           1.8913  -12.2182  -46.7657 O.2       1 UNK        -0.5000 
     67 C          -0.7896  -22.5328  -48.3596 C.2       11 UNK         0.5000 
     68 O          -0.7597  -23.5799  -49.0073 O.2       11 UNK        -0.5000 
     69 N          -1.7920  -21.6446  -48.4334 N.am      12 UNK        -0.5000 
     70 CA         -2.9916  -21.8078  -49.2557 C.3       12 UNK         0.1400 
     71 CB         -3.8336  -20.5241  -49.1956 C.3       12 UNK        -0.1800 
     72 C          -3.8384  -23.0317  -48.8587 C.2       12 UNK         0.5000 
     73 O          -4.3662  -23.7120  -49.7403 O.2       12 UNK        -0.5000 
     74 N          -3.9425  -23.2943  -47.5489 N.am      13 UNK        -0.5000 
     75 CA         -4.6187  -24.4648  -46.9903 C.3       13 UNK         0.1400 
     76 CB         -4.9246  -24.2171  -45.5059 C.3       13 UNK        -0.1800 
     77 C          -3.8031  -25.7582  -47.1745 C.2       13 UNK         0.5000 
     78 O          -4.3758  -26.7929  -47.5164 O.2       13 UNK        -0.5000 
     79 N          -2.4799  -25.6782  -46.9724 N.am      14 UNK        -0.5000 
     80 CA         -1.5304  -26.7872  -47.1141 C.3       14 UNK         0.1400 
     81 CB         -0.1437  -26.3446  -46.6241 C.3       14 UNK        -0.1800 
     82 C          -1.4377  -27.3520  -48.5436 C.2       14 UNK         0.5000 
     83 O          -1.0687  -28.5159  -48.7104 O.2       14 UNK        -0.5000 
     84 N          -1.8113  -26.5445  -49.5446 N.am      15 UNK        -0.5000 
     85 CA         -1.9716  -26.9226  -50.9474 C.3       15 UNK         0.1400 
     86 CB         -2.0119  -25.6398  -51.7955 C.3       15 UNK        -0.1800 
     87 C          -3.2155  -27.8142  -51.1658 C.2       15 UNK         0.5000 
     88 O          -4.1485  -27.4186  -51.8649 O.2       15 UNK        -0.5000 
     89 N          -3.2156  -28.9967  -50.5344 N.am      16 UNK        -0.5000 
     90 CA         -4.2060  -30.0769  -50.6325 C.3       16 UNK         0.1400 
     91 CB         -4.1010  -30.7535  -52.0152 C.3       16 UNK        -0.1800 
     92 C          -5.6550  -29.6586  -50.2929 C.2       16 UNK         0.5000 
     93 O          -6.5979  -30.2472  -50.8251 O.2       16 UNK        -0.5000 
     94 N          -5.8091  -28.6419  -49.4294 N.am      17 UNK        -0.5000 
     95 CA         -7.0688  -27.9969  -49.0387 C.3       17 UNK         0.1400 
     96 CB         -7.9690  -28.9716  -48.2504 C.3       17 UNK        -0.1800 
     97 C          -7.8078  -27.3091  -50.2090 C.2       17 UNK         0.5000 
     98 O          -9.0183  -27.0958  -50.1221 O.2       17 UNK        -0.5000 
     99 N          -7.0771  -26.9525  -51.2771 N.am      18 UNK        -0.5000 
    100 CA        -7.6206  -26.2945  -52.4678 C.3       18 UNK         0.1400 
    101 CB        -6.6424  -26.4830  -53.6379 C.3       18 UNK        -0.1800 
    102 C         -7.9168  -24.7969  -52.2604 C.2       18 UNK         0.5000 
    103 O         -8.6218  -24.2144  -53.0853 O.2       18 UNK        -0.5000 
    104 N         -7.3662  -24.2055  -51.1869 N.am      19 UNK        -0.5000 
    105 CA        -7.4030  -22.7802  -50.8441 C.3       19 UNK         0.1400 
    106 CB        -8.8414  -22.3062  -50.5486 C.3       19 UNK        -0.1800 
    107 C         -6.6874  -21.9434  -51.9213 C.2       19 UNK         0.5000 
    108 O         -7.2826  -21.0478  -52.5247 O.2       19 UNK        -0.5000 
    109 N         -5.4142  -22.2855  -52.1604 N.am      20 UNK        -0.5000 
    110 CA        -4.5313  -21.6855  -53.1631 C.3       20 UNK         0.1400 
    111 CB        -3.3725  -22.6591  -53.4420 C.3       20 UNK        -0.1800 
    112 C         -4.0418  -20.2820  -52.7452 C.2       20 UNK         0.5000 
    113 O         -2.8464  -20.0763  -52.5276 O.2       20 UNK        -0.5000 
    114 N         -4.9937  -19.3534  -52.6006 N.am      21 UNK        -0.5000 
    115 CA        -4.7867  -17.9545  -52.2352 C.3       21 UNK         0.1400 
    116 CB        -6.1574  -17.3081  -51.9816 C.3       21 UNK        -0.1800 
    117 C         -4.0020  -17.1691  -53.3034 C.2       21 UNK         0.5000 
    118 O         -3.9949  -17.5440  -54.4790 O.2       21 UNK        -0.5000 
    119 N         -3.3667  -16.0796  -52.8627 N.am      22 UNK        -0.5000 
    120 CA        -2.4449  -15.2548  -53.6621 C.3       22 UNK         0.1400 
    121 C         -3.1170  -14.3491  -54.7365 C.2       22 UNK         0.5000 
    122 N         -4.4367  -14.2102  -54.7634 N.am      22 UNK        -0.7600 
    123 O         -2.4256  -13.7632  -55.5652 O.2       22 UNK        -0.5000 
    124 C124       -1.4917  -14.4222  -52.7630 C.3       23 UNK        -0.0398 
    125 S125       -0.7348  -15.3842  -51.4075 S.3       23 UNK        -0.2404 
    126 C126        0.6786  -16.1419  -52.2608 C.3       23 UNK        -0.0205 
    127 H127        7.6532  -10.3786  -46.7007 H         1 UNK         0.0600 
    128 H128        8.1549  -11.8869  -45.9293 H         1 UNK         0.0600 
    129 H129        7.8893  -11.8336  -47.6747 H         1 UNK         0.0600 
    130 H130        5.9656  -12.7903  -48.2593 H         1 UNK         0.3000 
    131 H131        3.9963  -13.6500  -46.4799 H         1 UNK         0.0600 
    132 H132        2.7110  -14.3036  -48.4826 H         1 UNK         0.0800 
    133 H133        3.7320  -13.3327  -49.5102 H         1 UNK         0.0800 
    134 H134        4.5254  -17.5265  -47.9657 H         1 UNK         0.0800 
    135 H135        3.2106  -16.4866  -47.4970 H         1 UNK         0.0800 
    136 H136        2.3719  -15.4420  -50.3027 H         1 UNK         0.1150 
    137 H137        0.6300  -18.8691  -52.1430 H         1 UNK         0.1150 
    138 H138        3.3933  -19.3562  -48.8942 H         1 UNK         0.1150 
    139 H139        0.7108  -21.0023  -50.8146 H         1 UNK         0.0800 
    140 H140        2.2675  -21.1328  -51.5958 H         1 UNK         0.0800 
    141 H141        0.8789  -20.2882  -48.1961 H         1 UNK         0.0800 
    142 H142        2.0838  -20.9551  -47.1373 H         1 UNK         0.0800 
    143 H143        0.8657  -23.1625  -47.1549 H         1 UNK         0.0600 
    144 H144        0.1314  -20.8280  -45.7792 H         1 UNK         0.3000 
    145 H145       -2.3682  -22.2335  -43.6277 H         1 UNK         0.0600 
    146 H146       -0.8183  -21.2113  -41.9860 H         1 UNK         0.0600 
    147 H147       -0.1298  -22.6926  -42.6336 H         1 UNK         0.0600 
    148 H148        0.4598  -21.1344  -43.1965 H         1 UNK         0.0600 
    149 H149       -1.4015  -19.5744  -43.8607 H         1 UNK         0.3000 
    150 H150       -3.7689  -18.4629  -46.3390 H         1 UNK         0.0600 
    151 H151       -4.8692  -18.3308  -44.1024 H         1 UNK         0.0600 
    152 H152       -4.1413  -16.7939  -44.5466 H         1 UNK         0.0600 
    153 H153       -3.3484  -17.8367  -43.3686 H         1 UNK         0.0600 
    154 H154       -1.6716  -17.0543  -45.0610 H         1 UNK         0.3000 
    155 H155        0.9248  -17.8252  -47.4302 H         1 UNK         0.0600 
    156 H156       -0.2693  -15.9003  -48.3432 H         1 UNK         0.0600 
    157 H157        0.9820  -15.3012  -47.2640 H         1 UNK         0.0600 
    158 H158       -0.6968  -15.3186  -46.7410 H         1 UNK         0.0600 
    159 H159        1.0078  -16.3241  -45.0189 H         1 UNK         0.3000 
    160 H160        1.7427  -19.0315  -42.7908 H         1 UNK         0.0600 
    161 H161        3.6539  -17.4593  -42.3222 H         1 UNK         0.0600 
    162 H162        3.4756  -16.7852  -43.9435 H         1 UNK         0.0600 
    163 H163        3.9237  -18.4675  -43.7353 H         1 UNK         0.0600 
    164 H164        1.3976  -16.1642  -42.5513 H         1 UNK         0.3000 
    165 H165       -2.0690  -16.2996  -41.7167 H         1 UNK         0.0600 
    166 H166       -1.2732  -15.2074  -39.6367 H         1 UNK         0.0600 
    167 H167       -0.9390  -16.9307  -39.5797 H         1 UNK         0.0600 
    168 H168        0.3649  -15.7985  -39.9177 H         1 UNK         0.0600 
    169 H169       -0.1374  -14.1829  -41.7293 H         1 UNK         0.3000 
    170 H170       -0.2859  -13.3714  -45.1646 H         1 UNK         0.0600 
    171 H171       -2.3916  -12.3169  -44.3229 H         1 UNK         0.0600 
    172 H172       -1.5843  -11.8798  -42.8207 H         1 UNK         0.0600 
    173 H173       -1.0638  -11.1664  -44.3479 H         1 UNK         0.0600 
    174 H174        0.9130  -11.9952  -42.9999 H         1 UNK         0.3000 
    175 H175        3.0464  -12.9661  -41.8875 H         1 UNK         0.0600 
    176 H176        5.3695  -13.4285  -42.6833 H         1 UNK         0.0600 
    177 H177        4.3592  -14.8610  -42.7475 H         1 UNK         0.0600 
    178 H178        4.7365  -13.9874  -44.2284 H         1 UNK         0.0600 
    179 H179        4.2432  -11.5633  -44.1502 H         1 UNK         0.3000 
    180 H180        2.6597   -8.4308  -43.3872 H         1 UNK         0.0600 
    181 H181        5.5286   -9.5146  -43.4476 H         1 UNK         0.0600 
    182 H182        4.7808   -8.6512  -42.1093 H         1 UNK         0.0600 
    183 H183        5.0537   -7.8286  -43.6376 H         1 UNK         0.0600 
    184 H184        4.1845   -9.8519  -45.5117 H         1 UNK         0.3000 
    185 H185        1.4920   -9.7232  -47.7982 H         1 UNK         0.0600 
    186 H186        3.1179   -8.5692  -49.2788 H         1 UNK         0.0600 
    187 H187        2.4535   -7.4390  -48.1101 H         1 UNK         0.0600 
    188 H188        4.0782   -8.0752  -47.8837 H         1 UNK         0.0600 
    189 H189        4.2522  -10.5313  -47.9833 H         1 UNK         0.3000 
    190 H190       -1.7162  -20.7756  -47.9113 H         1 UNK         0.3000 
    191 H191       -2.6652  -21.9535  -50.2867 H         1 UNK         0.0600 
    192 H192       -4.1429  -20.2886  -48.1781 H         1 UNK         0.0600 
    193 H193       -4.7388  -20.6162  -49.7955 H         1 UNK         0.0600 
    194 H194       -3.2738  -19.6710  -49.5795 H         1 UNK         0.0600 
    195 H195       -3.5169  -22.6528  -46.8895 H         1 UNK         0.3000 
    196 H196       -5.5691  -24.5944  -47.5125 H         1 UNK         0.0600 
    197 H197       -4.0147  -24.0638  -44.9250 H         1 UNK         0.0600 
    198 H198       -5.4550  -25.0644  -45.0697 H         1 UNK         0.0600 
    199 H199       -5.5538  -23.3362  -45.3762 H         1 UNK         0.0600 
    200 H200       -2.0934  -24.8026  -46.6262 H         1 UNK         0.3000 
    201 H201       -1.8753  -27.5979  -46.4695 H         1 UNK         0.0600 
    202 H202        0.2409  -25.5119  -47.2126 H         1 UNK         0.0600 
    203 H203        0.5772  -27.1597  -46.6984 H         1 UNK         0.0600 
    204 H204       -0.1737  -26.0347  -45.5796 H         1 UNK         0.0600 
    205 H205       -2.0646  -25.5944  -49.3069 H         1 UNK         0.3000 
    206 H206       -1.0971  -27.4997  -51.2540 H         1 UNK         0.0600 
    207 H207       -1.1148  -25.0380  -51.6478 H         1 UNK         0.0600 
    208 H208       -2.0775  -25.8734  -52.8588 H         1 UNK         0.0600 
    209 H209       -2.8734  -25.0227  -51.5410 H         1 UNK         0.0600 
    210 H210       -2.4256  -29.1789  -49.9213 H         1 UNK         0.3000 
    211 H211       -3.9245  -30.8153  -49.8807 H         1 UNK         0.0600 
    212 H212       -4.4216  -30.0846  -52.8148 H         1 UNK         0.0600 
    213 H213       -4.7230  -31.6480  -52.0660 H         1 UNK         0.0600 
    214 H214       -3.0773  -31.0623  -52.2268 H         1 UNK         0.0600 
    215 H215       -4.9790  -28.2161  -49.0321 H         1 UNK         0.3000 
    216 H216       -6.7989  -27.1905  -48.3571 H         1 UNK         0.0600 
    217 H217       -7.4228  -29.4341  -47.4282 H         1 UNK         0.0600 
    218 H218       -8.8235  -28.4513  -47.8164 H         1 UNK         0.0600 
    219 H219       -8.3610  -29.7674  -48.8840 H         1 UNK         0.0600 
    220 H220       -6.0851  -27.1701  -51.2985 H         1 UNK         0.3000 
    221 H221       -8.5608  -26.7830  -52.7324 H         1 UNK         0.0600 
    222 H222       -5.7050  -25.9519  -53.4671 H         1 UNK         0.0600 
    223 H223       -6.4087  -27.5364  -53.7943 H         1 UNK         0.0600 
    224 H224       -7.0674  -26.1023  -54.5674 H         1 UNK         0.0600 
    225 H225       -6.7744  -24.7776  -50.6013 H         1 UNK         0.3000 
    226 H226       -6.8317  -22.6626  -49.9227 H         1 UNK         0.0600 
    227 H227       -9.3073  -22.9207  -49.7783 H         1 UNK         0.0600 
    228 H228       -8.8423  -21.2768  -50.1884 H         1 UNK         0.0600 
    229 H229       -9.4771  -22.3397  -51.4336 H         1 UNK         0.0600 
    230 H230       -5.0046  -23.0070  -51.5769 H         1 UNK         0.3000 
    231 H231       -5.0944  -21.5687  -54.0914 H         1 UNK         0.0600 
    232 H232       -3.7423  -23.6321  -53.7663 H         1 UNK         0.0600 
    233 H233       -2.7532  -22.8129  -52.5583 H         1 UNK         0.0600 
    234 H234       -2.7250  -22.2781  -54.2326 H         1 UNK         0.0600 
    235 H235       -5.9526  -19.6443  -52.7641 H         1 UNK         0.3000 
    236 H236       -4.2131  -17.9364  -51.3061 H         1 UNK         0.0600 
    237 H237       -6.0521  -16.2708  -51.6614 H         1 UNK         0.0600 
    238 H238       -6.7759  -17.3143  -52.8801 H         1 UNK         0.0600 
    239 H239       -6.7019  -17.8344  -51.1971 H         1 UNK         0.0600 
    240 H240       -3.4306  -15.8335  -51.8857 H         1 UNK         0.3000 
    241 H241       -1.8197  -15.9495  -54.2262 H         1 UNK         0.0600 
    242 H242       -4.8615  -13.6248  -55.4656 H         1 UNK         0.3800 
    243 H243       -5.0153  -14.6940  -54.0958 H         1 UNK         0.3800 
    244 H244       -0.6988  -13.9677  -53.3598 H         1 UNK         0.0800 
    245 H245       -2.0368  -13.5940  -52.3069 H         1 UNK         0.0800 
    246 H246        1.3437  -15.3619  -52.6346 H         1 UNK         0.0800 
    247 H247        0.3254  -16.6964  -53.1314 H         1 UNK         0.0800 
@<TRIPOS>BOND
     1    1    2 1    
     2    1  127 1    
     3    1  128 1    
     4    1  129 1    
     5    2    3 2    
     6    2    4 am   BACKBONE|DICT|INTERRES
     7    4    5 1    
     8    4  130 1    
     9    5    6 1    
    10    5   65 1    
    11    5  131 1    
    12    6    7 1    
    13    6  132 1    
    14    6  133 1    
    15    7    8 1    
    16    8    9 1    
    17    8  134 1    
    18    8  135 1    
    19    9   10 ar   
    20    9   14 ar   
    21   10   11 ar   
    22   10  136 1    
    23   11   12 ar   
    24   11  126 1    
    25   12   13 ar   
    26   12  137 1    
    27   13   14 ar   
    28   13   15 1    
    29   14  138 1    
    30   15   16 1    
    31   15  139 1    
    32   15  140 1    
    33   16   17 1    
    34   17   18 1    
    35   17  141 1    
    36   17  142 1    
    37   18   19 1    
    38   18   67 1    
    39   18  143 1    
    40   19   20 am   BACKBONE|DICT|INTERRES
    41   19  144 1    
    42   20   21 2    
    43   20   22 1    
    44   22   23 1    
    45   22   24 1    
    46   22  145 1    
    47   23  146 1    
    48   23  147 1    
    49   23  148 1    
    50   24   25 am   BACKBONE|DICT|INTERRES
    51   24  149 1    
    52   25   26 2    
    53   25   27 1    
    54   27   28 1    
    55   27   29 1    
    56   27  150 1    
    57   28  151 1    
    58   28  152 1    
    59   28  153 1    
    60   29   30 am   BACKBONE|DICT|INTERRES
    61   29  154 1    
    62   30   31 2    
    63   30   32 1    
    64   32   33 1    
    65   32   34 1    
    66   32  155 1    
    67   33  156 1    
    68   33  157 1    
    69   33  158 1    
    70   34   35 am   BACKBONE|DICT|INTERRES
    71   34  159 1    
    72   35   36 2    
    73   35   37 1    
    74   37   38 1    
    75   37   39 1    
    76   37  160 1    
    77   38  161 1    
    78   38  162 1    
    79   38  163 1    
    80   39   40 am   BACKBONE|DICT|INTERRES
    81   39  164 1    
    82   40   41 2    
    83   40   42 1    
    84   42   43 1    
    85   42   44 1    
    86   42  165 1    
    87   43  166 1    
    88   43  167 1    
    89   43  168 1    
    90   44   45 am   BACKBONE|DICT|INTERRES
    91   44  169 1    
    92   45   46 2    
    93   45   47 1    
    94   47   48 1    
    95   47   49 1    
    96   47  170 1    
    97   48  171 1    
    98   48  172 1    
    99   48  173 1    
   100   49   50 am   BACKBONE|DICT|INTERRES
   101   49  174 1    
   102   50   51 2    
   103   50   52 1    
   104   52   53 1    
   105   52   54 1    
   106   52  175 1    
   107   53  176 1    
   108   53  177 1    
   109   53  178 1    
   110   54   55 am   BACKBONE|DICT|INTERRES
   111   54  179 1    
   112   55   56 2    
   113   55   57 1    
   114   57   58 1    
   115   57   59 1    
   116   57  180 1    
   117   58  181 1    
   118   58  182 1    
   119   58  183 1    
   120   59   60 am   BACKBONE|DICT|INTERRES
   121   59  184 1    
   122   60   61 2    
   123   60   62 1    
   124   62   63 1    
   125   62   64 1    
   126   62  185 1    
   127   63  186 1    
   128   63  187 1    
   129   63  188 1    
   130   64   65 am   BACKBONE|DICT|INTERRES
   131   64  189 1    
   132   65   66 2    
   133   67   68 2    
   134   67   69 am   BACKBONE|DICT|INTERRES
   135   69   70 1    
   136   69  190 1    
   137   70   71 1    
   138   70   72 1    
   139   70  191 1    
   140   71  192 1    
   141   71  193 1    
   142   71  194 1    
   143   72   73 2    
   144   72   74 am   BACKBONE|DICT|INTERRES
   145   74   75 1    
   146   74  195 1    
   147   75   76 1    
   148   75   77 1    
   149   75  196 1    
   150   76  197 1    
   151   76  198 1    
   152   76  199 1    
   153   77   78 2    
   154   77   79 am   BACKBONE|DICT|INTERRES
   155   79   80 1    
   156   79  200 1    
   157   80   81 1    
   158   80   82 1    
   159   80  201 1    
   160   81  202 1    
   161   81  203 1    
   162   81  204 1    
   163   82   83 2    
   164   82   84 am   BACKBONE|DICT|INTERRES
   165   84   85 1    
   166   84  205 1    
   167   85   86 1    
   168   85   87 1    
   169   85  206 1    
   170   86  207 1    
   171   86  208 1    
   172   86  209 1    
   173   87   88 2    
   174   87   89 am   BACKBONE|DICT|INTERRES
   175   89   90 1    
   176   89  210 1    
   177   90   91 1    
   178   90   92 1    
   179   90  211 1    
   180   91  212 1    
   181   91  213 1    
   182   91  214 1    
   183   92   93 2    
   184   92   94 am   BACKBONE|DICT|INTERRES
   185   94   95 1    
   186   94  215 1    
   187   95   96 1    
   188   95   97 1    
   189   95  216 1    
   190   96  217 1    
   191   96  218 1    
   192   96  219 1    
   193   97   98 2    
   194   97   99 am   BACKBONE|DICT|INTERRES
   195   99  100 1    
   196   99  220 1    
   197  100  101 1    
   198  100  102 1    
   199  100  221 1    
   200  101  222 1    
   201  101  223 1    
   202  101  224 1    
   203  102  103 2    
   204  102  104 am   BACKBONE|DICT|INTERRES
   205  104  105 1    
   206  104  225 1    
   207  105  106 1    
   208  105  107 1    
   209  105  226 1    
   210  106  227 1    
   211  106  228 1    
   212  106  229 1    
   213  107  108 2    
   214  107  109 am   BACKBONE|DICT|INTERRES
   215  109  110 1    
   216  109  230 1    
   217  110  111 1    
   218  110  112 1    
   219  110  231 1    
   220  111  232 1    
   221  111  233 1    
   222  111  234 1    
   223  112  113 2    
   224  112  114 am   BACKBONE|DICT|INTERRES
   225  114  115 1    
   226  114  235 1    
   227  115  116 1    
   228  115  117 1    
   229  115  236 1    
   230  116  237 1    
   231  116  238 1    
   232  116  239 1    
   233  117  118 2    
   234  117  119 am   BACKBONE|DICT|INTERRES
   235  119  120 1    
   236  119  240 1    
   237  120  121 1    
   238  120  124 1    
   239  120  241 1    
   240  121  122 am   BACKBONE|DICT|INTERRES
   241  121  123 2    
   242  122  242 1    
   243  122  243 1    
   244  124  125 1    
   245  124  244 1    
   246  124  245 1    
   247  125  126 1    
   248  126  246 1    
   249  126  247 1    
@<TRIPOS>SUBSTRUCTURE
     1 UNK         1 GROUP             0       ****    0 ROOT    
