@<TRIPOS>MOLECULE
3R540
247   249    1
SMALL
USER_CHARGES


@<TRIPOS>ATOM
      1 CA         -2.6055  -13.5280  -47.1137 C.3       0 UNK        -0.1800 
      2 C          -1.3449  -13.5624  -47.9638 C.2       0 UNK         0.5000 
      3 O          -1.1701  -12.7124  -48.8369 O.2       0 UNK        -0.5000 
      4 N          -0.4613  -14.5343  -47.7096 N.am      1 UNK        -0.5000 
      5 CA          0.8152  -14.7026  -48.4046 C.3       1 UNK         0.1400 
      6 C6          1.3677  -16.1388  -48.2444 C.3       23 UNK        -0.0398 
      7 S7          2.5359  -16.5812  -49.5737 S.3       23 UNK        -0.2404 
      8 C8          1.4156  -17.1616  -50.8919 C.3       23 UNK        -0.0205 
      9 C9          0.7213  -18.4666  -50.5321 C.ar      23 UNK        -0.0193 
     10 C10        -0.6304  -18.4743  -50.1749 C.ar      23 UNK        -0.1150 
     11 C11        -1.2685  -19.6696  -49.8342 C.ar      23 UNK        -0.0193 
     12 C12        -0.5413  -20.8620  -49.8417 C.ar      23 UNK        -0.1150 
     13 C13         0.8087  -20.8680  -50.2029 C.ar      23 UNK        -0.0193 
     14 C14         1.4323  -19.6691  -50.5577 C.ar      23 UNK        -0.1150 
     15 C15         1.5936  -22.1700  -50.1846 C.3       23 UNK        -0.0205 
     16 S16         2.8958  -22.1932  -48.9106 S.3       23 UNK        -0.2404 
     17 C17         1.9691  -21.7596  -47.3990 C.3       23 UNK        -0.0398 
     18 CA          1.6165  -22.9642  -46.5001 C.3       11 UNK         0.1400 
     19 N           1.2599  -22.5105  -45.1572 N.am      11 UNK        -0.5000 
     20 C           1.2278  -23.2896  -44.0704 C.2       10 UNK         0.5000 
     21 O           1.5429  -24.4792  -44.0726 O.2       10 UNK        -0.5000 
     22 CA          0.7429  -22.6318  -42.7658 C.3       10 UNK         0.1400 
     23 CB          1.8971  -21.8925  -42.0728 C.3       10 UNK        -0.1800 
     24 N          -0.3738  -21.7074  -42.9738 N.am      10 UNK        -0.5000 
     25 C          -1.5887  -22.0740  -43.4068 C.2       9 UNK         0.5000 
     26 O          -1.9030  -23.2381  -43.6574 O.2       9 UNK        -0.5000 
     27 CA         -2.6157  -20.9482  -43.6312 C.3       9 UNK         0.1400 
     28 CB         -3.2256  -20.4922  -42.2973 C.3       9 UNK        -0.1800 
     29 N          -2.0641  -19.7911  -44.3391 N.am      9 UNK        -0.5000 
     30 C          -1.5511  -19.8315  -45.5764 C.2       8 UNK         0.5000 
     31 O          -1.4769  -20.8526  -46.2545 O.2       8 UNK        -0.5000 
     32 CA         -0.9754  -18.5229  -46.1398 C.3       8 UNK         0.1400 
     33 CB         -2.0987  -17.5592  -46.5554 C.3       8 UNK        -0.1800 
     34 N          -0.0569  -17.8689  -45.2078 N.am      8 UNK        -0.5000 
     35 C           1.0610  -18.4371  -44.7288 C.2       7 UNK         0.5000 
     36 O           1.4830  -19.5377  -45.0821 O.2       7 UNK        -0.5000 
     37 CA          1.7949  -17.6723  -43.6179 C.3       7 UNK         0.1400 
     38 CB          2.6618  -16.5529  -44.2108 C.3       7 UNK        -0.1800 
     39 N           0.8593  -17.1207  -42.6368 N.am      7 UNK        -0.5000 
     40 C           0.1275  -17.8664  -41.7944 C.2       6 UNK         0.5000 
     41 O           0.1916  -19.0940  -41.7338 O.2       6 UNK        -0.5000 
     42 CA         -0.8758  -17.1177  -40.8990 C.3       6 UNK         0.1400 
     43 CB         -0.1804  -16.5770  -39.6409 C.3       6 UNK        -0.1800 
     44 N          -1.5405  -16.0173  -41.5976 N.am      6 UNK        -0.5000 
     45 C          -2.3811  -16.1705  -42.6309 C.2       5 UNK         0.5000 
     46 O          -2.7166  -17.2649  -43.0818 O.2       5 UNK        -0.5000 
     47 CA         -2.8906  -14.8822  -43.3038 C.3       5 UNK         0.1400 
     48 CB         -4.1810  -14.3924  -42.6318 C.3       5 UNK        -0.1800 
     49 N          -1.8968  -13.8050  -43.2953 N.am      5 UNK        -0.5000 
     50 C          -0.7266  -13.8482  -43.9445 C.2       4 UNK         0.5000 
     51 O          -0.3840  -14.7883  -44.6682 O.2       4 UNK        -0.5000 
     52 CA          0.2077  -12.6463  -43.7370 C.3       4 UNK         0.1400 
     53 CB          1.6207  -13.0884  -43.3273 C.3       4 UNK        -0.1800 
     54 N           0.2763  -11.8582  -44.9640 N.am      4 UNK        -0.5000 
     55 C          -0.4772  -10.7756  -45.2071 C.2       3 UNK         0.5000 
     56 O          -1.2858  -10.3291  -44.3919 O.2       3 UNK        -0.5000 
     57 CA         -0.3613  -10.0863  -46.5855 C.3       3 UNK         0.1400 
     58 CB         -0.2269   -8.5540  -46.4645 C.3       3 UNK        -0.1800 
     59 N           0.6625  -10.6505  -47.4713 N.am      3 UNK        -0.5000 
     60 C           1.9993  -10.5704  -47.3696 C.2       2 UNK         0.5000 
     61 O           2.5886   -9.9261  -46.5011 O.2       2 UNK        -0.5000 
     62 CA          2.7973  -11.3953  -48.4083 C.3       2 UNK         0.1400 
     63 CB          4.2602  -11.6487  -47.9872 C.3       2 UNK        -0.1800 
     64 N           2.1217  -12.6558  -48.7509 N.am      2 UNK        -0.5000 
     65 C           1.7865  -13.6276  -47.8891 C.2       1 UNK         0.5000 
     66 O           2.1230  -13.6412  -46.7051 O.2       1 UNK        -0.5000 
     67 C           0.5101  -23.8617  -47.0984 C.2       11 UNK         0.5000 
     68 O           0.8117  -24.9454  -47.6007 O.2       11 UNK        -0.5000 
     69 N          -0.7575  -23.4362  -46.9796 N.am      12 UNK        -0.5000 
     70 CA         -1.9374  -24.1581  -47.4650 C.3       12 UNK         0.1400 
     71 CB         -3.1910  -23.2863  -47.3109 C.3       12 UNK        -0.1800 
     72 C          -2.1534  -25.5346  -46.8132 C.2       12 UNK         0.5000 
     73 O          -2.7453  -26.4105  -47.4445 O.2       12 UNK        -0.5000 
     74 N          -1.6429  -25.7158  -45.5873 N.am      13 UNK        -0.5000 
     75 CA         -1.6103  -26.9959  -44.8800 C.3       13 UNK         0.1400 
     76 CB         -1.1513  -26.7667  -43.4324 C.3       13 UNK        -0.1800 
     77 C          -0.7285  -28.0560  -45.5735 C.2       13 UNK         0.5000 
     78 O          -0.9955  -29.2478  -45.4128 O.2       13 UNK        -0.5000 
     79 N           0.2813  -27.6193  -46.3427 N.am      14 UNK        -0.5000 
     80 CA          1.0619  -28.4801  -47.2293 C.3       14 UNK         0.1400 
     81 CB          2.4755  -27.9054  -47.4215 C.3       14 UNK        -0.1800 
     82 C           0.3260  -28.6527  -48.5688 C.2       14 UNK         0.5000 
     83 O           0.0036  -29.7816  -48.9411 O.2       14 UNK        -0.5000 
     84 N           0.0368  -27.5322  -49.2426 N.am      15 UNK        -0.5000 
     85 CA         -0.7467  -27.4573  -50.4745 C.3       15 UNK         0.1400 
     86 CB          0.0350  -28.0433  -51.6665 C.3       15 UNK        -0.1800 
     87 C          -1.0966  -25.9880  -50.7361 C.2       15 UNK         0.5000 
     88 O          -0.2208  -25.1332  -50.6095 O.2       15 UNK        -0.5000 
     89 N          -2.3566  -25.7104  -51.0901 N.am      16 UNK        -0.5000 
     90 CA         -2.8493  -24.3652  -51.3959 C.3       16 UNK         0.1400 
     91 CB         -4.3847  -24.3935  -51.4358 C.3       16 UNK        -0.1800 
     92 C          -2.2820  -23.8145  -52.7177 C.2       16 UNK         0.5000 
     93 O          -2.0553  -24.5783  -53.6600 O.2       16 UNK        -0.5000 
     94 N          -2.1003  -22.4912  -52.7653 N.am      17 UNK        -0.5000 
     95 CA         -1.7359  -21.7382  -53.9612 C.3       17 UNK         0.1400 
     96 CB         -1.0442  -20.4346  -53.5278 C.3       17 UNK        -0.1800 
     97 C          -2.9744  -21.4358  -54.8261 C.2       17 UNK         0.5000 
     98 O          -4.1118  -21.5889  -54.3754 O.2       17 UNK        -0.5000 
     99 N          -2.7240  -20.9792  -56.0582 N.am      18 UNK        -0.5000 
    100 CA        -3.7476  -20.5793  -57.0283 C.3       18 UNK         0.1400 
    101 CB        -3.1689  -20.7614  -58.4420 C.3       18 UNK        -0.1800 
    102 C         -4.2588  -19.1347  -56.8276 C.2       18 UNK         0.5000 
    103 O         -5.1021  -18.6838  -57.6047 O.2       18 UNK        -0.5000 
    104 N         -3.7357  -18.4234  -55.8228 N.am      19 UNK        -0.5000 
    105 CA        -4.0433  -17.0325  -55.5073 C.3       19 UNK         0.1400 
    106 CB        -3.1077  -16.1146  -56.3183 C.3       19 UNK        -0.1800 
    107 C         -3.9033  -16.8004  -53.9933 C.2       19 UNK         0.5000 
    108 O         -3.5365  -17.7222  -53.2607 O.2       19 UNK        -0.5000 
    109 N         -4.1879  -15.5623  -53.5662 N.am      20 UNK        -0.5000 
    110 CA        -4.1915  -15.0752  -52.1826 C.3       20 UNK         0.1400 
    111 CB        -2.7976  -15.2181  -51.5299 C.3       20 UNK        -0.1800 
    112 C         -5.3389  -15.6862  -51.3488 C.2       20 UNK         0.5000 
    113 O         -6.3561  -16.0960  -51.9143 O.2       20 UNK        -0.5000 
    114 N         -5.1795  -15.6971  -50.0175 N.am      21 UNK        -0.5000 
    115 CA        -6.2054  -16.0534  -49.0293 C.3       21 UNK         0.1400 
    116 CB        -5.6327  -15.8378  -47.6191 C.3       21 UNK        -0.1800 
    117 C         -6.7877  -17.4751  -49.1596 C.2       21 UNK         0.5000 
    118 O         -7.9256  -17.6967  -48.7435 O.2       21 UNK        -0.5000 
    119 N         -6.0110  -18.3999  -49.7340 N.am      22 UNK        -0.5000 
    120 CA        -6.4298  -19.7747  -50.0430 C.3       22 UNK         0.1400 
    121 C         -7.0436  -19.9522  -51.4647 C.2       22 UNK         0.5000 
    122 N         -7.1558  -18.9136  -52.2856 N.am      22 UNK        -0.7600 
    123 O         -7.4618  -21.0512  -51.8189 O.2       22 UNK        -0.5000 
    124 C124       -5.3049  -20.7948  -49.7326 C.3       23 UNK        -0.0398 
    125 S125       -3.7604  -20.5245  -50.6679 S.3       23 UNK        -0.2404 
    126 C126       -2.7329  -19.6780  -49.4310 C.3       23 UNK        -0.0205 
    127 H127       -2.7876  -14.4879  -46.6318 H         1 UNK         0.0600 
    128 H128       -3.4691  -13.2910  -47.7345 H         1 UNK         0.0600 
    129 H129       -2.5223  -12.7646  -46.3410 H         1 UNK         0.0600 
    130 H130       -0.5800  -15.0917  -46.8731 H         1 UNK         0.3000 
    131 H131        0.6278  -14.5300  -49.4669 H         1 UNK         0.0600 
    132 H132        1.8580  -16.2752  -47.2790 H         1 UNK         0.0800 
    133 H133        0.5525  -16.8598  -48.2547 H         1 UNK         0.0800 
    134 H134        0.6841  -16.3851  -51.1205 H         1 UNK         0.0800 
    135 H135        1.9952  -17.3079  -51.8044 H         1 UNK         0.0800 
    136 H136       -1.1809  -17.5469  -50.1491 H         1 UNK         0.1150 
    137 H137       -1.0280  -21.7846  -49.5583 H         1 UNK         0.1150 
    138 H138        2.4787  -19.6689  -50.8290 H         1 UNK         0.1150 
    139 H139        0.9267  -23.0110  -50.0066 H         1 UNK         0.0800 
    140 H140        2.0435  -22.3355  -51.1642 H         1 UNK         0.0800 
    141 H141        2.6280  -21.0879  -46.8479 H         1 UNK         0.0800 
    142 H142        1.0825  -21.1654  -47.6174 H         1 UNK         0.0800 
    143 H143        2.5145  -23.5786  -46.4043 H         1 UNK         0.0600 
    144 H144        1.0250  -21.5276  -45.0617 H         1 UNK         0.3000 
    145 H145        0.3997  -23.4277  -42.1016 H         1 UNK         0.0600 
    146 H146        1.5880  -21.5012  -41.1034 H         1 UNK         0.0600 
    147 H147        2.7425  -22.5596  -41.8999 H         1 UNK         0.0600 
    148 H148        2.2548  -21.0545  -42.6725 H         1 UNK         0.0600 
    149 H149       -0.2032  -20.7308  -42.7512 H         1 UNK         0.3000 
    150 H150       -3.4194  -21.3557  -44.2477 H         1 UNK         0.0600 
    151 H151       -3.6612  -21.3341  -41.7579 H         1 UNK         0.0600 
    152 H152       -4.0191  -19.7619  -42.4566 H         1 UNK         0.0600 
    153 H153       -2.4780  -20.0360  -41.6479 H         1 UNK         0.0600 
    154 H154       -2.1217  -18.8963  -43.8600 H         1 UNK         0.3000 
    155 H155       -0.4094  -18.7882  -47.0354 H         1 UNK         0.0600 
    156 H156       -1.7511  -16.8492  -47.3019 H         1 UNK         0.0600 
    157 H157       -2.4902  -16.9981  -45.7092 H         1 UNK         0.0600 
    158 H158       -2.9390  -18.0951  -46.9963 H         1 UNK         0.0600 
    159 H159       -0.3219  -16.9569  -44.8558 H         1 UNK         0.3000 
    160 H160        2.4527  -18.3746  -43.1013 H         1 UNK         0.0600 
    161 H161        2.0695  -15.8519  -44.7981 H         1 UNK         0.0600 
    162 H162        3.4245  -16.9639  -44.8732 H         1 UNK         0.0600 
    163 H163        3.1763  -15.9919  -43.4306 H         1 UNK         0.0600 
    164 H164        0.7140  -16.1230  -42.6570 H         1 UNK         0.3000 
    165 H165       -1.6408  -17.8318  -40.5867 H         1 UNK         0.0600 
    166 H166        0.5805  -15.8351  -39.8862 H         1 UNK         0.0600 
    167 H167       -0.8970  -16.1123  -38.9634 H         1 UNK         0.0600 
    168 H168        0.3103  -17.3813  -39.0910 H         1 UNK         0.0600 
    169 H169       -1.3248  -15.0818  -41.2871 H         1 UNK         0.3000 
    170 H170       -3.1220  -15.1218  -44.3426 H         1 UNK         0.0600 
    171 H171       -4.9460  -15.1700  -42.6433 H         1 UNK         0.0600 
    172 H172       -4.0134  -14.1115  -41.5913 H         1 UNK         0.0600 
    173 H173       -4.5918  -13.5269  -43.1521 H         1 UNK         0.0600 
    174 H174       -2.1228  -12.9875  -42.7465 H         1 UNK         0.3000 
    175 H175       -0.1814  -12.0380  -42.9177 H         1 UNK         0.0600 
    176 H176        2.2431  -12.2265  -43.0867 H         1 UNK         0.0600 
    177 H177        1.5936  -13.7270  -42.4437 H         1 UNK         0.0600 
    178 H178        2.1216  -13.6416  -44.1192 H         1 UNK         0.0600 
    179 H179        0.8984  -12.2136  -45.6810 H         1 UNK         0.3000 
    180 H180       -1.3100  -10.2838  -47.0867 H         1 UNK         0.0600 
    181 H181       -0.1529   -8.0847  -47.4454 H         1 UNK         0.0600 
    182 H182       -1.0970   -8.1245  -45.9667 H         1 UNK         0.0600 
    183 H183        0.6501   -8.2655  -45.8851 H         1 UNK         0.0600 
    184 H184        0.2891  -11.2392  -48.2079 H         1 UNK         0.3000 
    185 H185        2.8162  -10.7972  -49.3204 H         1 UNK         0.0600 
    186 H186        4.7895  -12.2373  -48.7364 H         1 UNK         0.0600 
    187 H187        4.8013  -10.7088  -47.8724 H         1 UNK         0.0600 
    188 H188        4.3250  -12.1793  -47.0368 H         1 UNK         0.0600 
    189 H189        1.7746  -12.7158  -49.6985 H         1 UNK         0.3000 
    190 H190       -0.9378  -22.5213  -46.5677 H         1 UNK         0.3000 
    191 H191       -1.7833  -24.3322  -48.5270 H         1 UNK         0.0600 
    192 H192       -4.0815  -23.8109  -47.6597 H         1 UNK         0.0600 
    193 H193       -3.1061  -22.3751  -47.8995 H         1 UNK         0.0600 
    194 H194       -3.3580  -23.0044  -46.2708 H         1 UNK         0.0600 
    195 H195       -1.2265  -24.9220  -45.1171 H         1 UNK         0.3000 
    196 H196       -2.6304  -27.3843  -44.8540 H         1 UNK         0.0600 
    197 H197       -1.1942  -27.6937  -42.8594 H         1 UNK         0.0600 
    198 H198       -1.7871  -26.0408  -42.9250 H         1 UNK         0.0600 
    199 H199       -0.1250  -26.4034  -43.3884 H         1 UNK         0.0600 
    200 H200        0.4126  -26.6207  -46.4596 H         1 UNK         0.3000 
    201 H201        1.1712  -29.4663  -46.7729 H         1 UNK         0.0600 
    202 H202        2.9881  -27.7972  -46.4656 H         1 UNK         0.0600 
    203 H203        2.4653  -26.9293  -47.9057 H         1 UNK         0.0600 
    204 H204        3.0801  -28.5684  -48.0415 H         1 UNK         0.0600 
    205 H205        0.3301  -26.6332  -48.8697 H         1 UNK         0.3000 
    206 H206       -1.6705  -28.0221  -50.3330 H         1 UNK         0.0600 
    207 H207        0.2229  -29.1094  -51.5419 H         1 UNK         0.0600 
    208 H208       -0.5240  -27.9227  -52.5954 H         1 UNK         0.0600 
    209 H209        0.9971  -27.5461  -51.7957 H         1 UNK         0.0600 
    210 H210       -3.0147  -26.4666  -51.2077 H         1 UNK         0.3000 
    211 H211       -2.5441  -23.6934  -50.5917 H         1 UNK         0.0600 
    212 H212       -4.7544  -25.0927  -52.1867 H         1 UNK         0.0600 
    213 H213       -4.7885  -23.4101  -51.6812 H         1 UNK         0.0600 
    214 H214       -4.7992  -24.6831  -50.4699 H         1 UNK         0.0600 
    215 H215       -2.3910  -21.9290  -51.9762 H         1 UNK         0.3000 
    216 H216       -1.0331  -22.3248  -54.5567 H         1 UNK         0.0600 
    217 H217       -0.7367  -19.8384  -54.3873 H         1 UNK         0.0600 
    218 H218       -0.1464  -20.6433  -52.9471 H         1 UNK         0.0600 
    219 H219       -1.6995  -19.8132  -52.9159 H         1 UNK         0.0600 
    220 H220       -1.7648  -20.8663  -56.3540 H         1 UNK         0.3000 
    221 H221       -4.6101  -21.2419  -56.9301 H         1 UNK         0.0600 
    222 H222       -2.3135  -20.1069  -58.6136 H         1 UNK         0.0600 
    223 H223       -2.8446  -21.7892  -58.6064 H         1 UNK         0.0600 
    224 H224       -3.9142  -20.5342  -59.2054 H         1 UNK         0.0600 
    225 H225       -3.1265  -18.8795  -55.1569 H         1 UNK         0.3000 
    226 H226       -5.0811  -16.8197  -55.7723 H         1 UNK         0.0600 
    227 H227       -3.2064  -16.2967  -57.3886 H         1 UNK         0.0600 
    228 H228       -3.3362  -15.0615  -56.1525 H         1 UNK         0.0600 
    229 H229       -2.0626  -16.2718  -56.0485 H         1 UNK         0.0600 
    230 H230       -4.5092  -14.8920  -54.2499 H         1 UNK         0.3000 
    231 H231       -4.4099  -14.0085  -52.2477 H         1 UNK         0.0600 
    232 H232       -2.7288  -14.6520  -50.6009 H         1 UNK         0.0600 
    233 H233       -2.0149  -14.8407  -52.1879 H         1 UNK         0.0600 
    234 H234       -2.5677  -16.2579  -51.3044 H         1 UNK         0.0600 
    235 H235       -4.3109  -15.3464  -49.6439 H         1 UNK         0.3000 
    236 H236       -7.0378  -15.3599  -49.1651 H         1 UNK         0.0600 
    237 H237       -4.7378  -16.4371  -47.4522 H         1 UNK         0.0600 
    238 H238       -5.3765  -14.7919  -47.4537 H         1 UNK         0.0600 
    239 H239       -6.3588  -16.1130  -46.8528 H         1 UNK         0.0600 
    240 H240       -5.1106  -18.1239  -50.0961 H         1 UNK         0.3000 
    241 H241       -7.2489  -20.0342  -49.3698 H         1 UNK         0.0600 
    242 H242       -6.8380  -17.9873  -52.0182 H         1 UNK         0.3800 
    243 H243       -7.5657  -19.0526  -53.1945 H         1 UNK         0.3800 
    244 H244       -5.0873  -20.7764  -48.6642 H         1 UNK         0.0800 
    245 H245       -5.6492  -21.8104  -49.9331 H         1 UNK         0.0800 
    246 H246       -3.1028  -18.6605  -49.3038 H         1 UNK         0.0800 
    247 H247       -2.8283  -20.1689  -48.4639 H         1 UNK         0.0800 
@<TRIPOS>BOND
     1    1    2 1    
     2    1  127 1    
     3    1  128 1    
     4    1  129 1    
     5    2    3 2    
     6    2    4 am   BACKBONE|DICT|INTERRES
     7    4    5 1    
     8    4  130 1    
     9    5    6 1    
    10    5   65 1    
    11    5  131 1    
    12    6    7 1    
    13    6  132 1    
    14    6  133 1    
    15    7    8 1    
    16    8    9 1    
    17    8  134 1    
    18    8  135 1    
    19    9   10 ar   
    20    9   14 ar   
    21   10   11 ar   
    22   10  136 1    
    23   11   12 ar   
    24   11  126 1    
    25   12   13 ar   
    26   12  137 1    
    27   13   14 ar   
    28   13   15 1    
    29   14  138 1    
    30   15   16 1    
    31   15  139 1    
    32   15  140 1    
    33   16   17 1    
    34   17   18 1    
    35   17  141 1    
    36   17  142 1    
    37   18   19 1    
    38   18   67 1    
    39   18  143 1    
    40   19   20 am   BACKBONE|DICT|INTERRES
    41   19  144 1    
    42   20   21 2    
    43   20   22 1    
    44   22   23 1    
    45   22   24 1    
    46   22  145 1    
    47   23  146 1    
    48   23  147 1    
    49   23  148 1    
    50   24   25 am   BACKBONE|DICT|INTERRES
    51   24  149 1    
    52   25   26 2    
    53   25   27 1    
    54   27   28 1    
    55   27   29 1    
    56   27  150 1    
    57   28  151 1    
    58   28  152 1    
    59   28  153 1    
    60   29   30 am   BACKBONE|DICT|INTERRES
    61   29  154 1    
    62   30   31 2    
    63   30   32 1    
    64   32   33 1    
    65   32   34 1    
    66   32  155 1    
    67   33  156 1    
    68   33  157 1    
    69   33  158 1    
    70   34   35 am   BACKBONE|DICT|INTERRES
    71   34  159 1    
    72   35   36 2    
    73   35   37 1    
    74   37   38 1    
    75   37   39 1    
    76   37  160 1    
    77   38  161 1    
    78   38  162 1    
    79   38  163 1    
    80   39   40 am   BACKBONE|DICT|INTERRES
    81   39  164 1    
    82   40   41 2    
    83   40   42 1    
    84   42   43 1    
    85   42   44 1    
    86   42  165 1    
    87   43  166 1    
    88   43  167 1    
    89   43  168 1    
    90   44   45 am   BACKBONE|DICT|INTERRES
    91   44  169 1    
    92   45   46 2    
    93   45   47 1    
    94   47   48 1    
    95   47   49 1    
    96   47  170 1    
    97   48  171 1    
    98   48  172 1    
    99   48  173 1    
   100   49   50 am   BACKBONE|DICT|INTERRES
   101   49  174 1    
   102   50   51 2    
   103   50   52 1    
   104   52   53 1    
   105   52   54 1    
   106   52  175 1    
   107   53  176 1    
   108   53  177 1    
   109   53  178 1    
   110   54   55 am   BACKBONE|DICT|INTERRES
   111   54  179 1    
   112   55   56 2    
   113   55   57 1    
   114   57   58 1    
   115   57   59 1    
   116   57  180 1    
   117   58  181 1    
   118   58  182 1    
   119   58  183 1    
   120   59   60 am   BACKBONE|DICT|INTERRES
   121   59  184 1    
   122   60   61 2    
   123   60   62 1    
   124   62   63 1    
   125   62   64 1    
   126   62  185 1    
   127   63  186 1    
   128   63  187 1    
   129   63  188 1    
   130   64   65 am   BACKBONE|DICT|INTERRES
   131   64  189 1    
   132   65   66 2    
   133   67   68 2    
   134   67   69 am   BACKBONE|DICT|INTERRES
   135   69   70 1    
   136   69  190 1    
   137   70   71 1    
   138   70   72 1    
   139   70  191 1    
   140   71  192 1    
   141   71  193 1    
   142   71  194 1    
   143   72   73 2    
   144   72   74 am   BACKBONE|DICT|INTERRES
   145   74   75 1    
   146   74  195 1    
   147   75   76 1    
   148   75   77 1    
   149   75  196 1    
   150   76  197 1    
   151   76  198 1    
   152   76  199 1    
   153   77   78 2    
   154   77   79 am   BACKBONE|DICT|INTERRES
   155   79   80 1    
   156   79  200 1    
   157   80   81 1    
   158   80   82 1    
   159   80  201 1    
   160   81  202 1    
   161   81  203 1    
   162   81  204 1    
   163   82   83 2    
   164   82   84 am   BACKBONE|DICT|INTERRES
   165   84   85 1    
   166   84  205 1    
   167   85   86 1    
   168   85   87 1    
   169   85  206 1    
   170   86  207 1    
   171   86  208 1    
   172   86  209 1    
   173   87   88 2    
   174   87   89 am   BACKBONE|DICT|INTERRES
   175   89   90 1    
   176   89  210 1    
   177   90   91 1    
   178   90   92 1    
   179   90  211 1    
   180   91  212 1    
   181   91  213 1    
   182   91  214 1    
   183   92   93 2    
   184   92   94 am   BACKBONE|DICT|INTERRES
   185   94   95 1    
   186   94  215 1    
   187   95   96 1    
   188   95   97 1    
   189   95  216 1    
   190   96  217 1    
   191   96  218 1    
   192   96  219 1    
   193   97   98 2    
   194   97   99 am   BACKBONE|DICT|INTERRES
   195   99  100 1    
   196   99  220 1    
   197  100  101 1    
   198  100  102 1    
   199  100  221 1    
   200  101  222 1    
   201  101  223 1    
   202  101  224 1    
   203  102  103 2    
   204  102  104 am   BACKBONE|DICT|INTERRES
   205  104  105 1    
   206  104  225 1    
   207  105  106 1    
   208  105  107 1    
   209  105  226 1    
   210  106  227 1    
   211  106  228 1    
   212  106  229 1    
   213  107  108 2    
   214  107  109 am   BACKBONE|DICT|INTERRES
   215  109  110 1    
   216  109  230 1    
   217  110  111 1    
   218  110  112 1    
   219  110  231 1    
   220  111  232 1    
   221  111  233 1    
   222  111  234 1    
   223  112  113 2    
   224  112  114 am   BACKBONE|DICT|INTERRES
   225  114  115 1    
   226  114  235 1    
   227  115  116 1    
   228  115  117 1    
   229  115  236 1    
   230  116  237 1    
   231  116  238 1    
   232  116  239 1    
   233  117  118 2    
   234  117  119 am   BACKBONE|DICT|INTERRES
   235  119  120 1    
   236  119  240 1    
   237  120  121 1    
   238  120  124 1    
   239  120  241 1    
   240  121  122 am   BACKBONE|DICT|INTERRES
   241  121  123 2    
   242  122  242 1    
   243  122  243 1    
   244  124  125 1    
   245  124  244 1    
   246  124  245 1    
   247  125  126 1    
   248  126  246 1    
   249  126  247 1    
@<TRIPOS>SUBSTRUCTURE
     1 UNK         1 GROUP             0       ****    0 ROOT    
