@<TRIPOS>MOLECULE
3R540
247   249    1
SMALL
USER_CHARGES


@<TRIPOS>ATOM
      1 CA         -3.4017  -14.0192  -45.5969 C.3       0 UNK        -0.1800 
      2 C          -3.2597  -14.1557  -47.1063 C.2       0 UNK         0.5000 
      3 O          -3.0943  -13.1510  -47.7968 O.2       0 UNK        -0.5000 
      4 N          -3.3336  -15.3907  -47.6203 N.am      1 UNK        -0.5000 
      5 CA         -3.1565  -15.7160  -49.0408 C.3       1 UNK         0.1400 
      6 C6         -3.7397  -17.1044  -49.3976 C.3       23 UNK        -0.0398 
      7 S7         -3.0759  -18.4855  -48.3972 S.3       23 UNK        -0.2404 
      8 C8         -2.5488  -19.6680  -49.6768 C.3       23 UNK        -0.0205 
      9 C9         -1.1192  -19.4404  -50.1388 C.ar      23 UNK        -0.0193 
     10 C10        -0.8489  -18.6470  -51.2540 C.ar      23 UNK        -0.1150 
     11 C11         0.4584  -18.5076  -51.7264 C.ar      23 UNK        -0.0193 
     12 C12         1.5011  -19.1565  -51.0590 C.ar      23 UNK        -0.1150 
     13 C13         1.2521  -19.9499  -49.9335 C.ar      23 UNK        -0.0193 
     14 C14        -0.0672  -20.0815  -49.4807 C.ar      23 UNK        -0.1150 
     15 C15         2.4361  -20.6317  -49.2429 C.3       23 UNK        -0.0205 
     16 S16         2.0469  -22.1682  -48.3318 S.3       23 UNK        -0.2404 
     17 C17         1.6203  -21.4886  -46.6957 C.3       23 UNK        -0.0398 
     18 CA          1.0947  -22.5373  -45.6804 C.3       11 UNK         0.1400 
     19 N           1.3884  -22.0887  -44.3175 N.am      11 UNK        -0.5000 
     20 C           1.6750  -22.8473  -43.2550 C.2       10 UNK         0.5000 
     21 O           1.6854  -24.0776  -43.2750 O.2       10 UNK        -0.5000 
     22 CA          1.9564  -22.0901  -41.9428 C.3       10 UNK         0.1400 
     23 CB          3.4067  -21.5849  -41.9018 C.3       10 UNK        -0.1800 
     24 N           1.0438  -20.9589  -41.7587 N.am      10 UNK        -0.5000 
     25 C          -0.2494  -21.0846  -41.4292 C.2       9 UNK         0.5000 
     26 O          -0.7815  -22.1638  -41.1695 O.2       9 UNK        -0.5000 
     27 CA         -1.0967  -19.7983  -41.4046 C.3       9 UNK         0.1400 
     28 CB         -0.9600  -19.0815  -40.0530 C.3       9 UNK        -0.1800 
     29 N          -0.7538  -18.8730  -42.4848 N.am      9 UNK        -0.5000 
     30 C          -0.9812  -19.1039  -43.7855 C.2       8 UNK         0.5000 
     31 O          -1.5716  -20.0949  -44.2105 O.2       8 UNK        -0.5000 
     32 CA         -0.4313  -18.0692  -44.7849 C.3       8 UNK         0.1400 
     33 CB         -1.4518  -16.9476  -45.0175 C.3       8 UNK        -0.1800 
     34 N           0.8451  -17.4844  -44.3686 N.am      8 UNK        -0.5000 
     35 C           1.9853  -18.1722  -44.2185 C.2       7 UNK         0.5000 
     36 O           2.0805  -19.3803  -44.4130 O.2       7 UNK        -0.5000 
     37 CA          3.2091  -17.3979  -43.7062 C.3       7 UNK         0.1400 
     38 CB          3.8839  -16.6043  -44.8361 C.3       7 UNK        -0.1800 
     39 N           2.8521  -16.5070  -42.6045 N.am      7 UNK        -0.5000 
     40 C           2.4836  -16.9301  -41.3863 C.2       6 UNK         0.5000 
     41 O           2.4741  -18.1135  -41.0455 O.2       6 UNK        -0.5000 
     42 CA          2.0011  -15.8482  -40.4026 C.3       6 UNK         0.1400 
     43 CB          3.1916  -15.2108  -39.6710 C.3       6 UNK        -0.1800 
     44 N           1.2212  -14.8005  -41.0656 N.am      6 UNK        -0.5000 
     45 C           0.0167  -14.9930  -41.6224 C.2       5 UNK         0.5000 
     46 O          -0.5844  -16.0659  -41.5934 O.2       5 UNK        -0.5000 
     47 CA         -0.5911  -13.8015  -42.3859 C.3       5 UNK         0.1400 
     48 CB         -1.3735  -12.8865  -41.4329 C.3       5 UNK        -0.1800 
     49 N           0.4126  -13.0136  -43.1084 N.am      5 UNK        -0.5000 
     50 C           1.1410  -13.4789  -44.1308 C.2       4 UNK         0.5000 
     51 O           1.0336  -14.6227  -44.5813 O.2       4 UNK        -0.5000 
     52 CA          2.2012  -12.5326  -44.7075 C.3       4 UNK         0.1400 
     53 CB          3.4630  -12.5250  -43.8264 C.3       4 UNK        -0.1800 
     54 N           2.5442  -12.9838  -46.0501 N.am      4 UNK        -0.5000 
     55 C           2.9997  -12.2147  -47.0450 C.2       3 UNK         0.5000 
     56 O           3.2478  -11.0149  -46.9163 O.2       3 UNK        -0.5000 
     57 CA          3.2209  -12.8861  -48.4193 C.3       3 UNK         0.1400 
     58 CB          4.7210  -13.1053  -48.6713 C.3       3 UNK        -0.1800 
     59 N           2.5266  -14.1664  -48.5953 N.am      3 UNK        -0.5000 
     60 C           1.1969  -14.3245  -48.6276 C.2       2 UNK         0.5000 
     61 O           0.4051  -13.3875  -48.5058 O.2       2 UNK        -0.5000 
     62 CA          0.6882  -15.7714  -48.7987 C.3       2 UNK         0.1400 
     63 CB          1.3755  -16.7396  -47.8194 C.3       2 UNK        -0.1800 
     64 N          -0.7528  -15.8602  -48.5909 N.am      2 UNK        -0.5000 
     65 C          -1.6910  -15.5899  -49.5056 C.2       1 UNK         0.5000 
     66 O          -1.4526  -15.2607  -50.6693 O.2       1 UNK        -0.5000 
     67 C          -0.4051  -22.8807  -45.8758 C.2       11 UNK         0.5000 
     68 O          -0.8997  -22.8719  -47.0042 O.2       11 UNK        -0.5000 
     69 N          -1.1185  -23.2000  -44.7847 N.am      12 UNK        -0.5000 
     70 CA         -2.5555  -23.4914  -44.7652 C.3       12 UNK         0.1400 
     71 CB         -3.0238  -23.6547  -43.3131 C.3       12 UNK        -0.1800 
     72 C          -2.9651  -24.7148  -45.6075 C.2       12 UNK         0.5000 
     73 O          -4.0912  -24.7592  -46.1008 O.2       12 UNK        -0.5000 
     74 N          -2.0373  -25.6604  -45.8088 N.am      13 UNK        -0.5000 
     75 CA         -2.2044  -26.8064  -46.7052 C.3       13 UNK         0.1400 
     76 CB         -1.0176  -27.7639  -46.5237 C.3       13 UNK        -0.1800 
     77 C          -2.3489  -26.3989  -48.1858 C.2       13 UNK         0.5000 
     78 O          -3.0500  -27.0785  -48.9346 O.2       13 UNK        -0.5000 
     79 N          -1.7095  -25.2870  -48.5752 N.am      14 UNK        -0.5000 
     80 CA         -1.8049  -24.7067  -49.9129 C.3       14 UNK         0.1400 
     81 CB         -0.5410  -23.8816  -50.1862 C.3       14 UNK        -0.1800 
     82 C          -3.0765  -23.8507  -50.0640 C.2       14 UNK         0.5000 
     83 O          -3.6458  -23.7961  -51.1556 O.2       14 UNK        -0.5000 
     84 N          -3.5290  -23.2340  -48.9613 N.am      15 UNK        -0.5000 
     85 CA         -4.8006  -22.5093  -48.8749 C.3       15 UNK         0.1400 
     86 CB         -4.8652  -21.7239  -47.5542 C.3       15 UNK        -0.1800 
     87 C          -6.0065  -23.4580  -48.9990 C.2       15 UNK         0.5000 
     88 O          -6.9837  -23.1216  -49.6670 O.2       15 UNK        -0.5000 
     89 N          -5.8900  -24.6432  -48.3834 N.am      16 UNK        -0.5000 
     90 CA         -6.8456  -25.7475  -48.4792 C.3       16 UNK         0.1400 
     91 CB         -6.5097  -26.7877  -47.3993 C.3       16 UNK        -0.1800 
     92 C          -6.8850  -26.4078  -49.8732 C.2       16 UNK         0.5000 
     93 O          -7.8773  -27.0620  -50.1969 O.2       16 UNK        -0.5000 
     94 N          -5.8186  -26.2282  -50.6651 N.am      17 UNK        -0.5000 
     95 CA         -5.7304  -26.6234  -52.0666 C.3       17 UNK         0.1400 
     96 CB         -4.2724  -26.9966  -52.4019 C.3       17 UNK        -0.1800 
     97 C          -6.3190  -25.5040  -52.9493 C.2       17 UNK         0.5000 
     98 O          -7.5373  -25.3181  -52.9459 O.2       17 UNK        -0.5000 
     99 N          -5.4715  -24.7871  -53.6986 N.am      18 UNK        -0.5000 
    100 CA        -5.8828  -23.7424  -54.6379 C.3       18 UNK         0.1400 
    101 CB        -6.4006  -24.3842  -55.9431 C.3       18 UNK        -0.1800 
    102 C         -4.7647  -22.7127  -54.8893 C.2       18 UNK         0.5000 
    103 O         -4.7022  -22.1436  -55.9802 O.2       18 UNK        -0.5000 
    104 N         -3.8928  -22.4756  -53.8963 N.am      19 UNK        -0.5000 
    105 CA        -2.7813  -21.5208  -54.0145 C.3       19 UNK         0.1400 
    106 CB        -1.6923  -21.8774  -52.9966 C.3       19 UNK        -0.1800 
    107 C         -3.1991  -20.0446  -53.8616 C.2       19 UNK         0.5000 
    108 O         -2.3825  -19.1647  -54.1340 O.2       19 UNK        -0.5000 
    109 N         -4.4408  -19.7958  -53.4186 N.am      20 UNK        -0.5000 
    110 CA        -5.0458  -18.4746  -53.2414 C.3       20 UNK         0.1400 
    111 CB        -6.4922  -18.6552  -52.7542 C.3       20 UNK        -0.1800 
    112 C         -4.9997  -17.6293  -54.5399 C.2       20 UNK         0.5000 
    113 O         -5.6215  -18.0332  -55.5230 O.2       20 UNK        -0.5000 
    114 N         -4.2907  -16.4937  -54.5903 N.am      21 UNK        -0.5000 
    115 CA        -3.4459  -15.8923  -53.5610 C.3       21 UNK         0.1400 
    116 CB        -4.3035  -14.9802  -52.6659 C.3       21 UNK        -0.1800 
    117 C         -2.3036  -15.1145  -54.2295 C.2       21 UNK         0.5000 
    118 O         -2.3950  -14.7822  -55.4147 O.2       21 UNK        -0.5000 
    119 N         -1.2556  -14.8441  -53.4484 N.am      22 UNK        -0.5000 
    120 CA        -0.0311  -14.1397  -53.8558 C.3       22 UNK         0.1400 
    121 C          0.3581  -12.9689  -52.9076 C.2       22 UNK         0.5000 
    122 N         -0.2087  -12.8587  -51.7123 N.am      22 UNK        -0.7600 
    123 O          1.1746  -12.1286  -53.2755 O.2       22 UNK        -0.5000 
    124 C124        1.1474  -15.1263  -54.0770 C.3       23 UNK        -0.0398 
    125 S125        1.5624  -16.1166  -52.5951 S.3       23 UNK        -0.2404 
    126 C126        0.7354  -17.6909  -52.9799 C.3       23 UNK        -0.0205 
    127 H127       -3.6687  -14.9649  -45.1252 H         1 UNK         0.0600 
    128 H128       -4.1764  -13.2913  -45.3559 H         1 UNK         0.0600 
    129 H129       -2.4620  -13.6731  -45.1669 H         1 UNK         0.0600 
    130 H130       -3.5044  -16.1804  -47.0143 H         1 UNK         0.3000 
    131 H131       -3.7234  -14.9776  -49.6111 H         1 UNK         0.0600 
    132 H132       -4.8212  -17.0878  -49.2572 H         1 UNK         0.0800 
    133 H133       -3.5882  -17.3083  -50.4566 H         1 UNK         0.0800 
    134 H134       -3.2380  -19.6521  -50.5220 H         1 UNK         0.0800 
    135 H135       -2.6150  -20.6711  -49.2598 H         1 UNK         0.0800 
    136 H136       -1.6602  -18.1593  -51.7712 H         1 UNK         0.1150 
    137 H137        2.5120  -19.0454  -51.4255 H         1 UNK         0.1150 
    138 H138       -0.2971  -20.6999  -48.6272 H         1 UNK         0.1150 
    139 H139        3.1845  -20.8872  -49.9944 H         1 UNK         0.0800 
    140 H140        2.9125  -19.9164  -48.5713 H         1 UNK         0.0800 
    141 H141        0.9303  -20.6492  -46.7865 H         1 UNK         0.0800 
    142 H142        2.5508  -21.0586  -46.3228 H         1 UNK         0.0800 
    143 H143        1.6441  -23.4663  -45.8454 H         1 UNK         0.0600 
    144 H144        1.4466  -21.0787  -44.2046 H         1 UNK         0.3000 
    145 H145        1.8177  -22.7883  -41.1146 H         1 UNK         0.0600 
    146 H146        3.6115  -20.8733  -42.7022 H         1 UNK         0.0600 
    147 H147        3.6242  -21.0909  -40.9545 H         1 UNK         0.0600 
    148 H148        4.1108  -22.4110  -42.0082 H         1 UNK         0.0600 
    149 H149        1.4164  -20.0343  -41.9340 H         1 UNK         0.3000 
    150 H150       -2.1420  -20.0884  -41.5297 H         1 UNK         0.0600 
    151 H151       -1.2316  -19.7439  -39.2302 H         1 UNK         0.0600 
    152 H152       -1.6153  -18.2119  -40.0005 H         1 UNK         0.0600 
    153 H153        0.0609  -18.7413  -39.8780 H         1 UNK         0.0600 
    154 H154       -0.3411  -17.9865  -42.2146 H         1 UNK         0.3000 
    155 H155       -0.2669  -18.5817  -45.7351 H         1 UNK         0.0600 
    156 H156       -1.0712  -16.2033  -45.7156 H         1 UNK         0.0600 
    157 H157       -2.3783  -17.3488  -45.4291 H         1 UNK         0.0600 
    158 H158       -1.7011  -16.4345  -44.0889 H         1 UNK         0.0600 
    159 H159        0.8609  -16.4781  -44.2279 H         1 UNK         0.3000 
    160 H160        3.9309  -18.1279  -43.3330 H         1 UNK         0.0600 
    161 H161        4.1753  -17.2654  -45.6533 H         1 UNK         0.0600 
    162 H162        4.7876  -16.1079  -44.4826 H         1 UNK         0.0600 
    163 H163        3.2275  -15.8427  -45.2535 H         1 UNK         0.0600 
    164 H164        2.7899  -15.5231  -42.8148 H         1 UNK         0.3000 
    165 H165        1.3619  -16.3328  -39.6614 H         1 UNK         0.0600 
    166 H166        2.8555  -14.4950  -38.9206 H         1 UNK         0.0600 
    167 H167        3.7822  -15.9685  -39.1542 H         1 UNK         0.0600 
    168 H168        3.8572  -14.6886  -40.3596 H         1 UNK         0.0600 
    169 H169        1.6421  -13.8856  -41.1283 H         1 UNK         0.3000 
    170 H170       -1.2921  -14.2063  -43.1177 H         1 UNK         0.0600 
    171 H171       -2.1397  -13.4471  -40.8956 H         1 UNK         0.0600 
    172 H172       -0.7221  -12.4250  -40.6898 H         1 UNK         0.0600 
    173 H173       -1.8792  -12.0897  -41.9787 H         1 UNK         0.0600 
    174 H174        0.5583  -12.0664  -42.7892 H         1 UNK         0.3000 
    175 H175        1.7751  -11.5283  -44.7561 H         1 UNK         0.0600 
    176 H176        3.9172  -13.5148  -43.7657 H         1 UNK         0.0600 
    177 H177        4.2135  -11.8391  -44.2196 H         1 UNK         0.0600 
    178 H178        3.2342  -12.2031  -42.8099 H         1 UNK         0.0600 
    179 H179        2.2979  -13.9458  -46.2405 H         1 UNK         0.3000 
    180 H180        2.8445  -12.1972  -49.1783 H         1 UNK         0.0600 
    181 H181        5.1505  -13.8052  -47.9533 H         1 UNK         0.0600 
    182 H182        5.2736  -12.1685  -48.5870 H         1 UNK         0.0600 
    183 H183        4.9007  -13.4964  -49.6729 H         1 UNK         0.0600 
    184 H184        3.1155  -14.9789  -48.7042 H         1 UNK         0.3000 
    185 H185        0.9151  -16.0946  -49.8143 H         1 UNK         0.0600 
    186 H186        0.9217  -17.7301  -47.8566 H         1 UNK         0.0600 
    187 H187        2.4319  -16.8676  -48.0559 H         1 UNK         0.0600 
    188 H188        1.3068  -16.3770  -46.7950 H         1 UNK         0.0600 
    189 H189       -1.0585  -16.0838  -47.6578 H         1 UNK         0.3000 
    190 H190       -0.6509  -23.1789  -43.8901 H         1 UNK         0.3000 
    191 H191       -3.0663  -22.6244  -45.1880 H         1 UNK         0.0600 
    192 H192       -2.4719  -24.4408  -42.7965 H         1 UNK         0.0600 
    193 H193       -4.0836  -23.9093  -43.2674 H         1 UNK         0.0600 
    194 H194       -2.8930  -22.7273  -42.7558 H         1 UNK         0.0600 
    195 H195       -1.1374  -25.5515  -45.3648 H         1 UNK         0.3000 
    196 H196       -3.1171  -27.3315  -46.4159 H         1 UNK         0.0600 
    197 H197       -1.1233  -28.6416  -47.1628 H         1 UNK         0.0600 
    198 H198       -0.9503  -28.1187  -45.4951 H         1 UNK         0.0600 
    199 H199       -0.0710  -27.2849  -46.7774 H         1 UNK         0.0600 
    200 H200       -1.1972  -24.7428  -47.8910 H         1 UNK         0.3000 
    201 H201       -1.8443  -25.5147  -50.6459 H         1 UNK         0.0600 
    202 H202        0.3589  -24.4186  -49.8863 H         1 UNK         0.0600 
    203 H203       -0.5562  -22.9314  -49.6538 H         1 UNK         0.0600 
    204 H204       -0.4365  -23.6619  -51.2457 H         1 UNK         0.0600 
    205 H205       -2.9851  -23.3107  -48.1127 H         1 UNK         0.3000 
    206 H206       -4.8389  -21.7978  -49.7025 H         1 UNK         0.0600 
    207 H207       -3.9451  -21.1733  -47.3623 H         1 UNK         0.0600 
    208 H208       -5.6798  -20.9996  -47.5786 H         1 UNK         0.0600 
    209 H209       -5.0404  -22.3759  -46.6990 H         1 UNK         0.0600 
    210 H210       -5.0894  -24.7924  -47.7761 H         1 UNK         0.3000 
    211 H211       -7.8422  -25.3509  -48.2754 H         1 UNK         0.0600 
    212 H212       -5.5171  -27.2137  -47.5482 H         1 UNK         0.0600 
    213 H213       -7.2259  -27.6102  -47.4110 H         1 UNK         0.0600 
    214 H214       -6.5381  -26.3459  -46.4030 H         1 UNK         0.0600 
    215 H215       -5.0611  -25.6598  -50.3152 H         1 UNK         0.3000 
    216 H216       -6.3394  -27.5146  -52.2316 H         1 UNK         0.0600 
    217 H217       -4.1809  -27.3254  -53.4378 H         1 UNK         0.0600 
    218 H218       -3.9301  -27.8192  -51.7735 H         1 UNK         0.0600 
    219 H219       -3.5829  -26.1671  -52.2538 H         1 UNK         0.0600 
    220 H220       -4.4806  -24.9774  -53.6414 H         1 UNK         0.3000 
    221 H221       -6.7021  -23.1755  -54.1908 H         1 UNK         0.0600 
    222 H222       -5.6163  -24.9506  -56.4462 H         1 UNK         0.0600 
    223 H223       -7.2328  -25.0620  -55.7533 H         1 UNK         0.0600 
    224 H224       -6.7624  -23.6281  -56.6410 H         1 UNK         0.0600 
    225 H225       -3.9891  -22.9539  -53.0053 H         1 UNK         0.3000 
    226 H226       -2.3408  -21.6226  -55.0087 H         1 UNK         0.0600 
    227 H227       -1.3581  -22.9037  -53.1415 H         1 UNK         0.0600 
    228 H228       -0.8196  -21.2324  -53.1090 H         1 UNK         0.0600 
    229 H229       -2.0461  -21.7668  -51.9719 H         1 UNK         0.0600 
    230 H230       -5.0389  -20.5884  -53.2435 H         1 UNK         0.3000 
    231 H231       -4.5119  -17.9881  -52.4317 H         1 UNK         0.0600 
    232 H232       -6.9721  -17.6886  -52.5953 H         1 UNK         0.0600 
    233 H233       -6.5263  -19.1933  -51.8065 H         1 UNK         0.0600 
    234 H234       -7.0962  -19.2073  -53.4755 H         1 UNK         0.0600 
    235 H235       -4.2281  -16.0039  -55.4735 H         1 UNK         0.3000 
    236 H236       -2.9622  -16.6616  -52.9609 H         1 UNK         0.0600 
    237 H237       -5.0320  -15.5523  -52.0919 H         1 UNK         0.0600 
    238 H238       -4.8495  -14.2441  -53.2572 H         1 UNK         0.0600 
    239 H239       -3.6892  -14.4278  -51.9553 H         1 UNK         0.0600 
    240 H240       -1.2778  -15.1299  -52.4715 H         1 UNK         0.3000 
    241 H241       -0.2191  -13.6534  -54.8147 H         1 UNK         0.0600 
    242 H242        0.0506  -12.0947  -51.1097 H         1 UNK         0.3800 
    243 H243       -0.8087  -13.5917  -51.3510 H         1 UNK         0.3800 
    244 H244        0.9126  -15.7969  -54.9045 H         1 UNK         0.0800 
    245 H245        2.0423  -14.5855  -54.3893 H         1 UNK         0.0800 
    246 H246       -0.1982  -17.4967  -53.5096 H         1 UNK         0.0800 
    247 H247        1.3591  -18.2683  -53.6636 H         1 UNK         0.0800 
@<TRIPOS>BOND
     1    1    2 1    
     2    1  127 1    
     3    1  128 1    
     4    1  129 1    
     5    2    3 2    
     6    2    4 am   BACKBONE|DICT|INTERRES
     7    4    5 1    
     8    4  130 1    
     9    5    6 1    
    10    5   65 1    
    11    5  131 1    
    12    6    7 1    
    13    6  132 1    
    14    6  133 1    
    15    7    8 1    
    16    8    9 1    
    17    8  134 1    
    18    8  135 1    
    19    9   10 ar   
    20    9   14 ar   
    21   10   11 ar   
    22   10  136 1    
    23   11   12 ar   
    24   11  126 1    
    25   12   13 ar   
    26   12  137 1    
    27   13   14 ar   
    28   13   15 1    
    29   14  138 1    
    30   15   16 1    
    31   15  139 1    
    32   15  140 1    
    33   16   17 1    
    34   17   18 1    
    35   17  141 1    
    36   17  142 1    
    37   18   19 1    
    38   18   67 1    
    39   18  143 1    
    40   19   20 am   BACKBONE|DICT|INTERRES
    41   19  144 1    
    42   20   21 2    
    43   20   22 1    
    44   22   23 1    
    45   22   24 1    
    46   22  145 1    
    47   23  146 1    
    48   23  147 1    
    49   23  148 1    
    50   24   25 am   BACKBONE|DICT|INTERRES
    51   24  149 1    
    52   25   26 2    
    53   25   27 1    
    54   27   28 1    
    55   27   29 1    
    56   27  150 1    
    57   28  151 1    
    58   28  152 1    
    59   28  153 1    
    60   29   30 am   BACKBONE|DICT|INTERRES
    61   29  154 1    
    62   30   31 2    
    63   30   32 1    
    64   32   33 1    
    65   32   34 1    
    66   32  155 1    
    67   33  156 1    
    68   33  157 1    
    69   33  158 1    
    70   34   35 am   BACKBONE|DICT|INTERRES
    71   34  159 1    
    72   35   36 2    
    73   35   37 1    
    74   37   38 1    
    75   37   39 1    
    76   37  160 1    
    77   38  161 1    
    78   38  162 1    
    79   38  163 1    
    80   39   40 am   BACKBONE|DICT|INTERRES
    81   39  164 1    
    82   40   41 2    
    83   40   42 1    
    84   42   43 1    
    85   42   44 1    
    86   42  165 1    
    87   43  166 1    
    88   43  167 1    
    89   43  168 1    
    90   44   45 am   BACKBONE|DICT|INTERRES
    91   44  169 1    
    92   45   46 2    
    93   45   47 1    
    94   47   48 1    
    95   47   49 1    
    96   47  170 1    
    97   48  171 1    
    98   48  172 1    
    99   48  173 1    
   100   49   50 am   BACKBONE|DICT|INTERRES
   101   49  174 1    
   102   50   51 2    
   103   50   52 1    
   104   52   53 1    
   105   52   54 1    
   106   52  175 1    
   107   53  176 1    
   108   53  177 1    
   109   53  178 1    
   110   54   55 am   BACKBONE|DICT|INTERRES
   111   54  179 1    
   112   55   56 2    
   113   55   57 1    
   114   57   58 1    
   115   57   59 1    
   116   57  180 1    
   117   58  181 1    
   118   58  182 1    
   119   58  183 1    
   120   59   60 am   BACKBONE|DICT|INTERRES
   121   59  184 1    
   122   60   61 2    
   123   60   62 1    
   124   62   63 1    
   125   62   64 1    
   126   62  185 1    
   127   63  186 1    
   128   63  187 1    
   129   63  188 1    
   130   64   65 am   BACKBONE|DICT|INTERRES
   131   64  189 1    
   132   65   66 2    
   133   67   68 2    
   134   67   69 am   BACKBONE|DICT|INTERRES
   135   69   70 1    
   136   69  190 1    
   137   70   71 1    
   138   70   72 1    
   139   70  191 1    
   140   71  192 1    
   141   71  193 1    
   142   71  194 1    
   143   72   73 2    
   144   72   74 am   BACKBONE|DICT|INTERRES
   145   74   75 1    
   146   74  195 1    
   147   75   76 1    
   148   75   77 1    
   149   75  196 1    
   150   76  197 1    
   151   76  198 1    
   152   76  199 1    
   153   77   78 2    
   154   77   79 am   BACKBONE|DICT|INTERRES
   155   79   80 1    
   156   79  200 1    
   157   80   81 1    
   158   80   82 1    
   159   80  201 1    
   160   81  202 1    
   161   81  203 1    
   162   81  204 1    
   163   82   83 2    
   164   82   84 am   BACKBONE|DICT|INTERRES
   165   84   85 1    
   166   84  205 1    
   167   85   86 1    
   168   85   87 1    
   169   85  206 1    
   170   86  207 1    
   171   86  208 1    
   172   86  209 1    
   173   87   88 2    
   174   87   89 am   BACKBONE|DICT|INTERRES
   175   89   90 1    
   176   89  210 1    
   177   90   91 1    
   178   90   92 1    
   179   90  211 1    
   180   91  212 1    
   181   91  213 1    
   182   91  214 1    
   183   92   93 2    
   184   92   94 am   BACKBONE|DICT|INTERRES
   185   94   95 1    
   186   94  215 1    
   187   95   96 1    
   188   95   97 1    
   189   95  216 1    
   190   96  217 1    
   191   96  218 1    
   192   96  219 1    
   193   97   98 2    
   194   97   99 am   BACKBONE|DICT|INTERRES
   195   99  100 1    
   196   99  220 1    
   197  100  101 1    
   198  100  102 1    
   199  100  221 1    
   200  101  222 1    
   201  101  223 1    
   202  101  224 1    
   203  102  103 2    
   204  102  104 am   BACKBONE|DICT|INTERRES
   205  104  105 1    
   206  104  225 1    
   207  105  106 1    
   208  105  107 1    
   209  105  226 1    
   210  106  227 1    
   211  106  228 1    
   212  106  229 1    
   213  107  108 2    
   214  107  109 am   BACKBONE|DICT|INTERRES
   215  109  110 1    
   216  109  230 1    
   217  110  111 1    
   218  110  112 1    
   219  110  231 1    
   220  111  232 1    
   221  111  233 1    
   222  111  234 1    
   223  112  113 2    
   224  112  114 am   BACKBONE|DICT|INTERRES
   225  114  115 1    
   226  114  235 1    
   227  115  116 1    
   228  115  117 1    
   229  115  236 1    
   230  116  237 1    
   231  116  238 1    
   232  116  239 1    
   233  117  118 2    
   234  117  119 am   BACKBONE|DICT|INTERRES
   235  119  120 1    
   236  119  240 1    
   237  120  121 1    
   238  120  124 1    
   239  120  241 1    
   240  121  122 am   BACKBONE|DICT|INTERRES
   241  121  123 2    
   242  122  242 1    
   243  122  243 1    
   244  124  125 1    
   245  124  244 1    
   246  124  245 1    
   247  125  126 1    
   248  126  246 1    
   249  126  247 1    
@<TRIPOS>SUBSTRUCTURE
     1 UNK         1 GROUP             0       ****    0 ROOT    
