@<TRIPOS>MOLECULE
3R540
247   249    1
SMALL
USER_CHARGES


@<TRIPOS>ATOM
      1 CA         -3.7835  -16.2727  -43.5493 C.3       0 UNK        -0.1800 
      2 C          -3.4185  -14.8759  -44.0281 C.2       0 UNK         0.5000 
      3 O          -4.0659  -13.9066  -43.6308 O.2       0 UNK        -0.5000 
      4 N          -2.3916  -14.7683  -44.8799 N.am      1 UNK        -0.5000 
      5 CA         -1.8505  -13.4931  -45.3617 C.3       1 UNK         0.1400 
      6 C6         -1.0187  -13.6676  -46.6598 C.3       23 UNK        -0.0398 
      7 S7         -2.0827  -13.6181  -48.1399 S.3       23 UNK        -0.2404 
      8 C8         -2.4478  -15.3775  -48.4133 C.3       23 UNK        -0.0205 
      9 C9         -1.4579  -16.0349  -49.3628 C.ar      23 UNK        -0.0193 
     10 C10        -1.6659  -15.9710  -50.7435 C.ar      23 UNK        -0.1150 
     11 C11        -0.8267  -16.6630  -51.6218 C.ar      23 UNK        -0.0193 
     12 C12         0.2357  -17.4141  -51.1108 C.ar      23 UNK        -0.1150 
     13 C13         0.4598  -17.4785  -49.7333 C.ar      23 UNK        -0.0193 
     14 C14        -0.3780  -16.7681  -48.8655 C.ar      23 UNK        -0.1150 
     15 C15         1.5649  -18.3699  -49.1797 C.3       23 UNK        -0.0205 
     16 S16         1.0632  -20.1245  -49.0978 S.3       23 UNK        -0.2404 
     17 C17        -0.5844  -19.9911  -48.3317 C.3       23 UNK        -0.0398 
     18 CA         -1.0566  -21.2795  -47.6256 C.3       11 UNK         0.1400 
     19 N          -0.3999  -21.4678  -46.3268 N.am      11 UNK        -0.5000 
     20 C          -0.6273  -22.4910  -45.4907 C.2       10 UNK         0.5000 
     21 O          -1.3623  -23.4402  -45.7565 O.2       10 UNK        -0.5000 
     22 CA          0.0191  -22.4167  -44.0970 C.3       10 UNK         0.1400 
     23 CB          1.4411  -22.9924  -44.1336 C.3       10 UNK        -0.1800 
     24 N           0.0363  -21.0642  -43.5324 N.am      10 UNK        -0.5000 
     25 C          -1.0526  -20.3199  -43.2834 C.2       9 UNK         0.5000 
     26 O          -2.2012  -20.6901  -43.5298 O.2       9 UNK        -0.5000 
     27 CA         -0.8207  -18.9204  -42.6874 C.3       9 UNK         0.1400 
     28 CB         -0.5837  -19.0011  -41.1722 C.3       9 UNK        -0.1800 
     29 N           0.3120  -18.2524  -43.3231 N.am      9 UNK        -0.5000 
     30 C           0.2511  -17.5812  -44.4815 C.2       8 UNK         0.5000 
     31 O          -0.7942  -17.3338  -45.0856 O.2       8 UNK        -0.5000 
     32 CA          1.5922  -17.1372  -45.0927 C.3       8 UNK         0.1400 
     33 CB          1.9395  -15.6965  -44.7064 C.3       8 UNK        -0.1800 
     34 N           2.7092  -18.0053  -44.7258 N.am      8 UNK        -0.5000 
     35 C           2.8643  -19.2682  -45.1447 C.2       7 UNK         0.5000 
     36 O           2.0607  -19.8511  -45.8710 O.2       7 UNK        -0.5000 
     37 CA          4.1058  -20.0139  -44.6205 C.3       7 UNK         0.1400 
     38 CB          5.3172  -19.7362  -45.5225 C.3       7 UNK        -0.1800 
     39 N           4.4422  -19.6660  -43.2378 N.am      7 UNK        -0.5000 
     40 C           3.6463  -19.8767  -42.1792 C.2       6 UNK         0.5000 
     41 O           2.5349  -20.3995  -42.2536 O.2       6 UNK        -0.5000 
     42 CA          4.1546  -19.3639  -40.8198 C.3       6 UNK         0.1400 
     43 CB          5.0322  -20.4232  -40.1370 C.3       6 UNK        -0.1800 
     44 N           4.8981  -18.1038  -40.9207 N.am      6 UNK        -0.5000 
     45 C           4.3671  -16.9445  -41.3298 C.2       5 UNK         0.5000 
     46 O           3.1955  -16.8185  -41.6954 O.2       5 UNK        -0.5000 
     47 CA          5.3088  -15.7351  -41.3766 C.3       5 UNK         0.1400 
     48 CB          6.0033  -15.6440  -42.7454 C.3       5 UNK        -0.1800 
     49 N           4.5224  -14.5264  -41.1591 N.am      5 UNK        -0.5000 
     50 C           4.8683  -13.4991  -40.3757 C.2       4 UNK         0.5000 
     51 O           5.9389  -13.4311  -39.7682 O.2       4 UNK        -0.5000 
     52 CA          3.8298  -12.3620  -40.2658 C.3       4 UNK         0.1400 
     53 CB          4.3548  -11.1228  -39.5099 C.3       4 UNK        -0.1800 
     54 N           3.2711  -11.9861  -41.5705 N.am      4 UNK        -0.5000 
     55 C           3.9311  -11.4776  -42.6246 C.2       3 UNK         0.5000 
     56 O           5.1350  -11.2185  -42.6243 O.2       3 UNK        -0.5000 
     57 CA          3.1147  -11.2256  -43.9086 C.3       3 UNK         0.1400 
     58 CB          3.5205  -12.2235  -45.0026 C.3       3 UNK        -0.1800 
     59 N           1.6692  -11.3278  -43.6916 N.am      3 UNK        -0.5000 
     60 C           0.8868  -10.3319  -43.2599 C.2       2 UNK         0.5000 
     61 O           1.3073   -9.1958  -43.0343 O.2       2 UNK        -0.5000 
     62 CA         -0.6074  -10.6650  -43.0413 C.3       2 UNK         0.1400 
     63 CB         -1.4746   -9.4035  -42.8754 C.3       2 UNK        -0.1800 
     64 N          -1.1909  -11.4940  -44.1019 N.am      2 UNK        -0.5000 
     65 C          -1.0350  -12.8165  -44.2406 C.2       1 UNK         0.5000 
     66 O          -0.2742  -13.4857  -43.5379 O.2       1 UNK        -0.5000 
     67 C          -2.5944  -21.2446  -47.5074 C.2       11 UNK         0.5000 
     68 O          -3.2759  -21.8821  -48.3100 O.2       11 UNK        -0.5000 
     69 N          -3.1141  -20.5116  -46.5130 N.am      12 UNK        -0.5000 
     70 CA         -4.5493  -20.3919  -46.2590 C.3       12 UNK         0.1400 
     71 CB         -4.8175  -19.1924  -45.3406 C.3       12 UNK        -0.1800 
     72 C          -5.1443  -21.6846  -45.6771 C.2       12 UNK         0.5000 
     73 O          -6.2484  -22.0657  -46.0648 O.2       12 UNK        -0.5000 
     74 N          -4.3876  -22.3575  -44.7981 N.am      13 UNK        -0.5000 
     75 CA         -4.7425  -23.6553  -44.2186 C.3       13 UNK         0.1400 
     76 CB         -3.7535  -24.0020  -43.0957 C.3       13 UNK        -0.1800 
     77 C          -4.7995  -24.7820  -45.2698 C.2       13 UNK         0.5000 
     78 O          -5.7129  -25.6070  -45.2302 O.2       13 UNK        -0.5000 
     79 N          -3.8423  -24.7756  -46.2073 N.am      14 UNK        -0.5000 
     80 CA         -3.7713  -25.6935  -47.3464 C.3       14 UNK         0.1400 
     81 CB         -2.3374  -25.6790  -47.9001 C.3       14 UNK        -0.1800 
     82 C          -4.7704  -25.3574  -48.4718 C.2       14 UNK         0.5000 
     83 O          -4.9953  -26.2008  -49.3404 O.2       14 UNK        -0.5000 
     84 N          -5.3226  -24.1348  -48.4498 N.am      15 UNK        -0.5000 
     85 CA         -6.1796  -23.5193  -49.4671 C.3       15 UNK         0.1400 
     86 CB         -7.5311  -24.2544  -49.5794 C.3       15 UNK        -0.1800 
     87 C          -5.4530  -23.3755  -50.8195 C.2       15 UNK         0.5000 
     88 O          -6.0245  -23.6763  -51.8697 O.2       15 UNK        -0.5000 
     89 N          -4.1953  -22.9107  -50.7663 N.am      16 UNK        -0.5000 
     90 CA         -3.2632  -22.7868  -51.8925 C.3       16 UNK         0.1400 
     91 CB         -1.9296  -22.2161  -51.3889 C.3       16 UNK        -0.1800 
     92 C          -3.7913  -21.9445  -53.0661 C.2       16 UNK         0.5000 
     93 O          -3.4571  -22.2359  -54.2145 O.2       16 UNK        -0.5000 
     94 N          -4.6459  -20.9577  -52.7655 N.am      17 UNK        -0.5000 
     95 CA         -5.3515  -20.1194  -53.7363 C.3       17 UNK         0.1400 
     96 CB         -6.1379  -19.0375  -52.9818 C.3       17 UNK        -0.1800 
     97 C          -6.2826  -20.9036  -54.6817 C.2       17 UNK         0.5000 
     98 O          -6.5043  -20.4573  -55.8071 O.2       17 UNK        -0.5000 
     99 N          -6.7905  -22.0535  -54.2207 N.am      18 UNK        -0.5000 
    100 CA        -7.6045  -22.9783  -55.0041 C.3       18 UNK         0.1400 
    101 CB        -8.8302  -23.3960  -54.1757 C.3       18 UNK        -0.1800 
    102 C         -6.7842  -24.2115  -55.4138 C.2       18 UNK         0.5000 
    103 O         -6.8398  -24.6178  -56.5744 O.2       18 UNK        -0.5000 
    104 N         -6.0392  -24.7851  -54.4584 N.am      19 UNK        -0.5000 
    105 CA        -5.3159  -26.0490  -54.6073 C.3       19 UNK         0.1400 
    106 CB        -4.8896  -26.5471  -53.2174 C.3       19 UNK        -0.1800 
    107 C         -4.0998  -25.9774  -55.5486 C.2       19 UNK         0.5000 
    108 O         -3.7880  -26.9755  -56.1997 O.2       19 UNK        -0.5000 
    109 N         -3.4351  -24.8170  -55.6003 N.am      20 UNK        -0.5000 
    110 CA        -2.2268  -24.5769  -56.3930 C.3       20 UNK         0.1400 
    111 CB        -1.0220  -24.5069  -55.4366 C.3       20 UNK        -0.1800 
    112 C         -2.3426  -23.2991  -57.2447 C.2       20 UNK         0.5000 
    113 O         -1.3304  -22.8317  -57.7702 O.2       20 UNK        -0.5000 
    114 N         -3.5539  -22.7243  -57.3328 N.am      21 UNK        -0.5000 
    115 CA        -3.8883  -21.4533  -57.9937 C.3       21 UNK         0.1400 
    116 CB        -3.7790  -21.6022  -59.5251 C.3       21 UNK        -0.1800 
    117 C         -3.0825  -20.2450  -57.4568 C.2       21 UNK         0.5000 
    118 O         -2.8604  -19.2766  -58.1854 O.2       21 UNK        -0.5000 
    119 N         -2.6369  -20.3404  -56.1969 N.am      22 UNK        -0.5000 
    120 CA        -1.6949  -19.4365  -55.5206 C.3       22 UNK         0.1400 
    121 C         -0.2462  -19.4418  -56.1032 C.2       22 UNK         0.5000 
    122 N          0.1439  -20.4182  -56.9154 N.am      22 UNK        -0.7600 
    123 O          0.5566  -18.5674  -55.7896 O.2       22 UNK        -0.5000 
    124 C124       -2.2799  -18.0069  -55.2900 C.3       23 UNK        -0.0398 
    125 S125       -2.5407  -17.6719  -53.5170 S.3       23 UNK        -0.2404 
    126 C126       -1.0977  -16.6406  -53.1170 C.3       23 UNK        -0.0205 
    127 H127       -3.5464  -16.3821  -42.4912 H         1 UNK         0.0600 
    128 H128       -4.8502  -16.4518  -43.6834 H         1 UNK         0.0600 
    129 H129       -3.2412  -17.0371  -44.1028 H         1 UNK         0.0600 
    130 H130       -1.8583  -15.6005  -45.1103 H         1 UNK         0.3000 
    131 H131       -2.6936  -12.8336  -45.5813 H         1 UNK         0.0600 
    132 H132       -0.4399  -14.5911  -46.6476 H         1 UNK         0.0800 
    133 H133       -0.2934  -12.8599  -46.7766 H         1 UNK         0.0800 
    134 H134       -3.4525  -15.4590  -48.8307 H         1 UNK         0.0800 
    135 H135       -2.4795  -15.9114  -47.4625 H         1 UNK         0.0800 
    136 H136       -2.5051  -15.4130  -51.1349 H         1 UNK         0.1150 
    137 H137        0.8703  -17.9762  -51.7818 H         1 UNK         0.1150 
    138 H138       -0.2253  -16.8294  -47.7981 H         1 UNK         0.1150 
    139 H139        2.4542  -18.2851  -49.8057 H         1 UNK         0.0800 
    140 H140        1.8651  -18.0402  -48.1869 H         1 UNK         0.0800 
    141 H141       -0.5842  -19.1703  -47.6134 H         1 UNK         0.0800 
    142 H142       -1.2692  -19.7004  -49.1317 H         1 UNK         0.0800 
    143 H143       -0.8036  -22.1384  -48.2503 H         1 UNK         0.0600 
    144 H144        0.2899  -20.7707  -46.0616 H         1 UNK         0.3000 
    145 H145       -0.5753  -23.0362  -43.4233 H         1 UNK         0.0600 
    146 H146        2.0726  -22.4510  -44.8364 H         1 UNK         0.0600 
    147 H147        1.9129  -22.9546  -43.1518 H         1 UNK         0.0600 
    148 H148        1.4276  -24.0367  -44.4480 H         1 UNK         0.0600 
    149 H149        0.9443  -20.7100  -43.2455 H         1 UNK         0.3000 
    150 H150       -1.7241  -18.3319  -42.8522 H         1 UNK         0.0600 
    151 H151       -0.4647  -18.0072  -40.7404 H         1 UNK         0.0600 
    152 H152        0.3082  -19.5794  -40.9295 H         1 UNK         0.0600 
    153 H153       -1.4286  -19.4750  -40.6711 H         1 UNK         0.0600 
    154 H154        1.2199  -18.4008  -42.9041 H         1 UNK         0.3000 
    155 H155        1.4838  -17.1715  -46.1755 H         1 UNK         0.0600 
    156 H156        1.2153  -14.9973  -45.1183 H         1 UNK         0.0600 
    157 H157        2.9166  -15.4191  -45.0999 H         1 UNK         0.0600 
    158 H158        1.9530  -15.5530  -43.6260 H         1 UNK         0.0600 
    159 H159        3.3827  -17.6238  -44.0776 H         1 UNK         0.3000 
    160 H160        3.8968  -21.0836  -44.6540 H         1 UNK         0.0600 
    161 H161        5.6003  -18.6830  -45.5059 H         1 UNK         0.0600 
    162 H162        5.1007  -20.0019  -46.5583 H         1 UNK         0.0600 
    163 H163        6.1826  -20.3221  -45.2124 H         1 UNK         0.0600 
    164 H164        5.3374  -19.2263  -43.0836 H         1 UNK         0.3000 
    165 H165        3.2804  -19.1876  -40.1893 H         1 UNK         0.0600 
    166 H166        5.9407  -20.6236  -40.7064 H         1 UNK         0.0600 
    167 H167        5.3255  -20.1068  -39.1359 H         1 UNK         0.0600 
    168 H168        4.4948  -21.3670  -40.0333 H         1 UNK         0.0600 
    169 H169        5.8692  -18.1304  -40.6439 H         1 UNK         0.3000 
    170 H170        6.0600  -15.8499  -40.5923 H         1 UNK         0.0600 
    171 H171        6.6020  -16.5339  -42.9436 H         1 UNK         0.0600 
    172 H172        5.2818  -15.5430  -43.5575 H         1 UNK         0.0600 
    173 H173        6.6735  -14.7852  -42.7879 H         1 UNK         0.0600 
    174 H174        3.5999  -14.5455  -41.5731 H         1 UNK         0.3000 
    175 H175        3.0006  -12.7677  -39.6844 H         1 UNK         0.0600 
    176 H176        3.5892  -10.3501  -39.4408 H         1 UNK         0.0600 
    177 H177        4.6456  -11.3824  -38.4913 H         1 UNK         0.0600 
    178 H178        5.2279  -10.6872  -39.9962 H         1 UNK         0.0600 
    179 H179        2.2849  -12.1662  -41.6901 H         1 UNK         0.3000 
    180 H180        3.3553  -10.2208  -44.2621 H         1 UNK         0.0600 
    181 H181        2.9305  -12.0855  -45.9089 H         1 UNK         0.0600 
    182 H182        4.5695  -12.0995  -45.2743 H         1 UNK         0.0600 
    183 H183        3.3918  -13.2501  -44.6656 H         1 UNK         0.0600 
    184 H184        1.2412  -12.2392  -43.8183 H         1 UNK         0.3000 
    185 H185       -0.6641  -11.2231  -42.1044 H         1 UNK         0.0600 
    186 H186       -2.5142   -9.6629  -42.6742 H         1 UNK         0.0600 
    187 H187       -1.1299   -8.7944  -42.0387 H         1 UNK         0.0600 
    188 H188       -1.4509   -8.7793  -43.7695 H         1 UNK         0.0600 
    189 H189       -1.8015  -11.0097  -44.7444 H         1 UNK         0.3000 
    190 H190       -2.4954  -20.0637  -45.8515 H         1 UNK         0.3000 
    191 H191       -5.0487  -20.1988  -47.2111 H         1 UNK         0.0600 
    192 H192       -5.8860  -19.0729  -45.1571 H         1 UNK         0.0600 
    193 H193       -4.4616  -18.2678  -45.7950 H         1 UNK         0.0600 
    194 H194       -4.3301  -19.3049  -44.3721 H         1 UNK         0.0600 
    195 H195       -3.5073  -21.9468  -44.5049 H         1 UNK         0.3000 
    196 H196       -5.7368  -23.5613  -43.7770 H         1 UNK         0.0600 
    197 H197       -4.0402  -24.9289  -42.5976 H         1 UNK         0.0600 
    198 H198       -3.7252  -23.2189  -42.3376 H         1 UNK         0.0600 
    199 H199       -2.7415  -24.1358  -43.4770 H         1 UNK         0.0600 
    200 H200       -3.0786  -24.1087  -46.1203 H         1 UNK         0.3000 
    201 H201       -3.9946  -26.7032  -46.9959 H         1 UNK         0.0600 
    202 H202       -1.6161  -25.9674  -47.1353 H         1 UNK         0.0600 
    203 H203       -2.0599  -24.6892  -48.2658 H         1 UNK         0.0600 
    204 H204       -2.2285  -26.3786  -48.7298 H         1 UNK         0.0600 
    205 H205       -5.0418  -23.5210  -47.6973 H         1 UNK         0.3000 
    206 H206       -6.3835  -22.5054  -49.1200 H         1 UNK         0.0600 
    207 H207       -8.0169  -24.3347  -48.6069 H         1 UNK         0.0600 
    208 H208       -8.2125  -23.7168  -50.2398 H         1 UNK         0.0600 
    209 H209       -7.4159  -25.2610  -49.9822 H         1 UNK         0.0600 
    210 H210       -3.8290  -22.6449  -49.8533 H         1 UNK         0.3000 
    211 H211       -3.0789  -23.7921  -52.2741 H         1 UNK         0.0600 
    212 H212       -1.2023  -22.1444  -52.1989 H         1 UNK         0.0600 
    213 H213       -1.4945  -22.8520  -50.6179 H         1 UNK         0.0600 
    214 H214       -2.0538  -21.2168  -50.9703 H         1 UNK         0.0600 
    215 H215       -4.8592  -20.7986  -51.7922 H         1 UNK         0.3000 
    216 H216       -4.6046  -19.6270  -54.3581 H         1 UNK         0.0600 
    217 H217       -6.6515  -18.3720  -53.6768 H         1 UNK         0.0600 
    218 H218       -5.4758  -18.4204  -52.3740 H         1 UNK         0.0600 
    219 H219       -6.8915  -19.4727  -52.3242 H         1 UNK         0.0600 
    220 H220       -6.5263  -22.3670  -53.2929 H         1 UNK         0.3000 
    221 H221       -7.9646  -22.4978  -55.9162 H         1 UNK         0.0600 
    222 H222       -8.5439  -23.8782  -53.2399 H         1 UNK         0.0600 
    223 H223       -9.4486  -22.5327  -53.9295 H         1 UNK         0.0600 
    224 H224       -9.4559  -24.0970  -54.7296 H         1 UNK         0.0600 
    225 H225       -6.0560  -24.3899  -53.5202 H         1 UNK         0.3000 
    226 H226       -6.0097  -26.7803  -55.0273 H         1 UNK         0.0600 
    227 H227       -4.3911  -27.5150  -53.2836 H         1 UNK         0.0600 
    228 H228       -4.1997  -25.8554  -52.7343 H         1 UNK         0.0600 
    229 H229       -5.7504  -26.6694  -52.5594 H         1 UNK         0.0600 
    230 H230       -3.7391  -24.0398  -55.0228 H         1 UNK         0.3000 
    231 H231       -2.0599  -25.3945  -57.0967 H         1 UNK         0.0600 
    232 H232       -0.0872  -24.3867  -55.9855 H         1 UNK         0.0600 
    233 H233       -0.9341  -25.4196  -54.8471 H         1 UNK         0.0600 
    234 H234       -1.1075  -23.6683  -54.7445 H         1 UNK         0.0600 
    235 H235       -4.3210  -23.1908  -56.8708 H         1 UNK         0.3000 
    236 H236       -4.9333  -21.2515  -57.7599 H         1 UNK         0.0600 
    237 H237       -2.7463  -21.7432  -59.8453 H         1 UNK         0.0600 
    238 H238       -4.3598  -22.4533  -59.8806 H         1 UNK         0.0600 
    239 H239       -4.1611  -20.7165  -60.0339 H         1 UNK         0.0600 
    240 H240       -2.8912  -21.1665  -55.6620 H         1 UNK         0.3000 
    241 H241       -1.5558  -19.9109  -54.5485 H         1 UNK         0.0600 
    242 H242        1.0859  -20.4111  -57.2722 H         1 UNK         0.3800 
    243 H243       -0.4833  -21.1706  -57.1837 H         1 UNK         0.3800 
    244 H244       -3.2482  -17.8955  -55.7788 H         1 UNK         0.0800 
    245 H245       -1.6588  -17.2224  -55.7251 H         1 UNK         0.0800 
    246 H246       -0.2242  -17.0001  -53.6629 H         1 UNK         0.0800 
    247 H247       -1.2754  -15.6172  -53.4501 H         1 UNK         0.0800 
@<TRIPOS>BOND
     1    1    2 1    
     2    1  127 1    
     3    1  128 1    
     4    1  129 1    
     5    2    3 2    
     6    2    4 am   BACKBONE|DICT|INTERRES
     7    4    5 1    
     8    4  130 1    
     9    5    6 1    
    10    5   65 1    
    11    5  131 1    
    12    6    7 1    
    13    6  132 1    
    14    6  133 1    
    15    7    8 1    
    16    8    9 1    
    17    8  134 1    
    18    8  135 1    
    19    9   10 ar   
    20    9   14 ar   
    21   10   11 ar   
    22   10  136 1    
    23   11   12 ar   
    24   11  126 1    
    25   12   13 ar   
    26   12  137 1    
    27   13   14 ar   
    28   13   15 1    
    29   14  138 1    
    30   15   16 1    
    31   15  139 1    
    32   15  140 1    
    33   16   17 1    
    34   17   18 1    
    35   17  141 1    
    36   17  142 1    
    37   18   19 1    
    38   18   67 1    
    39   18  143 1    
    40   19   20 am   BACKBONE|DICT|INTERRES
    41   19  144 1    
    42   20   21 2    
    43   20   22 1    
    44   22   23 1    
    45   22   24 1    
    46   22  145 1    
    47   23  146 1    
    48   23  147 1    
    49   23  148 1    
    50   24   25 am   BACKBONE|DICT|INTERRES
    51   24  149 1    
    52   25   26 2    
    53   25   27 1    
    54   27   28 1    
    55   27   29 1    
    56   27  150 1    
    57   28  151 1    
    58   28  152 1    
    59   28  153 1    
    60   29   30 am   BACKBONE|DICT|INTERRES
    61   29  154 1    
    62   30   31 2    
    63   30   32 1    
    64   32   33 1    
    65   32   34 1    
    66   32  155 1    
    67   33  156 1    
    68   33  157 1    
    69   33  158 1    
    70   34   35 am   BACKBONE|DICT|INTERRES
    71   34  159 1    
    72   35   36 2    
    73   35   37 1    
    74   37   38 1    
    75   37   39 1    
    76   37  160 1    
    77   38  161 1    
    78   38  162 1    
    79   38  163 1    
    80   39   40 am   BACKBONE|DICT|INTERRES
    81   39  164 1    
    82   40   41 2    
    83   40   42 1    
    84   42   43 1    
    85   42   44 1    
    86   42  165 1    
    87   43  166 1    
    88   43  167 1    
    89   43  168 1    
    90   44   45 am   BACKBONE|DICT|INTERRES
    91   44  169 1    
    92   45   46 2    
    93   45   47 1    
    94   47   48 1    
    95   47   49 1    
    96   47  170 1    
    97   48  171 1    
    98   48  172 1    
    99   48  173 1    
   100   49   50 am   BACKBONE|DICT|INTERRES
   101   49  174 1    
   102   50   51 2    
   103   50   52 1    
   104   52   53 1    
   105   52   54 1    
   106   52  175 1    
   107   53  176 1    
   108   53  177 1    
   109   53  178 1    
   110   54   55 am   BACKBONE|DICT|INTERRES
   111   54  179 1    
   112   55   56 2    
   113   55   57 1    
   114   57   58 1    
   115   57   59 1    
   116   57  180 1    
   117   58  181 1    
   118   58  182 1    
   119   58  183 1    
   120   59   60 am   BACKBONE|DICT|INTERRES
   121   59  184 1    
   122   60   61 2    
   123   60   62 1    
   124   62   63 1    
   125   62   64 1    
   126   62  185 1    
   127   63  186 1    
   128   63  187 1    
   129   63  188 1    
   130   64   65 am   BACKBONE|DICT|INTERRES
   131   64  189 1    
   132   65   66 2    
   133   67   68 2    
   134   67   69 am   BACKBONE|DICT|INTERRES
   135   69   70 1    
   136   69  190 1    
   137   70   71 1    
   138   70   72 1    
   139   70  191 1    
   140   71  192 1    
   141   71  193 1    
   142   71  194 1    
   143   72   73 2    
   144   72   74 am   BACKBONE|DICT|INTERRES
   145   74   75 1    
   146   74  195 1    
   147   75   76 1    
   148   75   77 1    
   149   75  196 1    
   150   76  197 1    
   151   76  198 1    
   152   76  199 1    
   153   77   78 2    
   154   77   79 am   BACKBONE|DICT|INTERRES
   155   79   80 1    
   156   79  200 1    
   157   80   81 1    
   158   80   82 1    
   159   80  201 1    
   160   81  202 1    
   161   81  203 1    
   162   81  204 1    
   163   82   83 2    
   164   82   84 am   BACKBONE|DICT|INTERRES
   165   84   85 1    
   166   84  205 1    
   167   85   86 1    
   168   85   87 1    
   169   85  206 1    
   170   86  207 1    
   171   86  208 1    
   172   86  209 1    
   173   87   88 2    
   174   87   89 am   BACKBONE|DICT|INTERRES
   175   89   90 1    
   176   89  210 1    
   177   90   91 1    
   178   90   92 1    
   179   90  211 1    
   180   91  212 1    
   181   91  213 1    
   182   91  214 1    
   183   92   93 2    
   184   92   94 am   BACKBONE|DICT|INTERRES
   185   94   95 1    
   186   94  215 1    
   187   95   96 1    
   188   95   97 1    
   189   95  216 1    
   190   96  217 1    
   191   96  218 1    
   192   96  219 1    
   193   97   98 2    
   194   97   99 am   BACKBONE|DICT|INTERRES
   195   99  100 1    
   196   99  220 1    
   197  100  101 1    
   198  100  102 1    
   199  100  221 1    
   200  101  222 1    
   201  101  223 1    
   202  101  224 1    
   203  102  103 2    
   204  102  104 am   BACKBONE|DICT|INTERRES
   205  104  105 1    
   206  104  225 1    
   207  105  106 1    
   208  105  107 1    
   209  105  226 1    
   210  106  227 1    
   211  106  228 1    
   212  106  229 1    
   213  107  108 2    
   214  107  109 am   BACKBONE|DICT|INTERRES
   215  109  110 1    
   216  109  230 1    
   217  110  111 1    
   218  110  112 1    
   219  110  231 1    
   220  111  232 1    
   221  111  233 1    
   222  111  234 1    
   223  112  113 2    
   224  112  114 am   BACKBONE|DICT|INTERRES
   225  114  115 1    
   226  114  235 1    
   227  115  116 1    
   228  115  117 1    
   229  115  236 1    
   230  116  237 1    
   231  116  238 1    
   232  116  239 1    
   233  117  118 2    
   234  117  119 am   BACKBONE|DICT|INTERRES
   235  119  120 1    
   236  119  240 1    
   237  120  121 1    
   238  120  124 1    
   239  120  241 1    
   240  121  122 am   BACKBONE|DICT|INTERRES
   241  121  123 2    
   242  122  242 1    
   243  122  243 1    
   244  124  125 1    
   245  124  244 1    
   246  124  245 1    
   247  125  126 1    
   248  126  246 1    
   249  126  247 1    
@<TRIPOS>SUBSTRUCTURE
     1 UNK         1 GROUP             0       ****    0 ROOT    
