@<TRIPOS>MOLECULE
3R540
247   249    1
SMALL
USER_CHARGES


@<TRIPOS>ATOM
      1 CA         -5.0089  -16.5984  -45.1979 C.3       0 UNK        -0.1800 
      2 C          -4.7917  -15.6760  -46.3895 C.2       0 UNK         0.5000 
      3 O          -5.6707  -14.8790  -46.7197 O.2       0 UNK        -0.5000 
      4 N          -3.6137  -15.7723  -47.0178 N.am      1 UNK        -0.5000 
      5 CA         -3.1423  -14.8746  -48.0805 C.3       1 UNK         0.1400 
      6 C6         -2.0509  -15.5569  -48.9496 C.3       23 UNK        -0.0398 
      7 S7         -2.7514  -16.9464  -49.9015 S.3       23 UNK        -0.2404 
      8 C8         -1.9697  -18.3997  -49.1340 C.3       23 UNK        -0.0205 
      9 C9         -0.6863  -18.7866  -49.8517 C.ar      23 UNK        -0.0193 
     10 C10        -0.7622  -19.4526  -51.0783 C.ar      23 UNK        -0.1150 
     11 C11         0.3990  -19.7893  -51.7770 C.ar      23 UNK        -0.0193 
     12 C12         1.6442  -19.4879  -51.2214 C.ar      23 UNK        -0.1150 
     13 C13         1.7384  -18.8377  -49.9874 C.ar      23 UNK        -0.0193 
     14 C14         0.5670  -18.4805  -49.3086 C.ar      23 UNK        -0.1150 
     15 C15         3.1134  -18.4914  -49.4250 C.3       23 UNK        -0.0205 
     16 S16         3.4657  -19.2671  -47.8138 S.3       23 UNK        -0.2404 
     17 C17         3.0394  -21.0168  -48.1016 C.3       23 UNK        -0.0398 
     18 CA          3.9372  -22.0368  -47.3493 C.3       11 UNK         0.1400 
     19 N           4.0228  -21.7764  -45.9034 N.am      11 UNK        -0.5000 
     20 C           4.8715  -22.3800  -45.0566 C.2       10 UNK         0.5000 
     21 O           5.7690  -23.1403  -45.4207 O.2       10 UNK        -0.5000 
     22 CA          4.6472  -22.1480  -43.5494 C.3       10 UNK         0.1400 
     23 CB          5.4802  -20.9618  -43.0388 C.3       10 UNK        -0.1800 
     24 N           3.2334  -21.9422  -43.2218 N.am      10 UNK        -0.5000 
     25 C           2.3163  -22.9185  -43.1578 C.2       9 UNK         0.5000 
     26 O           2.5791  -24.1087  -43.3290 O.2       9 UNK        -0.5000 
     27 CA          0.8541  -22.5006  -42.8969 C.3       9 UNK         0.1400 
     28 CB          0.5871  -22.3779  -41.3896 C.3       9 UNK        -0.1800 
     29 N           0.4845  -21.2463  -43.5512 N.am      9 UNK        -0.5000 
     30 C           0.4669  -21.0504  -44.8765 C.2       8 UNK         0.5000 
     31 O           0.6922  -21.9357  -45.7021 O.2       8 UNK        -0.5000 
     32 CA          0.2265  -19.6039  -45.3541 C.3       8 UNK         0.1400 
     33 CB         -1.2786  -19.3146  -45.4512 C.3       8 UNK        -0.1800 
     34 N           0.8721  -18.5940  -44.5042 N.am      8 UNK        -0.5000 
     35 C           2.1845  -18.5607  -44.2212 C.2       7 UNK         0.5000 
     36 O           2.9902  -19.3874  -44.6367 O.2       7 UNK        -0.5000 
     37 CA          2.6813  -17.4657  -43.2695 C.3       7 UNK         0.1400 
     38 CB          2.8752  -16.1458  -44.0197 C.3       7 UNK        -0.1800 
     39 N           1.7601  -17.2824  -42.1524 N.am      7 UNK        -0.5000 
     40 C           1.7007  -18.1067  -41.0965 C.2       6 UNK         0.5000 
     41 O           2.4767  -19.0456  -40.9165 O.2       6 UNK        -0.5000 
     42 CA          0.5585  -17.8645  -40.0919 C.3       6 UNK         0.1400 
     43 CB          0.9763  -16.8309  -39.0352 C.3       6 UNK        -0.1800 
     44 N          -0.6779  -17.4212  -40.7377 N.am      6 UNK        -0.5000 
     45 C          -1.3913  -18.1558  -41.6027 C.2       5 UNK         0.5000 
     46 O          -1.1116  -19.3152  -41.9081 O.2       5 UNK        -0.5000 
     47 CA         -2.5913  -17.4615  -42.2745 C.3       5 UNK         0.1400 
     48 CB         -3.8825  -17.7342  -41.4901 C.3       5 UNK        -0.1800 
     49 N          -2.4212  -16.0145  -42.4430 N.am      5 UNK        -0.5000 
     50 C          -1.4792  -15.4301  -43.1971 C.2       4 UNK         0.5000 
     51 O          -0.6214  -16.0623  -43.8196 O.2       4 UNK        -0.5000 
     52 CA         -1.5290  -13.8918  -43.2441 C.3       4 UNK         0.1400 
     53 CB         -1.2211  -13.2602  -41.8699 C.3       4 UNK        -0.1800 
     54 N          -0.7119  -13.3249  -44.3233 N.am      4 UNK        -0.5000 
     55 C           0.6101  -13.0979  -44.3730 C.2       3 UNK         0.5000 
     56 O           1.3733  -13.2717  -43.4230 O.2       3 UNK        -0.5000 
     57 CA          1.1956  -12.5764  -45.7084 C.3       3 UNK         0.1400 
     58 CB          2.2487  -13.5433  -46.2732 C.3       3 UNK        -0.1800 
     59 N           0.1878  -12.3482  -46.7460 N.am      3 UNK        -0.5000 
     60 C          -0.5762  -11.2540  -46.8604 C.2       2 UNK         0.5000 
     61 O          -0.4633  -10.2639  -46.1372 O.2       2 UNK        -0.5000 
     62 CA         -1.6747  -11.2820  -47.9476 C.3       2 UNK         0.1400 
     63 CB         -1.1946  -10.5500  -49.2102 C.3       2 UNK        -0.1800 
     64 N          -2.1442  -12.6246  -48.3256 N.am      2 UNK        -0.5000 
     65 C          -2.6712  -13.5256  -47.4826 C.2       1 UNK         0.5000 
     66 O          -2.7730  -13.3146  -46.2721 O.2       1 UNK        -0.5000 
     67 C           3.4205  -23.4631  -47.6551 C.2       11 UNK         0.5000 
     68 O           3.6062  -23.9416  -48.7743 O.2       11 UNK        -0.5000 
     69 N           2.7514  -24.0865  -46.6709 N.am      12 UNK        -0.5000 
     70 CA          1.9842  -25.3327  -46.7479 C.3       12 UNK         0.1400 
     71 CB          2.8860  -26.5330  -47.1037 C.3       12 UNK        -0.1800 
     72 C           0.7530  -25.1913  -47.6672 C.2       12 UNK         0.5000 
     73 O           0.3690  -26.1447  -48.3475 O.2       12 UNK        -0.5000 
     74 N           0.1625  -23.9901  -47.6712 N.am      13 UNK        -0.5000 
     75 CA         -1.0365  -23.6468  -48.4228 C.3       13 UNK         0.1400 
     76 CB         -1.0088  -22.1363  -48.7115 C.3       13 UNK        -0.1800 
     77 C          -2.3016  -24.0159  -47.6320 C.2       13 UNK         0.5000 
     78 O          -2.2544  -24.1743  -46.4095 O.2       13 UNK        -0.5000 
     79 N          -3.4296  -24.0894  -48.3461 N.am      14 UNK        -0.5000 
     80 CA         -4.7636  -24.3033  -47.7805 C.3       14 UNK         0.1400 
     81 CB         -5.7107  -24.7490  -48.9053 C.3       14 UNK        -0.1800 
     82 C          -5.3290  -23.0619  -47.0584 C.2       14 UNK         0.5000 
     83 O          -6.3475  -23.1793  -46.3768 O.2       14 UNK        -0.5000 
     84 N          -4.6897  -21.8959  -47.2474 N.am      15 UNK        -0.5000 
     85 CA         -4.9780  -20.5663  -46.6864 C.3       15 UNK         0.1400 
     86 CB         -4.9431  -20.5836  -45.1458 C.3       15 UNK        -0.1800 
     87 C          -6.2705  -19.9168  -47.2183 C.2       15 UNK         0.5000 
     88 O          -6.2757  -18.7158  -47.4824 O.2       15 UNK        -0.5000 
     89 N          -7.3281  -20.7151  -47.4048 N.am      16 UNK        -0.5000 
     90 CA         -8.5599  -20.3271  -48.0935 C.3       16 UNK         0.1400 
     91 CB         -9.6484  -21.3690  -47.7947 C.3       16 UNK        -0.1800 
     92 C          -8.3535  -20.1784  -49.6145 C.2       16 UNK         0.5000 
     93 O          -9.0570  -19.3934  -50.2516 O.2       16 UNK        -0.5000 
     94 N          -7.3884  -20.9289  -50.1620 N.am      17 UNK        -0.5000 
     95 CA         -6.9209  -20.8176  -51.5400 C.3       17 UNK         0.1400 
     96 CB         -6.2538  -22.1391  -51.9399 C.3       17 UNK        -0.1800 
     97 C          -5.9340  -19.6436  -51.6728 C.2       17 UNK         0.5000 
     98 O          -5.1462  -19.4024  -50.7560 O.2       17 UNK        -0.5000 
     99 N          -6.0061  -18.9400  -52.8077 N.am      18 UNK        -0.5000 
    100 CA        -5.2029  -17.7576  -53.1189 C.3       18 UNK         0.1400 
    101 CB        -5.8833  -17.0122  -54.2808 C.3       18 UNK        -0.1800 
    102 C         -3.7404  -18.0885  -53.4754 C.2       18 UNK         0.5000 
    103 O         -3.3913  -19.2462  -53.7075 O.2       18 UNK        -0.5000 
    104 N         -2.9167  -17.0377  -53.5818 N.am      19 UNK        -0.5000 
    105 CA        -1.4970  -17.1054  -53.9433 C.3       19 UNK         0.1400 
    106 CB        -0.8713  -15.7161  -53.7496 C.3       19 UNK        -0.1800 
    107 C         -1.2164  -17.6390  -55.3657 C.2       19 UNK         0.5000 
    108 O         -0.0883  -18.0450  -55.6447 O.2       19 UNK        -0.5000 
    109 N         -2.2341  -17.6315  -56.2377 N.am      20 UNK        -0.5000 
    110 CA        -2.1703  -18.1407  -57.6083 C.3       20 UNK         0.1400 
    111 CB        -3.4077  -17.6508  -58.3764 C.3       20 UNK        -0.1800 
    112 C         -2.0570  -19.6766  -57.6982 C.2       20 UNK         0.5000 
    113 O         -1.4753  -20.1780  -58.6614 O.2       20 UNK        -0.5000 
    114 N         -2.6095  -20.3946  -56.7126 N.am      21 UNK        -0.5000 
    115 CA        -2.6166  -21.8523  -56.6304 C.3       21 UNK         0.1400 
    116 CB        -3.6411  -22.4507  -57.6143 C.3       21 UNK        -0.1800 
    117 C         -2.9399  -22.2191  -55.1793 C.2       21 UNK         0.5000 
    118 O         -4.0774  -22.0263  -54.7521 O.2       21 UNK        -0.5000 
    119 N         -1.9239  -22.6841  -54.4443 N.am      22 UNK        -0.5000 
    120 CA        -1.9139  -22.7994  -52.9744 C.3       22 UNK         0.1400 
    121 C         -2.9131  -23.8125  -52.3415 C.2       22 UNK         0.5000 
    122 N         -3.5686  -24.6760  -53.1050 N.am      22 UNK        -0.7600 
    123 O         -3.0903  -23.8150  -51.1268 O.2       22 UNK        -0.5000 
    124 C124       -0.4829  -23.0571  -52.4229 C.3       23 UNK        -0.0398 
    125 S125        0.8799  -22.1320  -53.2161 S.3       23 UNK        -0.2404 
    126 C126        0.3148  -20.4032  -53.1659 C.3       23 UNK        -0.0205 
    127 H127       -5.0053  -16.0212  -44.2736 H         1 UNK         0.0600 
    128 H128       -4.2283  -17.3557  -45.1314 H         1 UNK         0.0600 
    129 H129       -5.9700  -17.1055  -45.2804 H         1 UNK         0.0600 
    130 H130       -2.9329  -16.4323  -46.6771 H         1 UNK         0.3000 
    131 H131       -3.9886  -14.6375  -48.7289 H         1 UNK         0.0600 
    132 H132       -1.6317  -14.8662  -49.6821 H         1 UNK         0.0800 
    133 H133       -1.2126  -15.8949  -48.3384 H         1 UNK         0.0800 
    134 H134       -1.7882  -18.2153  -48.0765 H         1 UNK         0.0800 
    135 H135       -2.6716  -19.2337  -49.1828 H         1 UNK         0.0800 
    136 H136       -1.7317  -19.6705  -51.5048 H         1 UNK         0.1150 
    137 H137        2.5419  -19.7447  -51.7663 H         1 UNK         0.1150 
    138 H138        0.6350  -17.9621  -48.3627 H         1 UNK         0.1150 
    139 H139        3.9001  -18.7794  -50.1241 H         1 UNK         0.0800 
    140 H140        3.1866  -17.4088  -49.3152 H         1 UNK         0.0800 
    141 H141        1.9913  -21.1446  -47.8292 H         1 UNK         0.0800 
    142 H142        3.0932  -21.2093  -49.1748 H         1 UNK         0.0800 
    143 H143        4.9474  -21.9627  -47.7567 H         1 UNK         0.0600 
    144 H144        3.3883  -21.0760  -45.5301 H         1 UNK         0.3000 
    145 H145        4.9908  -23.0420  -43.0245 H         1 UNK         0.0600 
    146 H146        5.3204  -20.7967  -41.9731 H         1 UNK         0.0600 
    147 H147        5.2397  -20.0361  -43.5607 H         1 UNK         0.0600 
    148 H148        6.5451  -21.1473  -43.1836 H         1 UNK         0.0600 
    149 H149        2.9290  -20.9804  -43.1441 H         1 UNK         0.3000 
    150 H150        0.2089  -23.2858  -43.2965 H         1 UNK         0.0600 
    151 H151        0.8288  -23.3070  -40.8719 H         1 UNK         0.0600 
    152 H152       -0.4624  -22.1582  -41.1923 H         1 UNK         0.0600 
    153 H153        1.1842  -21.5840  -40.9392 H         1 UNK         0.0600 
    154 H154        0.2218  -20.4746  -42.9467 H         1 UNK         0.3000 
    155 H155        0.6585  -19.5069  -46.3515 H         1 UNK         0.0600 
    156 H156       -1.7388  -19.9155  -46.2347 H         1 UNK         0.0600 
    157 H157       -1.4722  -18.2668  -45.6800 H         1 UNK         0.0600 
    158 H158       -1.7925  -19.5587  -44.5226 H         1 UNK         0.0600 
    159 H159        0.2843  -17.8488  -44.1458 H         1 UNK         0.3000 
    160 H160        3.6545  -17.7723  -42.8792 H         1 UNK         0.0600 
    161 H161        1.9398  -15.7995  -44.4561 H         1 UNK         0.0600 
    162 H162        3.5936  -16.2606  -44.8324 H         1 UNK         0.0600 
    163 H163        3.2502  -15.3649  -43.3581 H         1 UNK         0.0600 
    164 H164        1.0582  -16.5630  -42.2592 H         1 UNK         0.3000 
    165 H165        0.3547  -18.8109  -39.5863 H         1 UNK         0.0600 
    166 H166        0.2039  -16.7087  -38.2758 H         1 UNK         0.0600 
    167 H167        1.8874  -17.1434  -38.5232 H         1 UNK         0.0600 
    168 H168        1.1683  -15.8538  -39.4805 H         1 UNK         0.0600 
    169 H169       -0.9824  -16.4790  -40.5434 H         1 UNK         0.3000 
    170 H170       -2.7068  -17.8936  -43.2682 H         1 UNK         0.0600 
    171 H171       -4.0491  -18.8061  -41.3739 H         1 UNK         0.0600 
    172 H172       -3.8475  -17.2968  -40.4916 H         1 UNK         0.0600 
    173 H173       -4.7524  -17.3272  -42.0059 H         1 UNK         0.0600 
    174 H174       -3.0885  -15.4305  -41.9597 H         1 UNK         0.3000 
    175 H175       -2.5549  -13.6252  -43.5022 H         1 UNK         0.0600 
    176 H176       -0.2719  -13.6088  -41.4620 H         1 UNK         0.0600 
    177 H177       -1.1814  -12.1728  -41.9344 H         1 UNK         0.0600 
    178 H178       -1.9929  -13.5100  -41.1415 H         1 UNK         0.0600 
    179 H179       -1.2429  -13.1675  -45.1750 H         1 UNK         0.3000 
    180 H180        1.6948  -11.6304  -45.4885 H         1 UNK         0.0600 
    181 H181        3.0601  -13.6984  -45.5615 H         1 UNK         0.0600 
    182 H182        2.6962  -13.1489  -47.1857 H         1 UNK         0.0600 
    183 H183        1.8177  -14.5177  -46.5061 H         1 UNK         0.0600 
    184 H184        0.0266  -13.1083  -47.3892 H         1 UNK         0.3000 
    185 H185       -2.5332  -10.7397  -47.5463 H         1 UNK         0.0600 
    186 H186       -0.8639   -9.5375  -48.9744 H         1 UNK         0.0600 
    187 H187       -0.3573  -11.0673  -49.6805 H         1 UNK         0.0600 
    188 H188       -1.9942  -10.4643  -49.9462 H         1 UNK         0.0600 
    189 H189       -2.0994  -12.8415  -49.3107 H         1 UNK         0.3000 
    190 H190        2.6503  -23.5797  -45.8018 H         1 UNK         0.3000 
    191 H191        1.5919  -25.5048  -45.7446 H         1 UNK         0.0600 
    192 H192        2.3418  -27.4721  -46.9981 H         1 UNK         0.0600 
    193 H193        3.7517  -26.5841  -46.4434 H         1 UNK         0.0600 
    194 H194        3.2481  -26.4818  -48.1306 H         1 UNK         0.0600 
    195 H195        0.4829  -23.2875  -47.0095 H         1 UNK         0.3000 
    196 H196       -1.0373  -24.1913  -49.3690 H         1 UNK         0.0600 
    197 H197       -1.0842  -21.5498  -47.7967 H         1 UNK         0.0600 
    198 H198       -0.0853  -21.8447  -49.2121 H         1 UNK         0.0600 
    199 H199       -1.8351  -21.8434  -49.3602 H         1 UNK         0.0600 
    200 H200       -3.3774  -23.9680  -49.3582 H         1 UNK         0.3000 
    201 H201       -4.7039  -25.1084  -47.0453 H         1 UNK         0.0600 
    202 H202       -6.7099  -24.9571  -48.5206 H         1 UNK         0.0600 
    203 H203       -5.3516  -25.6601  -49.3843 H         1 UNK         0.0600 
    204 H204       -5.8070  -23.9841  -49.6749 H         1 UNK         0.0600 
    205 H205       -3.8948  -21.9282  -47.8683 H         1 UNK         0.3000 
    206 H206       -4.1591  -19.9272  -47.0203 H         1 UNK         0.0600 
    207 H207       -3.9967  -20.9803  -44.7781 H         1 UNK         0.0600 
    208 H208       -5.0543  -19.5786  -44.7397 H         1 UNK         0.0600 
    209 H209       -5.7459  -21.1893  -44.7254 H         1 UNK         0.0600 
    210 H210       -7.2425  -21.6823  -47.1043 H         1 UNK         0.3000 
    211 H211       -8.8887  -19.3618  -47.7030 H         1 UNK         0.0600 
    212 H212       -9.3649  -22.3607  -48.1500 H         1 UNK         0.0600 
    213 H213      -10.5885  -21.1018  -48.2792 H         1 UNK         0.0600 
    214 H214       -9.8432  -21.4394  -46.7244 H         1 UNK         0.0600 
    215 H215       -6.8268  -21.4947  -49.5455 H         1 UNK         0.3000 
    216 H216       -7.7786  -20.6490  -52.1948 H         1 UNK         0.0600 
    217 H217       -6.9227  -22.9867  -51.7905 H         1 UNK         0.0600 
    218 H218       -5.3463  -22.3163  -51.3633 H         1 UNK         0.0600 
    219 H219       -5.9766  -22.1285  -52.9932 H         1 UNK         0.0600 
    220 H220       -6.6433  -19.2444  -53.5284 H         1 UNK         0.3000 
    221 H221       -5.1952  -17.1078  -52.2409 H         1 UNK         0.0600 
    222 H222       -5.3699  -16.0785  -54.5129 H         1 UNK         0.0600 
    223 H223       -5.8979  -17.6139  -55.1907 H         1 UNK         0.0600 
    224 H224       -6.9136  -16.7548  -54.0337 H         1 UNK         0.0600 
    225 H225       -3.2778  -16.1162  -53.3827 H         1 UNK         0.3000 
    226 H226       -1.0122  -17.7864  -53.2460 H         1 UNK         0.0600 
    227 H227       -0.9775  -15.3777  -52.7185 H         1 UNK         0.0600 
    228 H228        0.1960  -15.7327  -53.9747 H         1 UNK         0.0600 
    229 H229       -1.3335  -14.9724  -54.3997 H         1 UNK         0.0600 
    230 H230       -3.1239  -17.2728  -55.9264 H         1 UNK         0.3000 
    231 H231       -1.2840  -17.7174  -58.0859 H         1 UNK         0.0600 
    232 H232       -3.3833  -17.9893  -59.4131 H         1 UNK         0.0600 
    233 H233       -3.4572  -16.5619  -58.3929 H         1 UNK         0.0600 
    234 H234       -4.3313  -18.0233  -57.9312 H         1 UNK         0.0600 
    235 H235       -3.0341  -19.9193  -55.9236 H         1 UNK         0.3000 
    236 H236       -1.6235  -22.2312  -56.8814 H         1 UNK         0.0600 
    237 H237       -3.3684  -22.2437  -58.6490 H         1 UNK         0.0600 
    238 H238       -3.6975  -23.5344  -57.5057 H         1 UNK         0.0600 
    239 H239       -4.6418  -22.0503  -57.4469 H         1 UNK         0.0600 
    240 H240       -1.0262  -22.8212  -54.8859 H         1 UNK         0.3000 
    241 H241       -2.2365  -21.8268  -52.5988 H         1 UNK         0.0600 
    242 H242       -3.4554  -24.6606  -54.1054 H         1 UNK         0.3800 
    243 H243       -4.2120  -25.3237  -52.6803 H         1 UNK         0.3800 
    244 H244       -0.2325  -24.1155  -52.5162 H         1 UNK         0.0800 
    245 H245       -0.4498  -22.8381  -51.3570 H         1 UNK         0.0800 
    246 H246       -0.6927  -20.3182  -53.5735 H         1 UNK         0.0800 
    247 H247        0.9505  -19.8230  -53.8358 H         1 UNK         0.0800 
@<TRIPOS>BOND
     1    1    2 1    
     2    1  127 1    
     3    1  128 1    
     4    1  129 1    
     5    2    3 2    
     6    2    4 am   BACKBONE|DICT|INTERRES
     7    4    5 1    
     8    4  130 1    
     9    5    6 1    
    10    5   65 1    
    11    5  131 1    
    12    6    7 1    
    13    6  132 1    
    14    6  133 1    
    15    7    8 1    
    16    8    9 1    
    17    8  134 1    
    18    8  135 1    
    19    9   10 ar   
    20    9   14 ar   
    21   10   11 ar   
    22   10  136 1    
    23   11   12 ar   
    24   11  126 1    
    25   12   13 ar   
    26   12  137 1    
    27   13   14 ar   
    28   13   15 1    
    29   14  138 1    
    30   15   16 1    
    31   15  139 1    
    32   15  140 1    
    33   16   17 1    
    34   17   18 1    
    35   17  141 1    
    36   17  142 1    
    37   18   19 1    
    38   18   67 1    
    39   18  143 1    
    40   19   20 am   BACKBONE|DICT|INTERRES
    41   19  144 1    
    42   20   21 2    
    43   20   22 1    
    44   22   23 1    
    45   22   24 1    
    46   22  145 1    
    47   23  146 1    
    48   23  147 1    
    49   23  148 1    
    50   24   25 am   BACKBONE|DICT|INTERRES
    51   24  149 1    
    52   25   26 2    
    53   25   27 1    
    54   27   28 1    
    55   27   29 1    
    56   27  150 1    
    57   28  151 1    
    58   28  152 1    
    59   28  153 1    
    60   29   30 am   BACKBONE|DICT|INTERRES
    61   29  154 1    
    62   30   31 2    
    63   30   32 1    
    64   32   33 1    
    65   32   34 1    
    66   32  155 1    
    67   33  156 1    
    68   33  157 1    
    69   33  158 1    
    70   34   35 am   BACKBONE|DICT|INTERRES
    71   34  159 1    
    72   35   36 2    
    73   35   37 1    
    74   37   38 1    
    75   37   39 1    
    76   37  160 1    
    77   38  161 1    
    78   38  162 1    
    79   38  163 1    
    80   39   40 am   BACKBONE|DICT|INTERRES
    81   39  164 1    
    82   40   41 2    
    83   40   42 1    
    84   42   43 1    
    85   42   44 1    
    86   42  165 1    
    87   43  166 1    
    88   43  167 1    
    89   43  168 1    
    90   44   45 am   BACKBONE|DICT|INTERRES
    91   44  169 1    
    92   45   46 2    
    93   45   47 1    
    94   47   48 1    
    95   47   49 1    
    96   47  170 1    
    97   48  171 1    
    98   48  172 1    
    99   48  173 1    
   100   49   50 am   BACKBONE|DICT|INTERRES
   101   49  174 1    
   102   50   51 2    
   103   50   52 1    
   104   52   53 1    
   105   52   54 1    
   106   52  175 1    
   107   53  176 1    
   108   53  177 1    
   109   53  178 1    
   110   54   55 am   BACKBONE|DICT|INTERRES
   111   54  179 1    
   112   55   56 2    
   113   55   57 1    
   114   57   58 1    
   115   57   59 1    
   116   57  180 1    
   117   58  181 1    
   118   58  182 1    
   119   58  183 1    
   120   59   60 am   BACKBONE|DICT|INTERRES
   121   59  184 1    
   122   60   61 2    
   123   60   62 1    
   124   62   63 1    
   125   62   64 1    
   126   62  185 1    
   127   63  186 1    
   128   63  187 1    
   129   63  188 1    
   130   64   65 am   BACKBONE|DICT|INTERRES
   131   64  189 1    
   132   65   66 2    
   133   67   68 2    
   134   67   69 am   BACKBONE|DICT|INTERRES
   135   69   70 1    
   136   69  190 1    
   137   70   71 1    
   138   70   72 1    
   139   70  191 1    
   140   71  192 1    
   141   71  193 1    
   142   71  194 1    
   143   72   73 2    
   144   72   74 am   BACKBONE|DICT|INTERRES
   145   74   75 1    
   146   74  195 1    
   147   75   76 1    
   148   75   77 1    
   149   75  196 1    
   150   76  197 1    
   151   76  198 1    
   152   76  199 1    
   153   77   78 2    
   154   77   79 am   BACKBONE|DICT|INTERRES
   155   79   80 1    
   156   79  200 1    
   157   80   81 1    
   158   80   82 1    
   159   80  201 1    
   160   81  202 1    
   161   81  203 1    
   162   81  204 1    
   163   82   83 2    
   164   82   84 am   BACKBONE|DICT|INTERRES
   165   84   85 1    
   166   84  205 1    
   167   85   86 1    
   168   85   87 1    
   169   85  206 1    
   170   86  207 1    
   171   86  208 1    
   172   86  209 1    
   173   87   88 2    
   174   87   89 am   BACKBONE|DICT|INTERRES
   175   89   90 1    
   176   89  210 1    
   177   90   91 1    
   178   90   92 1    
   179   90  211 1    
   180   91  212 1    
   181   91  213 1    
   182   91  214 1    
   183   92   93 2    
   184   92   94 am   BACKBONE|DICT|INTERRES
   185   94   95 1    
   186   94  215 1    
   187   95   96 1    
   188   95   97 1    
   189   95  216 1    
   190   96  217 1    
   191   96  218 1    
   192   96  219 1    
   193   97   98 2    
   194   97   99 am   BACKBONE|DICT|INTERRES
   195   99  100 1    
   196   99  220 1    
   197  100  101 1    
   198  100  102 1    
   199  100  221 1    
   200  101  222 1    
   201  101  223 1    
   202  101  224 1    
   203  102  103 2    
   204  102  104 am   BACKBONE|DICT|INTERRES
   205  104  105 1    
   206  104  225 1    
   207  105  106 1    
   208  105  107 1    
   209  105  226 1    
   210  106  227 1    
   211  106  228 1    
   212  106  229 1    
   213  107  108 2    
   214  107  109 am   BACKBONE|DICT|INTERRES
   215  109  110 1    
   216  109  230 1    
   217  110  111 1    
   218  110  112 1    
   219  110  231 1    
   220  111  232 1    
   221  111  233 1    
   222  111  234 1    
   223  112  113 2    
   224  112  114 am   BACKBONE|DICT|INTERRES
   225  114  115 1    
   226  114  235 1    
   227  115  116 1    
   228  115  117 1    
   229  115  236 1    
   230  116  237 1    
   231  116  238 1    
   232  116  239 1    
   233  117  118 2    
   234  117  119 am   BACKBONE|DICT|INTERRES
   235  119  120 1    
   236  119  240 1    
   237  120  121 1    
   238  120  124 1    
   239  120  241 1    
   240  121  122 am   BACKBONE|DICT|INTERRES
   241  121  123 2    
   242  122  242 1    
   243  122  243 1    
   244  124  125 1    
   245  124  244 1    
   246  124  245 1    
   247  125  126 1    
   248  126  246 1    
   249  126  247 1    
@<TRIPOS>SUBSTRUCTURE
     1 UNK         1 GROUP             0       ****    0 ROOT    
