@<TRIPOS>MOLECULE
3R540
247   249    1
SMALL
USER_CHARGES


@<TRIPOS>ATOM
      1 CA         -1.8286  -16.0711  -47.1110 C.3       0 UNK        -0.1800 
      2 C          -1.7830  -14.8060  -47.9544 C.2       0 UNK         0.5000 
      3 O          -2.7577  -14.0557  -47.9872 O.2       0 UNK        -0.5000 
      4 N          -0.6600  -14.5782  -48.6485 N.am      1 UNK        -0.5000 
      5 CA         -0.4290  -13.3914  -49.4848 C.3       1 UNK         0.1400 
      6 C6          0.7076  -13.6057  -50.5145 C.3       23 UNK        -0.0398 
      7 S7          0.3771  -14.9991  -51.6462 S.3       23 UNK        -0.2404 
      8 C8          1.6445  -16.1894  -51.1068 C.3       23 UNK        -0.0205 
      9 C9          1.5259  -17.5231  -51.8305 C.ar      23 UNK        -0.0193 
     10 C10         1.8321  -17.6116  -53.1925 C.ar      23 UNK        -0.1150 
     11 C11         1.7700  -18.8393  -53.8581 C.ar      23 UNK        -0.0193 
     12 C12         1.4274  -19.9882  -53.1412 C.ar      23 UNK        -0.1150 
     13 C13         1.0800  -19.9090  -51.7906 C.ar      23 UNK        -0.0193 
     14 C14         1.1349  -18.6742  -51.1372 C.ar      23 UNK        -0.1150 
     15 C15         0.6337  -21.1623  -51.0560 C.3       23 UNK        -0.0205 
     16 S16         2.0427  -21.9997  -50.2684 S.3       23 UNK        -0.2404 
     17 C17         1.9420  -21.3723  -48.5563 C.3       23 UNK        -0.0398 
     18 CA          1.4848  -22.4732  -47.5642 C.3       11 UNK         0.1400 
     19 N           1.7616  -22.1291  -46.1684 N.am      11 UNK        -0.5000 
     20 C           2.9420  -22.3764  -45.5805 C.2       10 UNK         0.5000 
     21 O           3.8602  -22.9762  -46.1425 O.2       10 UNK        -0.5000 
     22 CA          3.1883  -21.8600  -44.1496 C.3       10 UNK         0.1400 
     23 CB          4.2358  -20.7349  -44.1705 C.3       10 UNK        -0.1800 
     24 N           1.9931  -21.3762  -43.4616 N.am      10 UNK        -0.5000 
     25 C           1.0787  -22.1587  -42.8748 C.2       9 UNK         0.5000 
     26 O           1.1236  -23.3889  -42.8815 O.2       9 UNK        -0.5000 
     27 CA         -0.0958  -21.4414  -42.1791 C.3       9 UNK         0.1400 
     28 CB          0.2890  -21.0322  -40.7498 C.3       9 UNK        -0.1800 
     29 N          -0.5687  -20.2622  -42.9072 N.am      9 UNK        -0.5000 
     30 C          -1.0641  -20.2865  -44.1515 C.2       8 UNK         0.5000 
     31 O          -1.1714  -21.3112  -44.8221 O.2       8 UNK        -0.5000 
     32 CA         -1.4484  -18.9360  -44.7722 C.3       8 UNK         0.1400 
     33 CB         -2.8045  -18.4444  -44.2440 C.3       8 UNK        -0.1800 
     34 N          -0.4131  -17.9367  -44.5251 N.am      8 UNK        -0.5000 
     35 C           0.7560  -17.8987  -45.1800 C.2       7 UNK         0.5000 
     36 O           1.0423  -18.6524  -46.1112 O.2       7 UNK        -0.5000 
     37 CA          1.7809  -16.8527  -44.7051 C.3       7 UNK         0.1400 
     38 CB          1.5915  -15.5298  -45.4624 C.3       7 UNK        -0.1800 
     39 N           1.7144  -16.6029  -43.2628 N.am      7 UNK        -0.5000 
     40 C           2.0617  -17.5022  -42.3293 C.2       6 UNK         0.5000 
     41 O           2.4875  -18.6248  -42.5924 O.2       6 UNK        -0.5000 
     42 CA          1.8480  -17.1082  -40.8556 C.3       6 UNK         0.1400 
     43 CB          3.0727  -16.3535  -40.3179 C.3       6 UNK        -0.1800 
     44 N           0.6505  -16.2970  -40.6379 N.am      6 UNK        -0.5000 
     45 C          -0.6009  -16.6503  -40.9643 C.2       5 UNK         0.5000 
     46 O          -0.8923  -17.7429  -41.4516 O.2       5 UNK        -0.5000 
     47 CA         -1.7071  -15.5986  -40.7467 C.3       5 UNK         0.1400 
     48 CB         -2.5437  -15.9520  -39.5081 C.3       5 UNK        -0.1800 
     49 N          -1.2066  -14.2254  -40.6113 N.am      5 UNK        -0.5000 
     50 C          -0.6022  -13.5274  -41.5821 C.2       4 UNK         0.5000 
     51 O          -0.3672  -13.9765  -42.7067 O.2       4 UNK        -0.5000 
     52 CA         -0.1120  -12.1195  -41.2037 C.3       4 UNK         0.1400 
     53 CB          1.3994  -12.1415  -40.9251 C.3       4 UNK        -0.1800 
     54 N          -0.3830  -11.1623  -42.2718 N.am      4 UNK        -0.5000 
     55 C          -1.5893  -10.6526  -42.5569 C.2       3 UNK         0.5000 
     56 O          -2.5996  -10.8736  -41.8876 O.2       3 UNK        -0.5000 
     57 CA         -1.6836   -9.7377  -43.7963 C.3       3 UNK         0.1400 
     58 CB         -1.5976   -8.2604  -43.3825 C.3       3 UNK        -0.1800 
     59 N          -0.6465  -10.0157  -44.7949 N.am      3 UNK        -0.5000 
     60 C          -0.6099  -11.1214  -45.5491 C.2       2 UNK         0.5000 
     61 O          -1.4854  -11.9893  -45.5284 O.2       2 UNK        -0.5000 
     62 CA          0.6413  -11.2993  -46.4275 C.3       2 UNK         0.1400 
     63 CB          1.8437  -11.7057  -45.5584 C.3       2 UNK        -0.1800 
     64 N           0.4232  -12.3342  -47.4355 N.am      2 UNK        -0.5000 
     65 C          -0.1492  -12.1351  -48.6305 C.2       1 UNK         0.5000 
     66 O          -0.4550  -11.0236  -49.0653 O.2       1 UNK        -0.5000 
     67 C           0.0250  -22.9118  -47.7555 C.2       11 UNK         0.5000 
     68 O          -0.2133  -24.1008  -47.9623 O.2       11 UNK        -0.5000 
     69 N          -0.9246  -21.9670  -47.6984 N.am      12 UNK        -0.5000 
     70 CA         -2.3453  -22.1765  -48.0153 C.3       12 UNK         0.1400 
     71 CB         -3.1098  -20.8596  -47.8165 C.3       12 UNK        -0.1800 
     72 C          -3.0211  -23.3106  -47.2198 C.2       12 UNK         0.5000 
     73 O          -3.7898  -24.0856  -47.7896 O.2       12 UNK        -0.5000 
     74 N          -2.6846  -23.4127  -45.9285 N.am      13 UNK        -0.5000 
     75 CA         -3.1642  -24.4502  -45.0161 C.3       13 UNK         0.1400 
     76 CB         -2.7725  -24.0687  -43.5812 C.3       13 UNK        -0.1800 
     77 C          -2.6389  -25.8581  -45.3582 C.2       13 UNK         0.5000 
     78 O          -3.3419  -26.8388  -45.1130 O.2       13 UNK        -0.5000 
     79 N          -1.4242  -25.9353  -45.9181 N.am      14 UNK        -0.5000 
     80 CA         -0.7972  -27.1788  -46.3656 C.3       14 UNK         0.1400 
     81 CB          0.7315  -27.0275  -46.3121 C.3       14 UNK        -0.1800 
     82 C          -1.2628  -27.5637  -47.7803 C.2       14 UNK         0.5000 
     83 O          -1.4974  -28.7433  -48.0448 O.2       14 UNK        -0.5000 
     84 N          -1.4016  -26.5591  -48.6562 N.am      15 UNK        -0.5000 
     85 CA         -1.8845  -26.6938  -50.0307 C.3       15 UNK         0.1400 
     86 CB         -1.6212  -25.3779  -50.7817 C.3       15 UNK        -0.1800 
     87 C          -3.3773  -27.0630  -50.1166 C.2       15 UNK         0.5000 
     88 O          -3.7808  -27.7091  -51.0843 O.2       15 UNK        -0.5000 
     89 N          -4.1583  -26.6336  -49.1133 N.am      16 UNK        -0.5000 
     90 CA         -5.6166  -26.7418  -49.0062 C.3       16 UNK         0.1400 
     91 CB         -6.0622  -28.2151  -48.8987 C.3       16 UNK        -0.1800 
     92 C          -6.3328  -25.9597  -50.1272 C.2       16 UNK         0.5000 
     93 O          -7.3203  -26.4340  -50.6925 O.2       16 UNK        -0.5000 
     94 N          -5.8032  -24.7708  -50.4320 N.am      17 UNK        -0.5000 
     95 CA         -6.2654  -23.8614  -51.4722 C.3       17 UNK         0.1400 
     96 CB         -5.6849  -24.2901  -52.8314 C.3       17 UNK        -0.1800 
     97 C          -5.8202  -22.4410  -51.1038 C.2       17 UNK         0.5000 
     98 O          -4.8680  -22.2814  -50.3368 O.2       17 UNK        -0.5000 
     99 N          -6.5131  -21.4370  -51.6541 N.am      18 UNK        -0.5000 
    100 CA        -6.2397  -20.0180  -51.4272 C.3       18 UNK         0.1400 
    101 CB        -7.3399  -19.1814  -52.0985 C.3       18 UNK        -0.1800 
    102 C         -4.8606  -19.5991  -51.9632 C.2       18 UNK         0.5000 
    103 O         -4.4955  -19.9891  -53.0751 O.2       18 UNK        -0.5000 
    104 N         -4.1454  -18.7722  -51.1900 N.am      19 UNK        -0.5000 
    105 CA        -2.8190  -18.2463  -51.5270 C.3       19 UNK         0.1400 
    106 CB        -2.2785  -17.4558  -50.3294 C.3       19 UNK        -0.1800 
    107 C         -2.8140  -17.3722  -52.7954 C.2       19 UNK         0.5000 
    108 O         -1.8467  -17.4062  -53.5520 O.2       19 UNK        -0.5000 
    109 N         -3.9244  -16.6628  -53.0448 N.am      20 UNK        -0.5000 
    110 CA        -4.1557  -15.8602  -54.2496 C.3       20 UNK         0.1400 
    111 CB        -5.4422  -15.0420  -54.0611 C.3       20 UNK        -0.1800 
    112 C         -4.2329  -16.6949  -55.5461 C.2       20 UNK         0.5000 
    113 O         -3.9418  -16.1694  -56.6209 O.2       20 UNK        -0.5000 
    114 N         -4.6058  -17.9752  -55.4192 N.am      21 UNK        -0.5000 
    115 CA        -4.6169  -18.9669  -56.4958 C.3       21 UNK         0.1400 
    116 CB        -5.9073  -19.7952  -56.3697 C.3       21 UNK        -0.1800 
    117 C         -3.3753  -19.8828  -56.4455 C.2       21 UNK         0.5000 
    118 O         -3.2635  -20.7908  -57.2704 O.2       21 UNK        -0.5000 
    119 N         -2.4835  -19.6484  -55.4735 N.am      22 UNK        -0.5000 
    120 CA        -1.3278  -20.4798  -55.1111 C.3       22 UNK         0.1400 
    121 C         -1.6982  -21.9162  -54.6298 C.2       22 UNK         0.5000 
    122 N         -2.8514  -22.1135  -54.0037 N.am      22 UNK        -0.7600 
    123 O         -0.9308  -22.8604  -54.7953 O.2       22 UNK        -0.5000 
    124 C124       -0.1864  -20.4480  -56.1676 C.3       23 UNK        -0.0398 
    125 S125        0.5521  -18.7869  -56.3589 S.3       23 UNK        -0.2404 
    126 C126        2.0676  -18.9237  -55.3490 C.3       23 UNK        -0.0205 
    127 H127       -1.0149  -16.7518  -47.3611 H         1 UNK         0.0600 
    128 H128       -2.7693  -16.5987  -47.2686 H         1 UNK         0.0600 
    129 H129       -1.7535  -15.8142  -46.0546 H         1 UNK         0.0600 
    130 H130        0.0923  -15.2490  -48.6171 H         1 UNK         0.3000 
    131 H131       -1.3454  -13.1941  -50.0458 H         1 UNK         0.0600 
    132 H132        0.8303  -12.7129  -51.1303 H         1 UNK         0.0800 
    133 H133        1.6639  -13.7560  -50.0103 H         1 UNK         0.0800 
    134 H134        1.5681  -16.3357  -50.0286 H         1 UNK         0.0800 
    135 H135        2.6343  -15.7697  -51.2926 H         1 UNK         0.0800 
    136 H136        2.1113  -16.7194  -53.7353 H         1 UNK         0.1150 
    137 H137        1.3940  -20.9444  -53.6439 H         1 UNK         0.1150 
    138 H138        0.8817  -18.6120  -50.0885 H         1 UNK         0.1150 
    139 H139       -0.1385  -20.9219  -50.3242 H         1 UNK         0.0800 
    140 H140        0.1683  -21.8554  -51.7591 H         1 UNK         0.0800 
    141 H141        1.3101  -20.4854  -48.4954 H         1 UNK         0.0800 
    142 H142        2.9435  -21.0325  -48.2893 H         1 UNK         0.0800 
    143 H143        2.0653  -23.3682  -47.8018 H         1 UNK         0.0600 
    144 H144        1.0260  -21.6694  -45.6470 H         1 UNK         0.3000 
    145 H145        3.6033  -22.6917  -43.5763 H         1 UNK         0.0600 
    146 H146        4.4938  -20.4180  -43.1599 H         1 UNK         0.0600 
    147 H147        5.1595  -21.0618  -44.6497 H         1 UNK         0.0600 
    148 H148        3.8739  -19.8616  -44.7150 H         1 UNK         0.0600 
    149 H149        1.9176  -20.3698  -43.3490 H         1 UNK         0.3000 
    150 H150       -0.9272  -22.1454  -42.1170 H         1 UNK         0.0600 
    151 H151        0.5859  -21.9015  -40.1618 H         1 UNK         0.0600 
    152 H152       -0.5476  -20.5597  -40.2347 H         1 UNK         0.0600 
    153 H153        1.1243  -20.3320  -40.7447 H         1 UNK         0.0600 
    154 H154       -0.5419  -19.3753  -42.4117 H         1 UNK         0.3000 
    155 H155       -1.5404  -19.0727  -45.8511 H         1 UNK         0.0600 
    156 H156       -2.7979  -18.3028  -43.1636 H         1 UNK         0.0600 
    157 H157       -3.5915  -19.1641  -44.4725 H         1 UNK         0.0600 
    158 H158       -3.0887  -17.4978  -44.7028 H         1 UNK         0.0600 
    159 H159       -0.5506  -17.3221  -43.7354 H         1 UNK         0.3000 
    160 H160        2.7751  -17.2397  -44.9387 H         1 UNK         0.0600 
    161 H161        0.6393  -15.0566  -45.2180 H         1 UNK         0.0600 
    162 H162        1.6168  -15.6885  -46.5411 H         1 UNK         0.0600 
    163 H163        2.3895  -14.8281  -45.2206 H         1 UNK         0.0600 
    164 H164        1.3328  -15.7133  -42.9692 H         1 UNK         0.3000 
    165 H165        1.7323  -18.0280  -40.2797 H         1 UNK         0.0600 
    166 H166        2.9732  -16.1479  -39.2520 H         1 UNK         0.0600 
    167 H167        3.9823  -16.9409  -40.4506 H         1 UNK         0.0600 
    168 H168        3.2177  -15.4022  -40.8318 H         1 UNK         0.0600 
    169 H169        0.7915  -15.3830  -40.2356 H         1 UNK         0.3000 
    170 H170       -2.3595  -15.6334  -41.6218 H         1 UNK         0.0600 
    171 H171       -2.9573  -16.9583  -39.5896 H         1 UNK         0.0600 
    172 H172       -1.9473  -15.9153  -38.5956 H         1 UNK         0.0600 
    173 H173       -3.3833  -15.2669  -39.3900 H         1 UNK         0.0600 
    174 H174       -1.3477  -13.7882  -39.7116 H         1 UNK         0.3000 
    175 H175       -0.6266  -11.7884  -40.2991 H         1 UNK         0.0600 
    176 H176        1.9669  -12.4603  -41.8008 H         1 UNK         0.0600 
    177 H177        1.7607  -11.1554  -40.6326 H         1 UNK         0.0600 
    178 H178        1.6382  -12.8278  -40.1117 H         1 UNK         0.0600 
    179 H179        0.3810  -10.9562  -42.8964 H         1 UNK         0.3000 
    180 H180       -2.6595   -9.9063  -44.2567 H         1 UNK         0.0600 
    181 H181       -0.6358   -8.0251  -42.9250 H         1 UNK         0.0600 
    182 H182       -2.3748   -8.0120  -42.6585 H         1 UNK         0.0600 
    183 H183       -1.7327   -7.6015  -44.2405 H         1 UNK         0.0600 
    184 H184        0.1025   -9.3419  -44.8673 H         1 UNK         0.3000 
    185 H185        0.8669  -10.3511  -46.9203 H         1 UNK         0.0600 
    186 H186        2.7158  -11.9387  -46.1697 H         1 UNK         0.0600 
    187 H187        2.1305  -10.8986  -44.8836 H         1 UNK         0.0600 
    188 H188        1.6193  -12.5779  -44.9434 H         1 UNK         0.0600 
    189 H189        0.5695  -13.2851  -47.1344 H         1 UNK         0.3000 
    190 H190       -0.6586  -21.0251  -47.4546 H         1 UNK         0.3000 
    191 H191       -2.4003  -22.4422  -49.0725 H         1 UNK         0.0600 
    192 H192       -3.1125  -20.5486  -46.7725 H         1 UNK         0.0600 
    193 H193       -4.1510  -20.9631  -48.1231 H         1 UNK         0.0600 
    194 H194       -2.6758  -20.0589  -48.4118 H         1 UNK         0.0600 
    195 H195       -2.0540  -22.7132  -45.5396 H         1 UNK         0.3000 
    196 H196       -4.2540  -24.4768  -45.0798 H         1 UNK         0.0600 
    197 H197       -3.1611  -24.7921  -42.8634 H         1 UNK         0.0600 
    198 H198       -3.1711  -23.0912  -43.3085 H         1 UNK         0.0600 
    199 H199       -1.6890  -24.0353  -43.4613 H         1 UNK         0.0600 
    200 H200       -0.9423  -25.0769  -46.1515 H         1 UNK         0.3000 
    201 H201       -1.0771  -27.9873  -45.6867 H         1 UNK         0.0600 
    202 H202        1.0679  -26.7887  -45.3031 H         1 UNK         0.0600 
    203 H203        1.0874  -26.2406  -46.9776 H         1 UNK         0.0600 
    204 H204        1.2242  -27.9543  -46.6087 H         1 UNK         0.0600 
    205 H205       -1.1167  -25.6257  -48.3669 H         1 UNK         0.3000 
    206 H206       -1.3139  -27.4887  -50.5152 H         1 UNK         0.0600 
    207 H207       -0.5620  -25.1197  -50.7700 H         1 UNK         0.0600 
    208 H208       -1.9266  -25.4548  -51.8260 H         1 UNK         0.0600 
    209 H209       -2.1723  -24.5470  -50.3398 H         1 UNK         0.0600 
    210 H210       -3.7278  -26.0342  -48.4174 H         1 UNK         0.3000 
    211 H211       -5.8874  -26.2487  -48.0716 H         1 UNK         0.0600 
    212 H212       -5.8872  -28.7633  -49.8247 H         1 UNK         0.0600 
    213 H213       -7.1275  -28.2838  -48.6763 H         1 UNK         0.0600 
    214 H214       -5.5298  -28.7292  -48.0984 H         1 UNK         0.0600 
    215 H215       -5.0331  -24.4109  -49.8774 H         1 UNK         0.3000 
    216 H216       -7.3564  -23.8802  -51.5135 H         1 UNK         0.0600 
    217 H217       -5.9637  -23.5902  -53.6202 H         1 UNK         0.0600 
    218 H218       -6.0533  -25.2733  -53.1248 H         1 UNK         0.0600 
    219 H219       -4.5961  -24.3395  -52.8011 H         1 UNK         0.0600 
    220 H220       -7.2572  -21.6511  -52.3014 H         1 UNK         0.3000 
    221 H221       -6.2720  -19.8383  -50.3505 H         1 UNK         0.0600 
    222 H222       -7.3643  -19.3398  -53.1778 H         1 UNK         0.0600 
    223 H223       -8.3238  -19.4304  -51.7005 H         1 UNK         0.0600 
    224 H224       -7.1824  -18.1157  -51.9273 H         1 UNK         0.0600 
    225 H225       -4.5227  -18.4922  -50.2965 H         1 UNK         0.3000 
    226 H226       -2.1565  -19.0960  -51.7073 H         1 UNK         0.0600 
    227 H227       -2.2174  -18.0732  -49.4354 H         1 UNK         0.0600 
    228 H228       -1.2742  -17.0870  -50.5290 H         1 UNK         0.0600 
    229 H229       -2.9065  -16.5934  -50.1038 H         1 UNK         0.0600 
    230 H230       -4.6755  -16.6964  -52.3718 H         1 UNK         0.3000 
    231 H231       -3.3189  -15.1665  -54.3558 H         1 UNK         0.0600 
    232 H232       -5.3700  -14.3866  -53.1930 H         1 UNK         0.0600 
    233 H233       -6.3123  -15.6860  -53.9260 H         1 UNK         0.0600 
    234 H234       -5.6337  -14.4093  -54.9289 H         1 UNK         0.0600 
    235 H235       -4.7913  -18.3394  -54.4932 H         1 UNK         0.3000 
    236 H236       -4.6205  -18.4728  -57.4693 H         1 UNK         0.0600 
    237 H237       -5.9914  -20.5182  -57.1819 H         1 UNK         0.0600 
    238 H238       -5.9389  -20.3508  -55.4315 H         1 UNK         0.0600 
    239 H239       -6.7906  -19.1578  -56.4115 H         1 UNK         0.0600 
    240 H240       -2.6275  -18.8466  -54.8736 H         1 UNK         0.3000 
    241 H241       -0.9477  -20.0060  -54.2094 H         1 UNK         0.0600 
    242 H242       -3.0845  -23.0402  -53.6921 H         1 UNK         0.3800 
    243 H243       -3.4764  -21.3357  -53.8015 H         1 UNK         0.3800 
    244 H244       -0.5585  -20.7777  -57.1381 H         1 UNK         0.0800 
    245 H245        0.6105  -21.1458  -55.9091 H         1 UNK         0.0800 
    246 H246        2.7466  -18.1183  -55.6331 H         1 UNK         0.0800 
    247 H247        2.5913  -19.8521  -55.5812 H         1 UNK         0.0800 
@<TRIPOS>BOND
     1    1    2 1    
     2    1  127 1    
     3    1  128 1    
     4    1  129 1    
     5    2    3 2    
     6    2    4 am   BACKBONE|DICT|INTERRES
     7    4    5 1    
     8    4  130 1    
     9    5    6 1    
    10    5   65 1    
    11    5  131 1    
    12    6    7 1    
    13    6  132 1    
    14    6  133 1    
    15    7    8 1    
    16    8    9 1    
    17    8  134 1    
    18    8  135 1    
    19    9   10 ar   
    20    9   14 ar   
    21   10   11 ar   
    22   10  136 1    
    23   11   12 ar   
    24   11  126 1    
    25   12   13 ar   
    26   12  137 1    
    27   13   14 ar   
    28   13   15 1    
    29   14  138 1    
    30   15   16 1    
    31   15  139 1    
    32   15  140 1    
    33   16   17 1    
    34   17   18 1    
    35   17  141 1    
    36   17  142 1    
    37   18   19 1    
    38   18   67 1    
    39   18  143 1    
    40   19   20 am   BACKBONE|DICT|INTERRES
    41   19  144 1    
    42   20   21 2    
    43   20   22 1    
    44   22   23 1    
    45   22   24 1    
    46   22  145 1    
    47   23  146 1    
    48   23  147 1    
    49   23  148 1    
    50   24   25 am   BACKBONE|DICT|INTERRES
    51   24  149 1    
    52   25   26 2    
    53   25   27 1    
    54   27   28 1    
    55   27   29 1    
    56   27  150 1    
    57   28  151 1    
    58   28  152 1    
    59   28  153 1    
    60   29   30 am   BACKBONE|DICT|INTERRES
    61   29  154 1    
    62   30   31 2    
    63   30   32 1    
    64   32   33 1    
    65   32   34 1    
    66   32  155 1    
    67   33  156 1    
    68   33  157 1    
    69   33  158 1    
    70   34   35 am   BACKBONE|DICT|INTERRES
    71   34  159 1    
    72   35   36 2    
    73   35   37 1    
    74   37   38 1    
    75   37   39 1    
    76   37  160 1    
    77   38  161 1    
    78   38  162 1    
    79   38  163 1    
    80   39   40 am   BACKBONE|DICT|INTERRES
    81   39  164 1    
    82   40   41 2    
    83   40   42 1    
    84   42   43 1    
    85   42   44 1    
    86   42  165 1    
    87   43  166 1    
    88   43  167 1    
    89   43  168 1    
    90   44   45 am   BACKBONE|DICT|INTERRES
    91   44  169 1    
    92   45   46 2    
    93   45   47 1    
    94   47   48 1    
    95   47   49 1    
    96   47  170 1    
    97   48  171 1    
    98   48  172 1    
    99   48  173 1    
   100   49   50 am   BACKBONE|DICT|INTERRES
   101   49  174 1    
   102   50   51 2    
   103   50   52 1    
   104   52   53 1    
   105   52   54 1    
   106   52  175 1    
   107   53  176 1    
   108   53  177 1    
   109   53  178 1    
   110   54   55 am   BACKBONE|DICT|INTERRES
   111   54  179 1    
   112   55   56 2    
   113   55   57 1    
   114   57   58 1    
   115   57   59 1    
   116   57  180 1    
   117   58  181 1    
   118   58  182 1    
   119   58  183 1    
   120   59   60 am   BACKBONE|DICT|INTERRES
   121   59  184 1    
   122   60   61 2    
   123   60   62 1    
   124   62   63 1    
   125   62   64 1    
   126   62  185 1    
   127   63  186 1    
   128   63  187 1    
   129   63  188 1    
   130   64   65 am   BACKBONE|DICT|INTERRES
   131   64  189 1    
   132   65   66 2    
   133   67   68 2    
   134   67   69 am   BACKBONE|DICT|INTERRES
   135   69   70 1    
   136   69  190 1    
   137   70   71 1    
   138   70   72 1    
   139   70  191 1    
   140   71  192 1    
   141   71  193 1    
   142   71  194 1    
   143   72   73 2    
   144   72   74 am   BACKBONE|DICT|INTERRES
   145   74   75 1    
   146   74  195 1    
   147   75   76 1    
   148   75   77 1    
   149   75  196 1    
   150   76  197 1    
   151   76  198 1    
   152   76  199 1    
   153   77   78 2    
   154   77   79 am   BACKBONE|DICT|INTERRES
   155   79   80 1    
   156   79  200 1    
   157   80   81 1    
   158   80   82 1    
   159   80  201 1    
   160   81  202 1    
   161   81  203 1    
   162   81  204 1    
   163   82   83 2    
   164   82   84 am   BACKBONE|DICT|INTERRES
   165   84   85 1    
   166   84  205 1    
   167   85   86 1    
   168   85   87 1    
   169   85  206 1    
   170   86  207 1    
   171   86  208 1    
   172   86  209 1    
   173   87   88 2    
   174   87   89 am   BACKBONE|DICT|INTERRES
   175   89   90 1    
   176   89  210 1    
   177   90   91 1    
   178   90   92 1    
   179   90  211 1    
   180   91  212 1    
   181   91  213 1    
   182   91  214 1    
   183   92   93 2    
   184   92   94 am   BACKBONE|DICT|INTERRES
   185   94   95 1    
   186   94  215 1    
   187   95   96 1    
   188   95   97 1    
   189   95  216 1    
   190   96  217 1    
   191   96  218 1    
   192   96  219 1    
   193   97   98 2    
   194   97   99 am   BACKBONE|DICT|INTERRES
   195   99  100 1    
   196   99  220 1    
   197  100  101 1    
   198  100  102 1    
   199  100  221 1    
   200  101  222 1    
   201  101  223 1    
   202  101  224 1    
   203  102  103 2    
   204  102  104 am   BACKBONE|DICT|INTERRES
   205  104  105 1    
   206  104  225 1    
   207  105  106 1    
   208  105  107 1    
   209  105  226 1    
   210  106  227 1    
   211  106  228 1    
   212  106  229 1    
   213  107  108 2    
   214  107  109 am   BACKBONE|DICT|INTERRES
   215  109  110 1    
   216  109  230 1    
   217  110  111 1    
   218  110  112 1    
   219  110  231 1    
   220  111  232 1    
   221  111  233 1    
   222  111  234 1    
   223  112  113 2    
   224  112  114 am   BACKBONE|DICT|INTERRES
   225  114  115 1    
   226  114  235 1    
   227  115  116 1    
   228  115  117 1    
   229  115  236 1    
   230  116  237 1    
   231  116  238 1    
   232  116  239 1    
   233  117  118 2    
   234  117  119 am   BACKBONE|DICT|INTERRES
   235  119  120 1    
   236  119  240 1    
   237  120  121 1    
   238  120  124 1    
   239  120  241 1    
   240  121  122 am   BACKBONE|DICT|INTERRES
   241  121  123 2    
   242  122  242 1    
   243  122  243 1    
   244  124  125 1    
   245  124  244 1    
   246  124  245 1    
   247  125  126 1    
   248  126  246 1    
   249  126  247 1    
@<TRIPOS>SUBSTRUCTURE
     1 UNK         1 GROUP             0       ****    0 ROOT    
