@<TRIPOS>MOLECULE
3R540
247   249    1
SMALL
USER_CHARGES


@<TRIPOS>ATOM
      1 CA         -4.6648   -9.7569  -45.1182 C.3       0 UNK        -0.1800 
      2 C          -3.6902  -10.2953  -46.1565 C.2       0 UNK         0.5000 
      3 O          -4.0043  -10.3005  -47.3468 O.2       0 UNK        -0.5000 
      4 N          -2.5127  -10.7451  -45.7119 N.am      1 UNK        -0.5000 
      5 CA         -1.4384  -11.2644  -46.5568 C.3       1 UNK         0.1400 
      6 C6         -1.7293  -12.6932  -47.0876 C.3       23 UNK        -0.0398 
      7 S7         -0.4445  -13.3326  -48.2135 S.3       23 UNK        -0.2404 
      8 C8         -1.4020  -14.5751  -49.1282 C.3       23 UNK        -0.0205 
      9 C9         -0.4911  -15.4878  -49.9313 C.ar      23 UNK        -0.0193 
     10 C10        -0.2567  -15.2469  -51.2877 C.ar      23 UNK        -0.1150 
     11 C11         0.5599  -16.1074  -52.0264 C.ar      23 UNK        -0.0193 
     12 C12         1.1547  -17.2016  -51.3918 C.ar      23 UNK        -0.1150 
     13 C13         0.9157  -17.4706  -50.0420 C.ar      23 UNK        -0.0193 
     14 C14         0.0994  -16.5938  -49.3151 C.ar      23 UNK        -0.1150 
     15 C15         1.5514  -18.7262  -49.4404 C.3       23 UNK        -0.0205 
     16 S16         1.1182  -19.1008  -47.7082 S.3       23 UNK        -0.2404 
     17 C17        -0.6289  -19.6175  -47.8371 C.3       23 UNK        -0.0398 
     18 CA         -0.8792  -21.0527  -47.3088 C.3       11 UNK         0.1400 
     19 N          -0.2709  -21.2911  -45.9960 N.am      11 UNK        -0.5000 
     20 C          -0.1289  -22.4896  -45.4145 C.2       10 UNK         0.5000 
     21 O          -0.4564  -23.5494  -45.9460 O.2       10 UNK        -0.5000 
     22 CA          0.4275  -22.4978  -43.9776 C.3       10 UNK         0.1400 
     23 CB          1.9570  -22.6079  -43.9789 C.3       10 UNK        -0.1800 
     24 N           0.0225  -21.3097  -43.2243 N.am      10 UNK        -0.5000 
     25 C          -1.2341  -21.0913  -42.8087 C.2       9 UNK         0.5000 
     26 O          -2.1521  -21.8939  -42.9719 O.2       9 UNK        -0.5000 
     27 CA         -1.5316  -19.7322  -42.1533 C.3       9 UNK         0.1400 
     28 CB         -1.3186  -19.8119  -40.6356 C.3       9 UNK        -0.1800 
     29 N          -0.7346  -18.6442  -42.7289 N.am      9 UNK        -0.5000 
     30 C          -0.8919  -18.2004  -43.9867 C.2       8 UNK         0.5000 
     31 O          -1.7301  -18.6769  -44.7541 O.2       8 UNK        -0.5000 
     32 CA          0.0528  -17.0980  -44.5110 C.3       8 UNK         0.1400 
     33 CB         -0.6959  -16.0269  -45.3321 C.3       8 UNK        -0.1800 
     34 N           0.9172  -16.5039  -43.4882 N.am      8 UNK        -0.5000 
     35 C           0.5834  -15.6810  -42.4839 C.2       7 UNK         0.5000 
     36 O          -0.5366  -15.1926  -42.3340 O.2       7 UNK        -0.5000 
     37 CA          1.7080  -15.3704  -41.4700 C.3       7 UNK         0.1400 
     38 CB          1.1709  -14.9138  -40.0972 C.3       7 UNK        -0.1800 
     39 N           2.6646  -16.4801  -41.3256 N.am      7 UNK        -0.5000 
     40 C           2.3838  -17.7148  -40.8836 C.2       6 UNK         0.5000 
     41 O           1.2612  -18.0565  -40.5154 O.2       6 UNK        -0.5000 
     42 CA          3.5342  -18.7422  -40.9008 C.3       6 UNK         0.1400 
     43 CB          3.0638  -20.1679  -40.5394 C.3       6 UNK        -0.1800 
     44 N           4.2783  -18.7634  -42.1647 N.am      6 UNK        -0.5000 
     45 C           3.8068  -19.0251  -43.3919 C.2       5 UNK         0.5000 
     46 O           2.6114  -19.1918  -43.6487 O.2       5 UNK        -0.5000 
     47 CA          4.8697  -19.0879  -44.5123 C.3       5 UNK         0.1400 
     48 CB          4.3166  -19.6345  -45.8371 C.3       5 UNK        -0.1800 
     49 N           5.4426  -17.7724  -44.7790 N.am      5 UNK        -0.5000 
     50 C           6.3255  -17.1177  -44.0152 C.2       4 UNK         0.5000 
     51 O           6.8452  -17.6006  -43.0078 O.2       4 UNK        -0.5000 
     52 CA          6.6517  -15.6661  -44.4268 C.3       4 UNK         0.1400 
     53 CB          7.9763  -15.6138  -45.2029 C.3       4 UNK        -0.1800 
     54 N           5.6030  -15.0150  -45.2251 N.am      4 UNK        -0.5000 
     55 C           4.3459  -14.8049  -44.8113 C.2       3 UNK         0.5000 
     56 O           3.9220  -15.1789  -43.7166 O.2       3 UNK        -0.5000 
     57 CA          3.3937  -14.1238  -45.8128 C.3       3 UNK         0.1400 
     58 CB          2.8430  -15.1649  -46.8026 C.3       3 UNK        -0.1800 
     59 N           2.2693  -13.4573  -45.1509 N.am      3 UNK        -0.5000 
     60 C           2.3738  -12.4123  -44.3172 C.2       2 UNK         0.5000 
     61 O           3.4395  -11.8492  -44.0592 O.2       2 UNK        -0.5000 
     62 CA          1.0566  -11.9183  -43.6763 C.3       2 UNK         0.1400 
     63 CB          1.2085  -10.5694  -42.9423 C.3       2 UNK        -0.1800 
     64 N          -0.0677  -11.8699  -44.6204 N.am      2 UNK        -0.5000 
     65 C          -0.1274  -11.1603  -45.7605 C.2       1 UNK         0.5000 
     66 O           0.7701  -10.4206  -46.1658 O.2       1 UNK        -0.5000 
     67 C          -2.3894  -21.3601  -47.2621 C.2       11 UNK         0.5000 
     68 O          -2.9051  -22.0486  -48.1430 O.2       11 UNK        -0.5000 
     69 N          -3.0564  -20.8891  -46.1971 N.am      12 UNK        -0.5000 
     70 CA         -4.4602  -21.1676  -45.8967 C.3       12 UNK         0.1400 
     71 CB         -4.9150  -20.2989  -44.7150 C.3       12 UNK        -0.1800 
     72 C          -4.7253  -22.6593  -45.6207 C.2       12 UNK         0.5000 
     73 O          -5.7128  -23.1966  -46.1211 O.2       12 UNK        -0.5000 
     74 N          -3.8206  -23.3188  -44.8812 N.am      13 UNK        -0.5000 
     75 CA         -3.8531  -24.7615  -44.6141 C.3       13 UNK         0.1400 
     76 CB         -2.7821  -25.1191  -43.5736 C.3       13 UNK        -0.1800 
     77 C          -3.6839  -25.6206  -45.8837 C.2       13 UNK         0.5000 
     78 O          -4.2585  -26.7065  -45.9623 O.2       13 UNK        -0.5000 
     79 N          -2.9432  -25.0993  -46.8713 N.am      14 UNK        -0.5000 
     80 CA         -2.7949  -25.6681  -48.2130 C.3       14 UNK         0.1400 
     81 CB         -1.4731  -25.1686  -48.8222 C.3       14 UNK        -0.1800 
     82 C          -3.9898  -25.3624  -49.1453 C.2       14 UNK         0.5000 
     83 O          -3.9433  -25.7474  -50.3127 O.2       14 UNK        -0.5000 
     84 N          -5.0242  -24.6800  -48.6282 N.am      15 UNK        -0.5000 
     85 CA         -6.2644  -24.2609  -49.2918 C.3       15 UNK         0.1400 
     86 CB         -7.0676  -25.4674  -49.8189 C.3       15 UNK        -0.1800 
     87 C          -6.0820  -23.1303  -50.3261 C.2       15 UNK         0.5000 
     88 O          -6.9913  -22.8773  -51.1181 O.2       15 UNK        -0.5000 
     89 N          -4.9427  -22.4281  -50.2478 N.am      16 UNK        -0.5000 
     90 CA         -4.5925  -21.1942  -50.9501 C.3       16 UNK         0.1400 
     91 CB         -5.2746  -19.9999  -50.2475 C.3       16 UNK        -0.1800 
     92 C          -4.8231  -21.2377  -52.4781 C.2       16 UNK         0.5000 
     93 O          -4.5530  -22.2575  -53.1173 O.2       16 UNK        -0.5000 
     94 N          -5.2925  -20.1217  -53.0524 N.am      17 UNK        -0.5000 
     95 CA         -5.5242  -19.9271  -54.4849 C.3       17 UNK         0.1400 
     96 CB         -5.9224  -18.4653  -54.7323 C.3       17 UNK        -0.1800 
     97 C          -6.5619  -20.8858  -55.0979 C.2       17 UNK         0.5000 
     98 O          -6.4532  -21.2015  -56.2824 O.2       17 UNK        -0.5000 
     99 N          -7.5100  -21.3752  -54.2857 N.am      18 UNK        -0.5000 
    100 CA        -8.5186  -22.3606  -54.6873 C.3       18 UNK         0.1400 
    101 CB        -9.5839  -22.4772  -53.5869 C.3       18 UNK        -0.1800 
    102 C         -7.9221  -23.7438  -55.0204 C.2       18 UNK         0.5000 
    103 O         -8.5038  -24.4732  -55.8240 O.2       18 UNK        -0.5000 
    104 N         -6.7647  -24.0618  -54.4264 N.am      19 UNK        -0.5000 
    105 CA        -5.9757  -25.2653  -54.6944 C.3       19 UNK         0.1400 
    106 CB        -5.6154  -25.9119  -53.3502 C.3       19 UNK        -0.1800 
    107 C         -4.7122  -24.9564  -55.5233 C.2       19 UNK         0.5000 
    108 O         -3.8629  -25.8350  -55.6767 O.2       19 UNK        -0.5000 
    109 N         -4.6011  -23.7189  -56.0321 N.am      20 UNK        -0.5000 
    110 CA        -3.4798  -23.1599  -56.7961 C.3       20 UNK         0.1400 
    111 CB        -3.3072  -23.8921  -58.1433 C.3       20 UNK        -0.1800 
    112 C         -2.1608  -23.0573  -55.9963 C.2       20 UNK         0.5000 
    113 O         -1.0888  -22.9693  -56.5970 O.2       20 UNK        -0.5000 
    114 N         -2.2551  -23.0306  -54.6593 N.am      21 UNK        -0.5000 
    115 CA        -1.1266  -22.8357  -53.7452 C.3       21 UNK         0.1400 
    116 CB        -1.4466  -23.5170  -52.4029 C.3       21 UNK        -0.1800 
    117 C         -0.7917  -21.3444  -53.5346 C.2       21 UNK         0.5000 
    118 O          0.2784  -21.0430  -53.0057 O.2       21 UNK        -0.5000 
    119 N         -1.7050  -20.4566  -53.9592 N.am      22 UNK        -0.5000 
    120 CA        -1.7097  -18.9973  -53.7633 C.3       22 UNK         0.1400 
    121 C         -2.0756  -18.5913  -52.3051 C.2       22 UNK         0.5000 
    122 N         -2.7717  -17.4775  -52.1246 N.am      22 UNK        -0.7600 
    123 O         -1.7672  -19.2786  -51.3372 O.2       22 UNK        -0.5000 
    124 C124       -0.4175  -18.3179  -54.2973 C.3       23 UNK        -0.0398 
    125 S125       -0.5687  -16.5122  -54.5429 S.3       23 UNK        -0.2404 
    126 C126        0.7909  -15.8646  -53.5113 C.3       23 UNK        -0.0205 
    127 H127       -4.2571   -9.8167  -44.1088 H         1 UNK         0.0600 
    128 H128       -5.5932  -10.3275  -45.1439 H         1 UNK         0.0600 
    129 H129       -4.8989   -8.7134  -45.3289 H         1 UNK         0.0600 
    130 H130       -2.2914  -10.6712  -44.7281 H         1 UNK         0.3000 
    131 H131       -1.3389  -10.5992  -47.4178 H         1 UNK         0.0600 
    132 H132       -2.6770  -12.6907  -47.6273 H         1 UNK         0.0800 
    133 H133       -1.8581  -13.3973  -46.2650 H         1 UNK         0.0800 
    134 H134       -2.1157  -14.0738  -49.7839 H         1 UNK         0.0800 
    135 H135       -1.9897  -15.1717  -48.4286 H         1 UNK         0.0800 
    136 H136       -0.7209  -14.3998  -51.7728 H         1 UNK         0.1150 
    137 H137        1.7902  -17.8682  -51.9572 H         1 UNK         0.1150 
    138 H138       -0.0937  -16.7625  -48.2676 H         1 UNK         0.1150 
    139 H139        2.6355  -18.6214  -49.4980 H         1 UNK         0.0800 
    140 H140        1.2902  -19.5876  -50.0578 H         1 UNK         0.0800 
    141 H141       -0.9515  -19.5460  -48.8761 H         1 UNK         0.0800 
    142 H142       -1.2263  -18.8862  -47.2922 H         1 UNK         0.0800 
    143 H143       -0.4223  -21.7510  -48.0134 H         1 UNK         0.0600 
    144 H144        0.0212  -20.4705  -45.4874 H         1 UNK         0.3000 
    145 H145        0.0294  -23.3783  -43.4696 H         1 UNK         0.0600 
    146 H146        2.4135  -21.7532  -44.4730 H         1 UNK         0.0600 
    147 H147        2.2841  -23.5060  -44.5043 H         1 UNK         0.0600 
    148 H148        2.3517  -22.6596  -42.9641 H         1 UNK         0.0600 
    149 H149        0.7214  -20.5906  -43.0851 H         1 UNK         0.3000 
    150 H150       -2.5842  -19.5010  -42.3295 H         1 UNK         0.0600 
    151 H151       -0.3080  -20.1368  -40.3862 H         1 UNK         0.0600 
    152 H152       -2.0083  -20.5269  -40.1855 H         1 UNK         0.0600 
    153 H153       -1.4916  -18.8471  -40.1585 H         1 UNK         0.0600 
    154 H154       -0.0164  -18.2424  -42.1359 H         1 UNK         0.3000 
    155 H155        0.7342  -17.6069  -45.1923 H         1 UNK         0.0600 
    156 H156       -1.4526  -15.5128  -44.7399 H         1 UNK         0.0600 
    157 H157       -1.2102  -16.4762  -46.1817 H         1 UNK         0.0600 
    158 H158       -0.0124  -15.2797  -45.7310 H         1 UNK         0.0600 
    159 H159        1.8670  -16.8534  -43.4864 H         1 UNK         0.3000 
    160 H160        2.2666  -14.5310  -41.8832 H         1 UNK         0.0600 
    161 H161        0.5203  -15.6620  -39.6438 H         1 UNK         0.0600 
    162 H162        0.5918  -13.9945  -40.1916 H         1 UNK         0.0600 
    163 H163        1.9860  -14.7118  -39.4025 H         1 UNK         0.0600 
    164 H164        3.5905  -16.2945  -41.6902 H         1 UNK         0.3000 
    165 H165        4.2388  -18.4224  -40.1320 H         1 UNK         0.0600 
    166 H166        2.6056  -20.1900  -39.5499 H         1 UNK         0.0600 
    167 H167        2.3261  -20.5445  -41.2485 H         1 UNK         0.0600 
    168 H168        3.8997  -20.8670  -40.5239 H         1 UNK         0.0600 
    169 H169        5.2700  -18.5588  -42.0943 H         1 UNK         0.3000 
    170 H170        5.6635  -19.7594  -44.1786 H         1 UNK         0.0600 
    171 H171        5.0998  -19.7053  -46.5919 H         1 UNK         0.0600 
    172 H172        3.8993  -20.6326  -45.7158 H         1 UNK         0.0600 
    173 H173        3.5336  -18.9888  -46.2311 H         1 UNK         0.0600 
    174 H174        5.0600  -17.2774  -45.5701 H         1 UNK         0.3000 
    175 H175        6.7708  -15.0902  -43.5068 H         1 UNK         0.0600 
    176 H176        8.7855  -16.0650  -44.6269 H         1 UNK         0.0600 
    177 H177        7.9088  -16.1504  -46.1501 H         1 UNK         0.0600 
    178 H178        8.2681  -14.5857  -45.4181 H         1 UNK         0.0600 
    179 H179        5.8759  -14.6950  -46.1433 H         1 UNK         0.3000 
    180 H180        3.9533  -13.3682  -46.3679 H         1 UNK         0.0600 
    181 H181        2.3004  -15.9615  -46.2932 H         1 UNK         0.0600 
    182 H182        3.6478  -15.6335  -47.3701 H         1 UNK         0.0600 
    183 H183        2.1680  -14.7085  -47.5263 H         1 UNK         0.0600 
    184 H184        1.3566  -13.8525  -45.3130 H         1 UNK         0.3000 
    185 H185        0.7902  -12.6621  -42.9251 H         1 UNK         0.0600 
    186 H186        1.9553  -10.6373  -42.1503 H         1 UNK         0.0600 
    187 H187        1.5201   -9.7721  -43.6176 H         1 UNK         0.0600 
    188 H188        0.2710  -10.2666  -42.4760 H         1 UNK         0.0600 
    189 H189       -0.8562  -12.4528  -44.3761 H         1 UNK         0.3000 
    190 H190       -2.5632  -20.2888  -45.5429 H         1 UNK         0.3000 
    191 H191       -5.0480  -20.8839  -46.7720 H         1 UNK         0.0600 
    192 H192       -4.7705  -19.2391  -44.9262 H         1 UNK         0.0600 
    193 H193       -5.9750  -20.4488  -44.5066 H         1 UNK         0.0600 
    194 H194       -4.3653  -20.5355  -43.8042 H         1 UNK         0.0600 
    195 H195       -3.0748  -22.7919  -44.4361 H         1 UNK         0.3000 
    196 H196       -4.8305  -24.9959  -44.1875 H         1 UNK         0.0600 
    197 H197       -2.8238  -26.1790  -43.3198 H         1 UNK         0.0600 
    198 H198       -2.9245  -24.5584  -42.6497 H         1 UNK         0.0600 
    199 H199       -1.7784  -24.9110  -43.9430 H         1 UNK         0.0600 
    200 H200       -2.4650  -24.2225  -46.7033 H         1 UNK         0.3000 
    201 H201       -2.7309  -26.7543  -48.1243 H         1 UNK         0.0600 
    202 H202       -1.2840  -25.6367  -49.7889 H         1 UNK         0.0600 
    203 H203       -0.6270  -25.4064  -48.1772 H         1 UNK         0.0600 
    204 H204       -1.4804  -24.0904  -48.9790 H         1 UNK         0.0600 
    205 H205       -4.9531  -24.3818  -47.6623 H         1 UNK         0.3000 
    206 H206       -6.8705  -23.8107  -48.5051 H         1 UNK         0.0600 
    207 H207       -7.3086  -26.1563  -49.0095 H         1 UNK         0.0600 
    208 H208       -8.0115  -25.1533  -50.2658 H         1 UNK         0.0600 
    209 H209       -6.5182  -26.0260  -50.5731 H         1 UNK         0.0600 
    210 H210       -4.2656  -22.7130  -49.5483 H         1 UNK         0.3000 
    211 H211       -3.5170  -21.0876  -50.8152 H         1 UNK         0.0600 
    212 H212       -5.0656  -20.0103  -49.1776 H         1 UNK         0.0600 
    213 H213       -4.9061  -19.0460  -50.6258 H         1 UNK         0.0600 
    214 H214       -6.3580  -20.0209  -50.3728 H         1 UNK         0.0600 
    215 H215       -5.4953  -19.3314  -52.4572 H         1 UNK         0.3000 
    216 H216       -4.5797  -20.1112  -54.9994 H         1 UNK         0.0600 
    217 H217       -6.8492  -18.2087  -54.2177 H         1 UNK         0.0600 
    218 H218       -6.0738  -18.2753  -55.7959 H         1 UNK         0.0600 
    219 H219       -5.1466  -17.7805  -54.3893 H         1 UNK         0.0600 
    220 H220       -7.5038  -21.1033  -53.3127 H         1 UNK         0.3000 
    221 H221       -9.0063  -21.9898  -55.5913 H         1 UNK         0.0600 
    222 H222       -9.1613  -22.8489  -52.6534 H         1 UNK         0.0600 
    223 H223      -10.0511  -21.5133  -53.3848 H         1 UNK         0.0600 
    224 H224      -10.3761  -23.1659  -53.8834 H         1 UNK         0.0600 
    225 H225       -6.3544  -23.4021  -53.7746 H         1 UNK         0.3000 
    226 H226       -6.5589  -25.9870  -55.2693 H         1 UNK         0.0600 
    227 H227       -6.5175  -26.2206  -52.8242 H         1 UNK         0.0600 
    228 H228       -5.0004  -26.8027  -53.4820 H         1 UNK         0.0600 
    229 H229       -5.0656  -25.2209  -52.7099 H         1 UNK         0.0600 
    230 H230       -5.3695  -23.0801  -55.8714 H         1 UNK         0.3000 
    231 H231       -3.7644  -22.1317  -57.0232 H         1 UNK         0.0600 
    232 H232       -2.9409  -24.9102  -58.0090 H         1 UNK         0.0600 
    233 H233       -2.5935  -23.3720  -58.7832 H         1 UNK         0.0600 
    234 H234       -4.2500  -23.9429  -58.6879 H         1 UNK         0.0600 
    235 H235       -3.1747  -23.0685  -54.2284 H         1 UNK         0.3000 
    236 H236       -0.2398  -23.3170  -54.1628 H         1 UNK         0.0600 
    237 H237       -2.2986  -23.0565  -51.9035 H         1 UNK         0.0600 
    238 H238       -1.6742  -24.5744  -52.5395 H         1 UNK         0.0600 
    239 H239       -0.5984  -23.4528  -51.7204 H         1 UNK         0.0600 
    240 H240       -2.5445  -20.8421  -54.3620 H         1 UNK         0.3000 
    241 H241       -2.5323  -18.6518  -54.3908 H         1 UNK         0.0600 
    242 H242       -2.9913  -17.1965  -51.1837 H         1 UNK         0.3800 
    243 H243       -2.9925  -16.8639  -52.8924 H         1 UNK         0.3800 
    244 H244       -0.1640  -18.7430  -55.2692 H         1 UNK         0.0800 
    245 H245        0.4317  -18.5434  -53.6560 H         1 UNK         0.0800 
    246 H246        0.8885  -14.7931  -53.6917 H         1 UNK         0.0800 
    247 H247        1.7335  -16.3118  -53.8311 H         1 UNK         0.0800 
@<TRIPOS>BOND
     1    1    2 1    
     2    1  127 1    
     3    1  128 1    
     4    1  129 1    
     5    2    3 2    
     6    2    4 am   BACKBONE|DICT|INTERRES
     7    4    5 1    
     8    4  130 1    
     9    5    6 1    
    10    5   65 1    
    11    5  131 1    
    12    6    7 1    
    13    6  132 1    
    14    6  133 1    
    15    7    8 1    
    16    8    9 1    
    17    8  134 1    
    18    8  135 1    
    19    9   10 ar   
    20    9   14 ar   
    21   10   11 ar   
    22   10  136 1    
    23   11   12 ar   
    24   11  126 1    
    25   12   13 ar   
    26   12  137 1    
    27   13   14 ar   
    28   13   15 1    
    29   14  138 1    
    30   15   16 1    
    31   15  139 1    
    32   15  140 1    
    33   16   17 1    
    34   17   18 1    
    35   17  141 1    
    36   17  142 1    
    37   18   19 1    
    38   18   67 1    
    39   18  143 1    
    40   19   20 am   BACKBONE|DICT|INTERRES
    41   19  144 1    
    42   20   21 2    
    43   20   22 1    
    44   22   23 1    
    45   22   24 1    
    46   22  145 1    
    47   23  146 1    
    48   23  147 1    
    49   23  148 1    
    50   24   25 am   BACKBONE|DICT|INTERRES
    51   24  149 1    
    52   25   26 2    
    53   25   27 1    
    54   27   28 1    
    55   27   29 1    
    56   27  150 1    
    57   28  151 1    
    58   28  152 1    
    59   28  153 1    
    60   29   30 am   BACKBONE|DICT|INTERRES
    61   29  154 1    
    62   30   31 2    
    63   30   32 1    
    64   32   33 1    
    65   32   34 1    
    66   32  155 1    
    67   33  156 1    
    68   33  157 1    
    69   33  158 1    
    70   34   35 am   BACKBONE|DICT|INTERRES
    71   34  159 1    
    72   35   36 2    
    73   35   37 1    
    74   37   38 1    
    75   37   39 1    
    76   37  160 1    
    77   38  161 1    
    78   38  162 1    
    79   38  163 1    
    80   39   40 am   BACKBONE|DICT|INTERRES
    81   39  164 1    
    82   40   41 2    
    83   40   42 1    
    84   42   43 1    
    85   42   44 1    
    86   42  165 1    
    87   43  166 1    
    88   43  167 1    
    89   43  168 1    
    90   44   45 am   BACKBONE|DICT|INTERRES
    91   44  169 1    
    92   45   46 2    
    93   45   47 1    
    94   47   48 1    
    95   47   49 1    
    96   47  170 1    
    97   48  171 1    
    98   48  172 1    
    99   48  173 1    
   100   49   50 am   BACKBONE|DICT|INTERRES
   101   49  174 1    
   102   50   51 2    
   103   50   52 1    
   104   52   53 1    
   105   52   54 1    
   106   52  175 1    
   107   53  176 1    
   108   53  177 1    
   109   53  178 1    
   110   54   55 am   BACKBONE|DICT|INTERRES
   111   54  179 1    
   112   55   56 2    
   113   55   57 1    
   114   57   58 1    
   115   57   59 1    
   116   57  180 1    
   117   58  181 1    
   118   58  182 1    
   119   58  183 1    
   120   59   60 am   BACKBONE|DICT|INTERRES
   121   59  184 1    
   122   60   61 2    
   123   60   62 1    
   124   62   63 1    
   125   62   64 1    
   126   62  185 1    
   127   63  186 1    
   128   63  187 1    
   129   63  188 1    
   130   64   65 am   BACKBONE|DICT|INTERRES
   131   64  189 1    
   132   65   66 2    
   133   67   68 2    
   134   67   69 am   BACKBONE|DICT|INTERRES
   135   69   70 1    
   136   69  190 1    
   137   70   71 1    
   138   70   72 1    
   139   70  191 1    
   140   71  192 1    
   141   71  193 1    
   142   71  194 1    
   143   72   73 2    
   144   72   74 am   BACKBONE|DICT|INTERRES
   145   74   75 1    
   146   74  195 1    
   147   75   76 1    
   148   75   77 1    
   149   75  196 1    
   150   76  197 1    
   151   76  198 1    
   152   76  199 1    
   153   77   78 2    
   154   77   79 am   BACKBONE|DICT|INTERRES
   155   79   80 1    
   156   79  200 1    
   157   80   81 1    
   158   80   82 1    
   159   80  201 1    
   160   81  202 1    
   161   81  203 1    
   162   81  204 1    
   163   82   83 2    
   164   82   84 am   BACKBONE|DICT|INTERRES
   165   84   85 1    
   166   84  205 1    
   167   85   86 1    
   168   85   87 1    
   169   85  206 1    
   170   86  207 1    
   171   86  208 1    
   172   86  209 1    
   173   87   88 2    
   174   87   89 am   BACKBONE|DICT|INTERRES
   175   89   90 1    
   176   89  210 1    
   177   90   91 1    
   178   90   92 1    
   179   90  211 1    
   180   91  212 1    
   181   91  213 1    
   182   91  214 1    
   183   92   93 2    
   184   92   94 am   BACKBONE|DICT|INTERRES
   185   94   95 1    
   186   94  215 1    
   187   95   96 1    
   188   95   97 1    
   189   95  216 1    
   190   96  217 1    
   191   96  218 1    
   192   96  219 1    
   193   97   98 2    
   194   97   99 am   BACKBONE|DICT|INTERRES
   195   99  100 1    
   196   99  220 1    
   197  100  101 1    
   198  100  102 1    
   199  100  221 1    
   200  101  222 1    
   201  101  223 1    
   202  101  224 1    
   203  102  103 2    
   204  102  104 am   BACKBONE|DICT|INTERRES
   205  104  105 1    
   206  104  225 1    
   207  105  106 1    
   208  105  107 1    
   209  105  226 1    
   210  106  227 1    
   211  106  228 1    
   212  106  229 1    
   213  107  108 2    
   214  107  109 am   BACKBONE|DICT|INTERRES
   215  109  110 1    
   216  109  230 1    
   217  110  111 1    
   218  110  112 1    
   219  110  231 1    
   220  111  232 1    
   221  111  233 1    
   222  111  234 1    
   223  112  113 2    
   224  112  114 am   BACKBONE|DICT|INTERRES
   225  114  115 1    
   226  114  235 1    
   227  115  116 1    
   228  115  117 1    
   229  115  236 1    
   230  116  237 1    
   231  116  238 1    
   232  116  239 1    
   233  117  118 2    
   234  117  119 am   BACKBONE|DICT|INTERRES
   235  119  120 1    
   236  119  240 1    
   237  120  121 1    
   238  120  124 1    
   239  120  241 1    
   240  121  122 am   BACKBONE|DICT|INTERRES
   241  121  123 2    
   242  122  242 1    
   243  122  243 1    
   244  124  125 1    
   245  124  244 1    
   246  124  245 1    
   247  125  126 1    
   248  126  246 1    
   249  126  247 1    
@<TRIPOS>SUBSTRUCTURE
     1 UNK         1 GROUP             0       ****    0 ROOT    
