@<TRIPOS>MOLECULE
3R540
247   249    1
SMALL
USER_CHARGES


@<TRIPOS>ATOM
      1 CA          8.1153  -11.0936  -50.8311 C.3       0 UNK        -0.1800 
      2 C           6.8785  -11.5073  -50.0447 C.2       0 UNK         0.5000 
      3 O           5.8231  -11.7077  -50.6449 O.2       0 UNK        -0.5000 
      4 N           7.0237  -11.6255  -48.7164 N.am      1 UNK        -0.5000 
      5 CA          6.0125  -11.9979  -47.7144 C.3       1 UNK         0.1400 
      6 C6          5.7936  -13.5370  -47.5891 C.3       23 UNK        -0.0398 
      7 S7          4.8684  -14.3423  -48.9452 S.3       23 UNK        -0.2404 
      8 C8          3.8922  -15.5662  -48.0224 C.3       23 UNK        -0.0205 
      9 C9          2.9534  -16.3361  -48.9354 C.ar      23 UNK        -0.0193 
     10 C10         1.7816  -15.7312  -49.3995 C.ar      23 UNK        -0.1150 
     11 C11         0.8960  -16.4383  -50.2155 C.ar      23 UNK        -0.0193 
     12 C12         1.1926  -17.7561  -50.5709 C.ar      23 UNK        -0.1150 
     13 C13         2.3671  -18.3681  -50.1289 C.ar      23 UNK        -0.0193 
     14 C14         3.2438  -17.6535  -49.3064 C.ar      23 UNK        -0.1150 
     15 C15         2.7046  -19.7837  -50.5751 C.3       23 UNK        -0.0205 
     16 S16         2.4278  -21.0156  -49.2660 S.3       23 UNK        -0.2404 
     17 C17         0.6067  -21.0989  -49.1910 C.3       23 UNK        -0.0398 
     18 CA          0.1337  -22.2854  -48.3149 C.3       11 UNK         0.1400 
     19 N           0.4947  -22.1329  -46.8989 N.am      11 UNK        -0.5000 
     20 C           0.3809  -23.1017  -45.9785 C.2       10 UNK         0.5000 
     21 O           0.0155  -24.2468  -46.2412 O.2       10 UNK        -0.5000 
     22 CA          0.6630  -22.7242  -44.5115 C.3       10 UNK         0.1400 
     23 CB          2.1675  -22.7561  -44.2051 C.3       10 UNK        -0.1800 
     24 N           0.1015  -21.4218  -44.1507 N.am      10 UNK        -0.5000 
     25 C          -1.2116  -21.1523  -44.1127 C.2       9 UNK         0.5000 
     26 O          -2.0829  -21.9995  -44.3036 O.2       9 UNK        -0.5000 
     27 CA         -1.6242  -19.6855  -43.8826 C.3       9 UNK         0.1400 
     28 CB         -1.6614  -19.3459  -42.3857 C.3       9 UNK        -0.1800 
     29 N          -0.7529  -18.7433  -44.5853 N.am      9 UNK        -0.5000 
     30 C          -0.6317  -18.6786  -45.9194 C.2       8 UNK         0.5000 
     31 O          -1.2990  -19.3552  -46.7009 O.2       8 UNK        -0.5000 
     32 CA          0.4585  -17.7441  -46.4666 C.3       8 UNK         0.1400 
     33 CB         -0.0642  -16.3068  -46.5597 C.3       8 UNK        -0.1800 
     34 N           1.6708  -17.7816  -45.6466 N.am      8 UNK        -0.5000 
     35 C           2.4816  -18.8465  -45.5664 C.2       7 UNK         0.5000 
     36 O           2.2953  -19.8868  -46.1923 O.2       7 UNK        -0.5000 
     37 CA          3.6592  -18.7636  -44.5772 C.3       7 UNK         0.1400 
     38 CB          4.8539  -18.0298  -45.2021 C.3       7 UNK        -0.1800 
     39 N           3.2938  -18.1049  -43.3248 N.am      7 UNK        -0.5000 
     40 C           2.4061  -18.5832  -42.4418 C.2       6 UNK         0.5000 
     41 O           1.8663  -19.6836  -42.5469 O.2       6 UNK        -0.5000 
     42 CA          2.0163  -17.6468  -41.2802 C.3       6 UNK         0.1400 
     43 CB          2.9162  -17.8954  -40.0610 C.3       6 UNK        -0.1800 
     44 N           2.0756  -16.2272  -41.6481 N.am      6 UNK        -0.5000 
     45 C           1.3137  -15.6588  -42.5926 C.2       5 UNK         0.5000 
     46 O           0.4457  -16.2691  -43.2208 O.2       5 UNK        -0.5000 
     47 CA          1.6552  -14.1999  -42.9492 C.3       5 UNK         0.1400 
     48 CB          2.8838  -14.1617  -43.8741 C.3       5 UNK        -0.1800 
     49 N           0.5493  -13.4991  -43.6045 N.am      5 UNK        -0.5000 
     50 C          -0.5805  -13.1217  -42.9865 C.2       4 UNK         0.5000 
     51 O          -0.8014  -13.3416  -41.7942 O.2       4 UNK        -0.5000 
     52 CA         -1.6271  -12.3308  -43.8009 C.3       4 UNK         0.1400 
     53 CB         -1.7924  -10.9123  -43.2298 C.3       4 UNK        -0.1800 
     54 N          -1.2824  -12.2135  -45.2177 N.am      4 UNK        -0.5000 
     55 C          -1.6681  -13.0602  -46.1803 C.2       3 UNK         0.5000 
     56 O          -2.4259  -14.0104  -45.9872 O.2       3 UNK        -0.5000 
     57 CA         -1.1148  -12.8089  -47.6007 C.3       3 UNK         0.1400 
     58 CB         -2.2219  -12.3016  -48.5373 C.3       3 UNK        -0.1800 
     59 N           0.0170  -11.8748  -47.6520 N.am      3 UNK        -0.5000 
     60 C           1.2357  -12.1377  -47.1666 C.2       2 UNK         0.5000 
     61 O           1.5268  -13.1876  -46.5912 O.2       2 UNK        -0.5000 
     62 CA          2.2872  -11.0307  -47.2865 C.3       2 UNK         0.1400 
     63 CB          2.1801  -10.0567  -46.0986 C.3       2 UNK        -0.1800 
     64 N           3.5986  -11.6661  -47.3020 N.am      2 UNK        -0.5000 
     65 C           4.7322  -11.1219  -47.7554 C.2       1 UNK         0.5000 
     66 O           4.8040   -9.9541  -48.1490 O.2       1 UNK        -0.5000 
     67 C          -1.3751  -22.5590  -48.4983 C.2       11 UNK         0.5000 
     68 O          -1.7357  -23.4171  -49.3038 O.2       11 UNK        -0.5000 
     69 N          -2.2267  -21.8762  -47.7191 N.am      12 UNK        -0.5000 
     70 CA         -3.6694  -22.1201  -47.6603 C.3       12 UNK         0.1400 
     71 CB         -4.3577  -21.0192  -46.8406 C.3       12 UNK        -0.1800 
     72 C          -4.0146  -23.5160  -47.1139 C.2       12 UNK         0.5000 
     73 O          -4.8686  -24.1925  -47.6856 O.2       12 UNK        -0.5000 
     74 N          -3.3243  -23.9416  -46.0467 N.am      13 UNK        -0.5000 
     75 CA         -3.4585  -25.2713  -45.4495 C.3       13 UNK         0.1400 
     76 CB         -2.6766  -25.3324  -44.1292 C.3       13 UNK        -0.1800 
     77 C          -3.0209  -26.3980  -46.4033 C.2       13 UNK         0.5000 
     78 O          -3.7230  -27.4034  -46.5111 O.2       13 UNK        -0.5000 
     79 N          -1.9057  -26.1927  -47.1192 N.am      14 UNK        -0.5000 
     80 CA         -1.3968  -27.0972  -48.1552 C.3       14 UNK         0.1400 
     81 CB         -0.0132  -26.6171  -48.6180 C.3       14 UNK        -0.1800 
     82 C          -2.3538  -27.2374  -49.3558 C.2       14 UNK         0.5000 
     83 O          -2.4708  -28.3256  -49.9196 O.2       14 UNK        -0.5000 
     84 N          -3.0529  -26.1460  -49.6909 N.am      15 UNK        -0.5000 
     85 CA         -4.1128  -26.0864  -50.6984 C.3       15 UNK         0.1400 
     86 CB         -4.1661  -24.6558  -51.2561 C.3       15 UNK        -0.1800 
     87 C          -5.4936  -26.5325  -50.1649 C.2       15 UNK         0.5000 
     88 O          -6.4832  -26.4076  -50.8880 O.2       15 UNK        -0.5000 
     89 N          -5.5550  -27.0208  -48.9150 N.am      16 UNK        -0.5000 
     90 CA         -6.7374  -27.5253  -48.2047 C.3       16 UNK         0.1400 
     91 CB         -7.2206  -28.8442  -48.8426 C.3       16 UNK        -0.1800 
     92 C          -7.8695  -26.4847  -48.0597 C.2       16 UNK         0.5000 
     93 O          -9.0436  -26.8552  -48.0144 O.2       16 UNK        -0.5000 
     94 N          -7.4921  -25.1985  -48.0148 N.am      17 UNK        -0.5000 
     95 CA         -8.3415  -24.0043  -47.9710 C.3       17 UNK         0.1400 
     96 CB         -9.1562  -23.9564  -46.6623 C.3       17 UNK        -0.1800 
     97 C          -9.2227  -23.7916  -49.2235 C.2       17 UNK         0.5000 
     98 O         -10.0936  -22.9203  -49.2032 O.2       17 UNK        -0.5000 
     99 N          -8.9766  -24.5496  -50.3033 N.am      18 UNK        -0.5000 
    100 CA        -9.6461  -24.3888  -51.5983 C.3       18 UNK         0.1400 
    101 CB        -9.5413  -25.7056  -52.3826 C.3       18 UNK        -0.1800 
    102 C         -9.0565  -23.2223  -52.4159 C.2       18 UNK         0.5000 
    103 O         -9.7138  -22.7149  -53.3254 O.2       18 UNK        -0.5000 
    104 N         -7.8332  -22.8191  -52.0647 N.am      19 UNK        -0.5000 
    105 CA        -7.0684  -21.7022  -52.5971 C.3       19 UNK         0.1400 
    106 CB        -6.4410  -22.0947  -53.9500 C.3       19 UNK        -0.1800 
    107 C         -6.0047  -21.3422  -51.5451 C.2       19 UNK         0.5000 
    108 O         -5.9928  -21.9334  -50.4612 O.2       19 UNK        -0.5000 
    109 N         -5.1208  -20.3975  -51.8791 N.am      20 UNK        -0.5000 
    110 CA        -3.9637  -20.0269  -51.0617 C.3       20 UNK         0.1400 
    111 CB        -4.3625  -18.9496  -50.0347 C.3       20 UNK        -0.1800 
    112 C         -2.7730  -19.6039  -51.9369 C.2       20 UNK         0.5000 
    113 O         -1.9401  -18.8214  -51.4853 O.2       20 UNK        -0.5000 
    114 N         -2.7238  -20.0999  -53.1831 N.am      21 UNK        -0.5000 
    115 CA        -1.7570  -19.8104  -54.2545 C.3       21 UNK         0.1400 
    116 CB        -0.3217  -20.1959  -53.8473 C.3       21 UNK        -0.1800 
    117 C         -1.8216  -18.3683  -54.8033 C.2       21 UNK         0.5000 
    118 O         -1.8235  -18.1907  -56.0223 O.2       21 UNK        -0.5000 
    119 N         -1.8941  -17.3734  -53.9129 N.am      22 UNK        -0.5000 
    120 CA        -2.1234  -15.9562  -54.2295 C.3       22 UNK         0.1400 
    121 C         -3.5481  -15.7041  -54.7980 C.2       22 UNK         0.5000 
    122 N         -3.6926  -14.7816  -55.7395 N.am      22 UNK        -0.7600 
    123 O         -4.5285  -16.3061  -54.3644 O.2       22 UNK        -0.5000 
    124 C124       -1.8670  -15.0412  -53.0041 C.3       23 UNK        -0.0398 
    125 S125       -0.1447  -15.1419  -52.4089 S.3       23 UNK        -0.2404 
    126 C126       -0.3779  -15.7869  -50.7245 C.3       23 UNK        -0.0205 
    127 H127        8.9812  -10.9513  -50.1839 H         1 UNK         0.0600 
    128 H128        7.9287  -10.1583  -51.3589 H         1 UNK         0.0600 
    129 H129        8.3643  -11.8578  -51.5674 H         1 UNK         0.0600 
    130 H130        7.9287  -11.4058  -48.3250 H         1 UNK         0.3000 
    131 H131        6.4781  -11.7021  -46.7730 H         1 UNK         0.0600 
    132 H132        5.3029  -13.7580  -46.6399 H         1 UNK         0.0800 
    133 H133        6.7636  -14.0311  -47.5212 H         1 UNK         0.0800 
    134 H134        4.5771  -16.2503  -47.5228 H         1 UNK         0.0800 
    135 H135        3.3121  -15.0736  -47.2417 H         1 UNK         0.0800 
    136 H136        1.5601  -14.7108  -49.1195 H         1 UNK         0.1150 
    137 H137        0.5132  -18.2992  -51.2087 H         1 UNK         0.1150 
    138 H138        4.1512  -18.1257  -48.9572 H         1 UNK         0.1150 
    139 H139        2.1315  -20.0593  -51.4617 H         1 UNK         0.0800 
    140 H140        3.7538  -19.8211  -50.8711 H         1 UNK         0.0800 
    141 H141        0.2318  -21.2000  -50.2115 H         1 UNK         0.0800 
    142 H142        0.2191  -20.1527  -48.8114 H         1 UNK         0.0800 
    143 H143        0.6475  -23.1796  -48.6749 H         1 UNK         0.0600 
    144 H144        0.8797  -21.2349  -46.6219 H         1 UNK         0.3000 
    145 H145        0.1822  -23.4743  -43.8805 H         1 UNK         0.0600 
    146 H146        2.5816  -23.7456  -44.4019 H         1 UNK         0.0600 
    147 H147        2.7234  -22.0444  -44.8137 H         1 UNK         0.0600 
    148 H148        2.3616  -22.5238  -43.1578 H         1 UNK         0.0600 
    149 H149        0.7596  -20.6861  -43.9171 H         1 UNK         0.3000 
    150 H150       -2.6330  -19.5590  -44.2809 H         1 UNK         0.0600 
    151 H151       -1.9636  -18.3112  -42.2221 H         1 UNK         0.0600 
    152 H152       -0.6913  -19.4906  -41.9120 H         1 UNK         0.0600 
    153 H153       -2.3767  -19.9817  -41.8627 H         1 UNK         0.0600 
    154 H154       -0.1978  -18.1111  -44.0194 H         1 UNK         0.3000 
    155 H155        0.7206  -18.0773  -47.4729 H         1 UNK         0.0600 
    156 H156       -0.8647  -16.2354  -47.2968 H         1 UNK         0.0600 
    157 H157        0.7233  -15.6208  -46.8619 H         1 UNK         0.0600 
    158 H158       -0.4635  -15.9528  -45.6100 H         1 UNK         0.0600 
    159 H159        1.8322  -16.9896  -45.0434 H         1 UNK         0.3000 
    160 H160        3.9688  -19.7855  -44.3476 H         1 UNK         0.0600 
    161 H161        5.1012  -18.4417  -46.1816 H         1 UNK         0.0600 
    162 H162        5.7417  -18.1249  -44.5768 H         1 UNK         0.0600 
    163 H163        4.6491  -16.9667  -45.3276 H         1 UNK         0.0600 
    164 H164        3.7023  -17.1997  -43.1491 H         1 UNK         0.3000 
    165 H165        0.9869  -17.8783  -40.9996 H         1 UNK         0.0600 
    166 H166        2.6010  -17.2934  -39.2086 H         1 UNK         0.0600 
    167 H167        2.8738  -18.9408  -39.7521 H         1 UNK         0.0600 
    168 H168        3.9593  -17.6580  -40.2739 H         1 UNK         0.0600 
    169 H169        2.7719  -15.6690  -41.1750 H         1 UNK         0.3000 
    170 H170        1.8963  -13.6658  -42.0278 H         1 UNK         0.0600 
    171 H171        3.1287  -13.1399  -44.1651 H         1 UNK         0.0600 
    172 H172        3.7638  -14.5751  -43.3803 H         1 UNK         0.0600 
    173 H173        2.7188  -14.7383  -44.7848 H         1 UNK         0.0600 
    174 H174        0.6492  -13.3343  -44.5982 H         1 UNK         0.3000 
    175 H175       -2.5812  -12.8513  -43.6955 H         1 UNK         0.0600 
    176 H176       -0.8627  -10.3446  -43.2862 H         1 UNK         0.0600 
    177 H177       -2.5587  -10.3566  -43.7708 H         1 UNK         0.0600 
    178 H178       -2.0958  -10.9424  -42.1825 H         1 UNK         0.0600 
    179 H179       -0.6687  -11.4539  -45.4709 H         1 UNK         0.3000 
    180 H180       -0.7688  -13.7720  -47.9792 H         1 UNK         0.0600 
    181 H181       -1.8607  -12.2106  -49.5619 H         1 UNK         0.0600 
    182 H182       -2.5984  -11.3272  -48.2237 H         1 UNK         0.0600 
    183 H183       -3.0674  -12.9908  -48.5541 H         1 UNK         0.0600 
    184 H184       -0.1564  -10.9835  -48.0946 H         1 UNK         0.3000 
    185 H185        2.1324  -10.4959  -48.2260 H         1 UNK         0.0600 
    186 H186        2.3333  -10.5672  -45.1467 H         1 UNK         0.0600 
    187 H187        2.9180   -9.2578  -46.1709 H         1 UNK         0.0600 
    188 H188        1.1978   -9.5841  -46.0650 H         1 UNK         0.0600 
    189 H189        3.5753  -12.6371  -47.0175 H         1 UNK         0.3000 
    190 H190       -1.8616  -21.1345  -47.1274 H         1 UNK         0.3000 
    191 H191       -4.0569  -22.0724  -48.6766 H         1 UNK         0.0600 
    192 H192       -4.0623  -21.0477  -45.7924 H         1 UNK         0.0600 
    193 H193       -5.4420  -21.1302  -46.8791 H         1 UNK         0.0600 
    194 H194       -4.1169  -20.0288  -47.2262 H         1 UNK         0.0600 
    195 H195       -2.6820  -23.2990  -45.5914 H         1 UNK         0.3000 
    196 H196       -4.5154  -25.4244  -45.2217 H         1 UNK         0.0600 
    197 H197       -2.7996  -26.3033  -43.6480 H         1 UNK         0.0600 
    198 H198       -3.0273  -24.5747  -43.4282 H         1 UNK         0.0600 
    199 H199       -1.6093  -25.1762  -44.2836 H         1 UNK         0.0600 
    200 H200       -1.3494  -25.3628  -46.9270 H         1 UNK         0.3000 
    201 H201       -1.2822  -28.0859  -47.7063 H         1 UNK         0.0600 
    202 H202        0.6906  -26.5824  -47.7862 H         1 UNK         0.0600 
    203 H203       -0.0600  -25.6208  -49.0580 H         1 UNK         0.0600 
    204 H204        0.4031  -27.2894  -49.3691 H         1 UNK         0.0600 
    205 H205       -2.8561  -25.2800  -49.2022 H         1 UNK         0.3000 
    206 H206       -3.8604  -26.7578  -51.5213 H         1 UNK         0.0600 
    207 H207       -4.9480  -24.5454  -52.0082 H         1 UNK         0.0600 
    208 H208       -4.3621  -23.9352  -50.4632 H         1 UNK         0.0600 
    209 H209       -3.2218  -24.3807  -51.7260 H         1 UNK         0.0600 
    210 H210       -4.6979  -27.0441  -48.3760 H         1 UNK         0.3000 
    211 H211       -6.4080  -27.7514  -47.1899 H         1 UNK         0.0600 
    212 H212       -7.6256  -28.6848  -49.8425 H         1 UNK         0.0600 
    213 H213       -8.0041  -29.3076  -48.2421 H         1 UNK         0.0600 
    214 H214       -6.4065  -29.5648  -48.9212 H         1 UNK         0.0600 
    215 H215       -6.4929  -24.9988  -48.0380 H         1 UNK         0.3000 
    216 H216       -7.6504  -23.1600  -47.9552 H         1 UNK         0.0600 
    217 H217       -9.6608  -22.9962  -46.5495 H         1 UNK         0.0600 
    218 H218       -8.5119  -24.0856  -45.7926 H         1 UNK         0.0600 
    219 H219       -9.9222  -24.7315  -46.6321 H         1 UNK         0.0600 
    220 H220       -8.2366  -25.2411  -50.2600 H         1 UNK         0.3000 
    221 H221      -10.7039  -24.1776  -51.4283 H         1 UNK         0.0600 
    222 H222       -8.5062  -25.9497  -52.6238 H         1 UNK         0.0600 
    223 H223       -9.9590  -26.5378  -51.8156 H         1 UNK         0.0600 
    224 H224      -10.0903  -25.6435  -53.3230 H         1 UNK         0.0600 
    225 H225       -7.3951  -23.2503  -51.2595 H         1 UNK         0.3000 
    226 H226       -7.7284  -20.8423  -52.7259 H         1 UNK         0.0600 
    227 H227       -7.2024  -22.4104  -54.6633 H         1 UNK         0.0600 
    228 H228       -5.9122  -21.2563  -54.4035 H         1 UNK         0.0600 
    229 H229       -5.7306  -22.9148  -53.8395 H         1 UNK         0.0600 
    230 H230       -5.2201  -19.9084  -52.7581 H         1 UNK         0.3000 
    231 H231       -3.6113  -20.9064  -50.5224 H         1 UNK         0.0600 
    232 H232       -4.6703  -18.0258  -50.5254 H         1 UNK         0.0600 
    233 H233       -5.1875  -19.2874  -49.4076 H         1 UNK         0.0600 
    234 H234       -3.5304  -18.7111  -49.3705 H         1 UNK         0.0600 
    235 H235       -3.4489  -20.7520  -53.4438 H         1 UNK         0.3000 
    236 H236       -2.0404  -20.4657  -55.0799 H         1 UNK         0.0600 
    237 H237        0.0662  -19.5542  -53.0581 H         1 UNK         0.0600 
    238 H238       -0.2732  -21.2267  -53.4965 H         1 UNK         0.0600 
    239 H239        0.3574  -20.1080  -54.6961 H         1 UNK         0.0600 
    240 H240       -1.8806  -17.6269  -52.9295 H         1 UNK         0.3000 
    241 H241       -1.4055  -15.6837  -55.0059 H         1 UNK         0.0600 
    242 H242       -4.6137  -14.5975  -56.1065 H         1 UNK         0.3800 
    243 H243       -2.9046  -14.2700  -56.1066 H         1 UNK         0.3800 
    244 H244       -2.0569  -13.9982  -53.2637 H         1 UNK         0.0800 
    245 H245       -2.5601  -15.2805  -52.1957 H         1 UNK         0.0800 
    246 H246       -1.1876  -16.5153  -50.7049 H         1 UNK         0.0800 
    247 H247       -0.6840  -14.9721  -50.0680 H         1 UNK         0.0800 
@<TRIPOS>BOND
     1    1    2 1    
     2    1  127 1    
     3    1  128 1    
     4    1  129 1    
     5    2    3 2    
     6    2    4 am   BACKBONE|DICT|INTERRES
     7    4    5 1    
     8    4  130 1    
     9    5    6 1    
    10    5   65 1    
    11    5  131 1    
    12    6    7 1    
    13    6  132 1    
    14    6  133 1    
    15    7    8 1    
    16    8    9 1    
    17    8  134 1    
    18    8  135 1    
    19    9   10 ar   
    20    9   14 ar   
    21   10   11 ar   
    22   10  136 1    
    23   11   12 ar   
    24   11  126 1    
    25   12   13 ar   
    26   12  137 1    
    27   13   14 ar   
    28   13   15 1    
    29   14  138 1    
    30   15   16 1    
    31   15  139 1    
    32   15  140 1    
    33   16   17 1    
    34   17   18 1    
    35   17  141 1    
    36   17  142 1    
    37   18   19 1    
    38   18   67 1    
    39   18  143 1    
    40   19   20 am   BACKBONE|DICT|INTERRES
    41   19  144 1    
    42   20   21 2    
    43   20   22 1    
    44   22   23 1    
    45   22   24 1    
    46   22  145 1    
    47   23  146 1    
    48   23  147 1    
    49   23  148 1    
    50   24   25 am   BACKBONE|DICT|INTERRES
    51   24  149 1    
    52   25   26 2    
    53   25   27 1    
    54   27   28 1    
    55   27   29 1    
    56   27  150 1    
    57   28  151 1    
    58   28  152 1    
    59   28  153 1    
    60   29   30 am   BACKBONE|DICT|INTERRES
    61   29  154 1    
    62   30   31 2    
    63   30   32 1    
    64   32   33 1    
    65   32   34 1    
    66   32  155 1    
    67   33  156 1    
    68   33  157 1    
    69   33  158 1    
    70   34   35 am   BACKBONE|DICT|INTERRES
    71   34  159 1    
    72   35   36 2    
    73   35   37 1    
    74   37   38 1    
    75   37   39 1    
    76   37  160 1    
    77   38  161 1    
    78   38  162 1    
    79   38  163 1    
    80   39   40 am   BACKBONE|DICT|INTERRES
    81   39  164 1    
    82   40   41 2    
    83   40   42 1    
    84   42   43 1    
    85   42   44 1    
    86   42  165 1    
    87   43  166 1    
    88   43  167 1    
    89   43  168 1    
    90   44   45 am   BACKBONE|DICT|INTERRES
    91   44  169 1    
    92   45   46 2    
    93   45   47 1    
    94   47   48 1    
    95   47   49 1    
    96   47  170 1    
    97   48  171 1    
    98   48  172 1    
    99   48  173 1    
   100   49   50 am   BACKBONE|DICT|INTERRES
   101   49  174 1    
   102   50   51 2    
   103   50   52 1    
   104   52   53 1    
   105   52   54 1    
   106   52  175 1    
   107   53  176 1    
   108   53  177 1    
   109   53  178 1    
   110   54   55 am   BACKBONE|DICT|INTERRES
   111   54  179 1    
   112   55   56 2    
   113   55   57 1    
   114   57   58 1    
   115   57   59 1    
   116   57  180 1    
   117   58  181 1    
   118   58  182 1    
   119   58  183 1    
   120   59   60 am   BACKBONE|DICT|INTERRES
   121   59  184 1    
   122   60   61 2    
   123   60   62 1    
   124   62   63 1    
   125   62   64 1    
   126   62  185 1    
   127   63  186 1    
   128   63  187 1    
   129   63  188 1    
   130   64   65 am   BACKBONE|DICT|INTERRES
   131   64  189 1    
   132   65   66 2    
   133   67   68 2    
   134   67   69 am   BACKBONE|DICT|INTERRES
   135   69   70 1    
   136   69  190 1    
   137   70   71 1    
   138   70   72 1    
   139   70  191 1    
   140   71  192 1    
   141   71  193 1    
   142   71  194 1    
   143   72   73 2    
   144   72   74 am   BACKBONE|DICT|INTERRES
   145   74   75 1    
   146   74  195 1    
   147   75   76 1    
   148   75   77 1    
   149   75  196 1    
   150   76  197 1    
   151   76  198 1    
   152   76  199 1    
   153   77   78 2    
   154   77   79 am   BACKBONE|DICT|INTERRES
   155   79   80 1    
   156   79  200 1    
   157   80   81 1    
   158   80   82 1    
   159   80  201 1    
   160   81  202 1    
   161   81  203 1    
   162   81  204 1    
   163   82   83 2    
   164   82   84 am   BACKBONE|DICT|INTERRES
   165   84   85 1    
   166   84  205 1    
   167   85   86 1    
   168   85   87 1    
   169   85  206 1    
   170   86  207 1    
   171   86  208 1    
   172   86  209 1    
   173   87   88 2    
   174   87   89 am   BACKBONE|DICT|INTERRES
   175   89   90 1    
   176   89  210 1    
   177   90   91 1    
   178   90   92 1    
   179   90  211 1    
   180   91  212 1    
   181   91  213 1    
   182   91  214 1    
   183   92   93 2    
   184   92   94 am   BACKBONE|DICT|INTERRES
   185   94   95 1    
   186   94  215 1    
   187   95   96 1    
   188   95   97 1    
   189   95  216 1    
   190   96  217 1    
   191   96  218 1    
   192   96  219 1    
   193   97   98 2    
   194   97   99 am   BACKBONE|DICT|INTERRES
   195   99  100 1    
   196   99  220 1    
   197  100  101 1    
   198  100  102 1    
   199  100  221 1    
   200  101  222 1    
   201  101  223 1    
   202  101  224 1    
   203  102  103 2    
   204  102  104 am   BACKBONE|DICT|INTERRES
   205  104  105 1    
   206  104  225 1    
   207  105  106 1    
   208  105  107 1    
   209  105  226 1    
   210  106  227 1    
   211  106  228 1    
   212  106  229 1    
   213  107  108 2    
   214  107  109 am   BACKBONE|DICT|INTERRES
   215  109  110 1    
   216  109  230 1    
   217  110  111 1    
   218  110  112 1    
   219  110  231 1    
   220  111  232 1    
   221  111  233 1    
   222  111  234 1    
   223  112  113 2    
   224  112  114 am   BACKBONE|DICT|INTERRES
   225  114  115 1    
   226  114  235 1    
   227  115  116 1    
   228  115  117 1    
   229  115  236 1    
   230  116  237 1    
   231  116  238 1    
   232  116  239 1    
   233  117  118 2    
   234  117  119 am   BACKBONE|DICT|INTERRES
   235  119  120 1    
   236  119  240 1    
   237  120  121 1    
   238  120  124 1    
   239  120  241 1    
   240  121  122 am   BACKBONE|DICT|INTERRES
   241  121  123 2    
   242  122  242 1    
   243  122  243 1    
   244  124  125 1    
   245  124  244 1    
   246  124  245 1    
   247  125  126 1    
   248  126  246 1    
   249  126  247 1    
@<TRIPOS>SUBSTRUCTURE
     1 UNK         1 GROUP             0       ****    0 ROOT    
