@<TRIPOS>MOLECULE
3R540
247   249    1
SMALL
USER_CHARGES


@<TRIPOS>ATOM
      1 CA          1.3450  -10.1427  -48.9377 C.3       0 UNK        -0.1800 
      2 C           1.1804  -10.9785  -47.6776 C.2       0 UNK         0.5000 
      3 O           2.0803  -11.0088  -46.8390 O.2       0 UNK        -0.5000 
      4 N           0.0269  -11.6407  -47.5220 N.am      1 UNK        -0.5000 
      5 CA         -0.2900  -12.5462  -46.4060 C.3       1 UNK         0.1400 
      6 C6         -1.5959  -13.3374  -46.6532 C.3       23 UNK        -0.0398 
      7 S7         -1.4624  -14.3972  -48.1299 S.3       23 UNK        -0.2404 
      8 C8         -2.9108  -15.4716  -47.9154 C.3       23 UNK        -0.0205 
      9 C9         -2.9030  -16.5927  -48.9408 C.ar      23 UNK        -0.0193 
     10 C10        -3.5874  -16.4544  -50.1524 C.ar      23 UNK        -0.1150 
     11 C11        -3.5865  -17.4931  -51.0893 C.ar      23 UNK        -0.0193 
     12 C12        -2.8833  -18.6681  -50.8117 C.ar      23 UNK        -0.1150 
     13 C13        -2.1968  -18.8177  -49.6024 C.ar      23 UNK        -0.0193 
     14 C14        -2.2112  -17.7762  -48.6715 C.ar      23 UNK        -0.1150 
     15 C15        -1.4479  -20.1053  -49.2906 C.3       23 UNK        -0.0205 
     16 S16        -2.5444  -21.5606  -49.3081 S.3       23 UNK        -0.2404 
     17 C17        -3.5727  -21.2289  -47.8375 C.3       23 UNK        -0.0398 
     18 CA         -2.9957  -21.9026  -46.5688 C.3       11 UNK         0.1400 
     19 N          -3.2013  -21.0736  -45.3742 N.am      11 UNK        -0.5000 
     20 C          -2.7061  -21.3091  -44.1523 C.2       10 UNK         0.5000 
     21 O          -2.0945  -22.3353  -43.8498 O.2       10 UNK        -0.5000 
     22 CA         -2.9348  -20.1992  -43.1096 C.3       10 UNK         0.1400 
     23 CB         -2.7626  -20.7134  -41.6697 C.3       10 UNK        -0.1800 
     24 N          -2.0179  -19.0832  -43.3377 N.am      10 UNK        -0.5000 
     25 C          -2.1306  -18.1710  -44.3139 C.2       9 UNK         0.5000 
     26 O          -3.0831  -18.1232  -45.0939 O.2       9 UNK        -0.5000 
     27 CA         -0.9741  -17.1642  -44.4650 C.3       9 UNK         0.1400 
     28 CB         -1.1179  -16.0075  -43.4659 C.3       9 UNK        -0.1800 
     29 N           0.3406  -17.7834  -44.3001 N.am      9 UNK        -0.5000 
     30 C           0.8703  -18.6879  -45.1365 C.2       8 UNK         0.5000 
     31 O           0.3194  -19.0762  -46.1661 O.2       8 UNK        -0.5000 
     32 CA          2.2400  -19.2675  -44.7467 C.3       8 UNK         0.1400 
     33 CB          3.3784  -18.3247  -45.1685 C.3       8 UNK        -0.1800 
     34 N           2.3136  -19.5151  -43.3073 N.am      8 UNK        -0.5000 
     35 C           1.8681  -20.6319  -42.7145 C.2       7 UNK         0.5000 
     36 O           1.4361  -21.6044  -43.3323 O.2       7 UNK        -0.5000 
     37 CA          1.9117  -20.6825  -41.1736 C.3       7 UNK         0.1400 
     38 CB          3.1690  -21.4257  -40.6973 C.3       7 UNK        -0.1800 
     39 N           1.8720  -19.3633  -40.5391 N.am      7 UNK        -0.5000 
     40 C           0.8066  -18.5507  -40.5362 C.2       6 UNK         0.5000 
     41 O          -0.2668  -18.8289  -41.0660 O.2       6 UNK        -0.5000 
     42 CA          0.9934  -17.1666  -39.8874 C.3       6 UNK         0.1400 
     43 CB          0.7388  -17.2403  -38.3746 C.3       6 UNK        -0.1800 
     44 N           2.3134  -16.5764  -40.1324 N.am      6 UNK        -0.5000 
     45 C           2.8233  -16.3285  -41.3457 C.2       5 UNK         0.5000 
     46 O           2.2565  -16.6316  -42.3991 O.2       5 UNK        -0.5000 
     47 CA          4.2262  -15.6956  -41.3848 C.3       5 UNK         0.1400 
     48 CB          5.2991  -16.7950  -41.3425 C.3       5 UNK        -0.1800 
     49 N           4.4259  -14.8914  -42.5901 N.am      5 UNK        -0.5000 
     50 C           3.7648  -13.7614  -42.8702 C.2       4 UNK         0.5000 
     51 O           2.9783  -13.2175  -42.0901 O.2       4 UNK        -0.5000 
     52 CA          4.0142  -13.1767  -44.2753 C.3       4 UNK         0.1400 
     53 CB          3.2899  -14.0241  -45.3348 C.3       4 UNK        -0.1800 
     54 N           3.5711  -11.7889  -44.4062 N.am      4 UNK        -0.5000 
     55 C           4.1013  -10.7355  -43.7700 C.2       3 UNK         0.5000 
     56 O           5.0867  -10.8043  -43.0335 O.2       3 UNK        -0.5000 
     57 CA          3.4228   -9.3727  -43.9988 C.3       3 UNK         0.1400 
     58 CB          4.0868   -8.6306  -45.1696 C.3       3 UNK        -0.1800 
     59 N           1.9917   -9.5156  -44.2737 N.am      3 UNK        -0.5000 
     60 C           1.0279   -9.4632  -43.3431 C.2       2 UNK         0.5000 
     61 O           1.2417   -9.2403  -42.1508 O.2       2 UNK        -0.5000 
     62 CA         -0.4243   -9.6831  -43.8167 C.3       2 UNK         0.1400 
     63 CB         -1.1057   -8.3354  -44.0997 C.3       2 UNK        -0.1800 
     64 N          -0.5163  -10.5212  -45.0130 N.am      2 UNK        -0.5000 
     65 C          -0.3210  -11.8473  -45.0278 C.2       1 UNK         0.5000 
     66 O          -0.1413  -12.5167  -44.0116 O.2       1 UNK        -0.5000 
     67 C          -3.4780  -23.3644  -46.4385 C.2       11 UNK         0.5000 
     68 O          -3.0252  -24.2165  -47.2021 O.2       11 UNK        -0.5000 
     69 N          -4.3329  -23.6569  -45.4478 N.am      12 UNK        -0.5000 
     70 CA         -4.7327  -25.0085  -45.0468 C.3       12 UNK         0.1400 
     71 CB         -5.7316  -24.9117  -43.8849 C.3       12 UNK        -0.1800 
     72 C          -3.5444  -25.9177  -44.6642 C.2       12 UNK         0.5000 
     73 O          -3.6220  -27.1273  -44.8792 O.2       12 UNK        -0.5000 
     74 N          -2.4420  -25.3237  -44.1788 N.am      13 UNK        -0.5000 
     75 CA         -1.1680  -26.0040  -43.9231 C.3       13 UNK         0.1400 
     76 CB         -0.2421  -25.0554  -43.1461 C.3       13 UNK        -0.1800 
     77 C          -0.4693  -26.5071  -45.2060 C.2       13 UNK         0.5000 
     78 O           0.3327  -27.4382  -45.1310 O.2       13 UNK        -0.5000 
     79 N          -0.8025  -25.9036  -46.3544 N.am      14 UNK        -0.5000 
     80 CA         -0.3599  -26.2858  -47.6955 C.3       14 UNK         0.1400 
     81 CB          0.1755  -25.0288  -48.4057 C.3       14 UNK        -0.1800 
     82 C          -1.5090  -26.9350  -48.4969 C.2       14 UNK         0.5000 
     83 O          -1.4331  -26.9954  -49.7250 O.2       14 UNK        -0.5000 
     84 N          -2.5748  -27.3692  -47.8023 N.am      15 UNK        -0.5000 
     85 CA         -3.8064  -27.9711  -48.3314 C.3       15 UNK         0.1400 
     86 CB         -3.5083  -29.3608  -48.9315 C.3       15 UNK        -0.1800 
     87 C          -4.5826  -27.0600  -49.3102 C.2       15 UNK         0.5000 
     88 O          -5.3413  -27.5623  -50.1407 O.2       15 UNK        -0.5000 
     89 N          -4.3651  -25.7398  -49.2043 N.am      16 UNK        -0.5000 
     90 CA         -4.8762  -24.6699  -50.0657 C.3       16 UNK         0.1400 
     91 CB         -6.4046  -24.5287  -49.9189 C.3       16 UNK        -0.1800 
     92 C          -4.4225  -24.7765  -51.5389 C.2       16 UNK         0.5000 
     93 O          -5.0664  -24.1973  -52.4138 O.2       16 UNK        -0.5000 
     94 N          -3.3177  -25.4931  -51.8026 N.am      17 UNK        -0.5000 
     95 CA         -2.8132  -25.7873  -53.1488 C.3       17 UNK         0.1400 
     96 CB         -1.6370  -26.7686  -53.0420 C.3       17 UNK        -0.1800 
     97 C          -2.4033  -24.5409  -53.9570 C.2       17 UNK         0.5000 
     98 O          -2.5207  -24.5422  -55.1832 O.2       17 UNK        -0.5000 
     99 N          -1.9619  -23.4883  -53.2564 N.am      18 UNK        -0.5000 
    100 CA        -1.5673  -22.2060  -53.8389 C.3       18 UNK         0.1400 
    101 CB        -0.7234  -21.4327  -52.8206 C.3       18 UNK        -0.1800 
    102 C         -2.7510  -21.3482  -54.3273 C.2       18 UNK         0.5000 
    103 O         -2.5167  -20.3672  -55.0322 O.2       18 UNK        -0.5000 
    104 N         -3.9992  -21.7255  -54.0042 N.am      19 UNK        -0.5000 
    105 CA        -5.2098  -21.0484  -54.4846 C.3       19 UNK         0.1400 
    106 CB        -6.4497  -21.6644  -53.8231 C.3       19 UNK        -0.1800 
    107 C         -5.3492  -21.0604  -56.0209 C.2       19 UNK         0.5000 
    108 O         -5.9225  -20.1289  -56.5863 O.2       19 UNK        -0.5000 
    109 N         -4.7670  -22.0787  -56.6707 N.am      20 UNK        -0.5000 
    110 CA        -4.6427  -22.1849  -58.1242 C.3       20 UNK         0.1400 
    111 CB        -4.1494  -23.5961  -58.4776 C.3       20 UNK        -0.1800 
    112 C         -3.7132  -21.1180  -58.7401 C.2       20 UNK         0.5000 
    113 O         -3.9077  -20.7550  -59.9007 O.2       20 UNK        -0.5000 
    114 N         -2.7335  -20.6298  -57.9643 N.am      21 UNK        -0.5000 
    115 CA        -1.8489  -19.5306  -58.3505 C.3       21 UNK         0.1400 
    116 CB        -0.4934  -19.6752  -57.6401 C.3       21 UNK        -0.1800 
    117 C         -2.4904  -18.1655  -58.0462 C.2       21 UNK         0.5000 
    118 O         -2.3203  -17.2350  -58.8354 O.2       21 UNK        -0.5000 
    119 N         -3.2263  -18.0712  -56.9282 N.am      22 UNK        -0.5000 
    120 CA        -4.0257  -16.8902  -56.5580 C.3       22 UNK         0.1400 
    121 C         -5.1866  -16.6005  -57.5514 C.2       22 UNK         0.5000 
    122 N         -5.9358  -17.6085  -57.9816 N.am      22 UNK        -0.7600 
    123 O         -5.4087  -15.4543  -57.9319 O.2       22 UNK        -0.5000 
    124 C124       -4.5872  -16.9735  -55.1169 C.3       23 UNK        -0.0398 
    125 S125       -3.3064  -17.1245  -53.8293 S.3       23 UNK        -0.2404 
    126 C126       -4.3797  -17.3688  -52.3806 C.3       23 UNK        -0.0205 
    127 H127        1.5148   -9.0987  -48.6749 H         1 UNK         0.0600 
    128 H128        0.4636  -10.1953  -49.5771 H         1 UNK         0.0600 
    129 H129        2.2030  -10.4952  -49.5099 H         1 UNK         0.0600 
    130 H130       -0.6747  -11.5857  -48.2469 H         1 UNK         0.3000 
    131 H131        0.5229  -13.2719  -46.3564 H         1 UNK         0.0600 
    132 H132       -1.8225  -13.9759  -45.7972 H         1 UNK         0.0800 
    133 H133       -2.4450  -12.6622  -46.7728 H         1 UNK         0.0800 
    134 H134       -3.8215  -14.8778  -48.0068 H         1 UNK         0.0800 
    135 H135       -2.9158  -15.8938  -46.9094 H         1 UNK         0.0800 
    136 H136       -4.1278  -15.5416  -50.3605 H         1 UNK         0.1150 
    137 H137       -2.8864  -19.4730  -51.5330 H         1 UNK         0.1150 
    138 H138       -1.6846  -17.8856  -47.7333 H         1 UNK         0.1150 
    139 H139       -0.9628  -20.0466  -48.3154 H         1 UNK         0.0800 
    140 H140       -0.6443  -20.2360  -50.0146 H         1 UNK         0.0800 
    141 H141       -4.5959  -21.5524  -48.0379 H         1 UNK         0.0800 
    142 H142       -3.6395  -20.1491  -47.7019 H         1 UNK         0.0800 
    143 H143       -1.9101  -21.9601  -46.6764 H         1 UNK         0.0600 
    144 H144       -3.6291  -20.1677  -45.5270 H         1 UNK         0.3000 
    145 H145       -3.9612  -19.8414  -43.2137 H         1 UNK         0.0600 
    146 H146       -2.9631  -19.9256  -40.9434 H         1 UNK         0.0600 
    147 H147       -3.4526  -21.5321  -41.4621 H         1 UNK         0.0600 
    148 H148       -1.7518  -21.0827  -41.4905 H         1 UNK         0.0600 
    149 H149       -1.2217  -19.0299  -42.7079 H         1 UNK         0.3000 
    150 H150       -1.0215  -16.7487  -45.4736 H         1 UNK         0.0600 
    151 H151       -1.0797  -16.3598  -42.4348 H         1 UNK         0.0600 
    152 H152       -2.0672  -15.4883  -43.6021 H         1 UNK         0.0600 
    153 H153       -0.3224  -15.2733  -43.5964 H         1 UNK         0.0600 
    154 H154        0.8936  -17.4766  -43.5054 H         1 UNK         0.3000 
    155 H155        2.3722  -20.2091  -45.2843 H         1 UNK         0.0600 
    156 H156        3.3036  -17.3518  -44.6838 H         1 UNK         0.0600 
    157 H157        3.3618  -18.1542  -46.2456 H         1 UNK         0.0600 
    158 H158        4.3519  -18.7477  -44.9207 H         1 UNK         0.0600 
    159 H159        2.5994  -18.7347  -42.7309 H         1 UNK         0.3000 
    160 H160        1.0360  -21.2445  -40.8414 H         1 UNK         0.0600 
    161 H161        4.0803  -20.8996  -40.9845 H         1 UNK         0.0600 
    162 H162        3.2179  -22.4267  -41.1284 H         1 UNK         0.0600 
    163 H163        3.1733  -21.5402  -39.6132 H         1 UNK         0.0600 
    164 H164        2.7186  -19.0482  -40.0889 H         1 UNK         0.3000 
    165 H165        0.2497  -16.4976  -40.3246 H         1 UNK         0.0600 
    166 H166        0.7713  -16.2499  -37.9202 H         1 UNK         0.0600 
    167 H167        1.4767  -17.8661  -37.8711 H         1 UNK         0.0600 
    168 H168       -0.2460  -17.6601  -38.1647 H         1 UNK         0.0600 
    169 H169        2.8461  -16.3159  -39.3149 H         1 UNK         0.3000 
    170 H170        4.3462  -15.0468  -40.5148 H         1 UNK         0.0600 
    171 H171        5.2070  -17.4000  -40.4396 H         1 UNK         0.0600 
    172 H172        5.2203  -17.4681  -42.1976 H         1 UNK         0.0600 
    173 H173        6.3021  -16.3679  -41.3430 H         1 UNK         0.0600 
    174 H174        5.0286  -15.2898  -43.2946 H         1 UNK         0.3000 
    175 H175        5.0871  -13.2027  -44.4763 H         1 UNK         0.0600 
    176 H176        2.2339  -14.1443  -45.0918 H         1 UNK         0.0600 
    177 H177        3.3626  -13.5768  -46.3264 H         1 UNK         0.0600 
    178 H178        3.7217  -15.0230  -45.3993 H         1 UNK         0.0600 
    179 H179        2.8006  -11.6208  -45.0417 H         1 UNK         0.3000 
    180 H180        3.5686   -8.7732  -43.0977 H         1 UNK         0.0600 
    181 H181        3.9919   -9.1826  -46.1053 H         1 UNK         0.0600 
    182 H182        5.1512   -8.4821  -44.9832 H         1 UNK         0.0600 
    183 H183        3.6419   -7.6461  -45.3146 H         1 UNK         0.0600 
    184 H184        1.7447   -9.7580  -45.2256 H         1 UNK         0.3000 
    185 H185       -0.9662  -10.1747  -43.0058 H         1 UNK         0.0600 
    186 H186       -2.1529   -8.4718  -44.3703 H         1 UNK         0.0600 
    187 H187       -1.0800   -7.6924  -43.2189 H         1 UNK         0.0600 
    188 H188       -0.6149   -7.7984  -44.9124 H         1 UNK         0.0600 
    189 H189       -0.6639  -10.0480  -45.8926 H         1 UNK         0.3000 
    190 H190       -4.6508  -22.9007  -44.8602 H         1 UNK         0.3000 
    191 H191       -5.2369  -25.4695  -45.8987 H         1 UNK         0.0600 
    192 H192       -6.0689  -25.9020  -43.5758 H         1 UNK         0.0600 
    193 H193       -6.6168  -24.3434  -44.1712 H         1 UNK         0.0600 
    194 H194       -5.2883  -24.4285  -43.0131 H         1 UNK         0.0600 
    195 H195       -2.4437  -24.3164  -44.0447 H         1 UNK         0.3000 
    196 H196       -1.3708  -26.8744  -43.2959 H         1 UNK         0.0600 
    197 H197        0.0037  -24.1669  -43.7296 H         1 UNK         0.0600 
    198 H198       -0.7039  -24.7253  -42.2155 H         1 UNK         0.0600 
    199 H199        0.6962  -25.5476  -42.8878 H         1 UNK         0.0600 
    200 H200       -1.5044  -25.1718  -46.3336 H         1 UNK         0.3000 
    201 H201        0.4470  -27.0185  -47.6385 H         1 UNK         0.0600 
    202 H202       -0.6080  -24.2840  -48.5524 H         1 UNK         0.0600 
    203 H203        0.5836  -25.2735  -49.3871 H         1 UNK         0.0600 
    204 H204        0.9759  -24.5628  -47.8309 H         1 UNK         0.0600 
    205 H205       -2.5562  -27.2582  -46.7962 H         1 UNK         0.3000 
    206 H206       -4.4639  -28.1162  -47.4733 H         1 UNK         0.0600 
    207 H207       -2.9689  -29.9887  -48.2225 H         1 UNK         0.0600 
    208 H208       -4.4300  -29.8841  -49.1885 H         1 UNK         0.0600 
    209 H209       -2.9093  -29.2889  -49.8399 H         1 UNK         0.0600 
    210 H210       -3.7297  -25.4203  -48.4771 H         1 UNK         0.3000 
    211 H211       -4.4322  -23.7503  -49.6876 H         1 UNK         0.0600 
    212 H212       -6.7670  -23.6378  -50.4332 H         1 UNK         0.0600 
    213 H213       -6.6921  -24.4357  -48.8715 H         1 UNK         0.0600 
    214 H214       -6.9329  -25.3850  -50.3387 H         1 UNK         0.0600 
    215 H215       -2.8296  -25.9376  -51.0330 H         1 UNK         0.3000 
    216 H216       -3.6173  -26.2798  -53.6992 H         1 UNK         0.0600 
    217 H217       -0.8093  -26.3422  -52.4737 H         1 UNK         0.0600 
    218 H218       -1.2570  -27.0352  -54.0290 H         1 UNK         0.0600 
    219 H219       -1.9387  -27.6931  -52.5490 H         1 UNK         0.0600 
    220 H220       -1.9134  -23.5683  -52.2511 H         1 UNK         0.3000 
    221 H221       -0.9396  -22.4056  -54.7099 H         1 UNK         0.0600 
    222 H222        0.1580  -21.9989  -52.5195 H         1 UNK         0.0600 
    223 H223       -1.3061  -21.2137  -51.9305 H         1 UNK         0.0600 
    224 H224       -0.3785  -20.4826  -53.2314 H         1 UNK         0.0600 
    225 H225       -4.1389  -22.5551  -53.4384 H         1 UNK         0.3000 
    226 H226       -5.1440  -20.0064  -54.1711 H         1 UNK         0.0600 
    227 H227       -6.5810  -22.7082  -54.1106 H         1 UNK         0.0600 
    228 H228       -6.3810  -21.6209  -52.7359 H         1 UNK         0.0600 
    229 H229       -7.3539  -21.1281  -54.1140 H         1 UNK         0.0600 
    230 H230       -4.3103  -22.7967  -56.1250 H         1 UNK         0.3000 
    231 H231       -5.6350  -22.0488  -58.5592 H         1 UNK         0.0600 
    232 H232       -3.1688  -23.7990  -58.0445 H         1 UNK         0.0600 
    233 H233       -4.0649  -23.7224  -59.5578 H         1 UNK         0.0600 
    234 H234       -4.8397  -24.3579  -58.1149 H         1 UNK         0.0600 
    235 H235       -2.6714  -20.9313  -56.9998 H         1 UNK         0.3000 
    236 H236       -1.6634  -19.5817  -59.4256 H         1 UNK         0.0600 
    237 H237       -0.0413  -20.6456  -57.8457 H         1 UNK         0.0600 
    238 H238        0.2052  -18.9116  -57.9840 H         1 UNK         0.0600 
    239 H239       -0.5822  -19.5682  -56.5592 H         1 UNK         0.0600 
    240 H240       -3.2525  -18.8589  -56.2920 H         1 UNK         0.3000 
    241 H241       -3.3556  -16.0291  -56.5963 H         1 UNK         0.0600 
    242 H242       -6.6866  -17.4272  -58.6282 H         1 UNK         0.3800 
    243 H243       -5.8142  -18.5453  -57.6047 H         1 UNK         0.3800 
    244 H244       -5.2762  -17.8142  -55.0299 H         1 UNK         0.0800 
    245 H245       -5.1707  -16.0790  -54.8902 H         1 UNK         0.0800 
    246 H246       -4.9787  -18.2697  -52.5180 H         1 UNK         0.0800 
    247 H247       -5.0850  -16.5389  -52.3134 H         1 UNK         0.0800 
@<TRIPOS>BOND
     1    1    2 1    
     2    1  127 1    
     3    1  128 1    
     4    1  129 1    
     5    2    3 2    
     6    2    4 am   BACKBONE|DICT|INTERRES
     7    4    5 1    
     8    4  130 1    
     9    5    6 1    
    10    5   65 1    
    11    5  131 1    
    12    6    7 1    
    13    6  132 1    
    14    6  133 1    
    15    7    8 1    
    16    8    9 1    
    17    8  134 1    
    18    8  135 1    
    19    9   10 ar   
    20    9   14 ar   
    21   10   11 ar   
    22   10  136 1    
    23   11   12 ar   
    24   11  126 1    
    25   12   13 ar   
    26   12  137 1    
    27   13   14 ar   
    28   13   15 1    
    29   14  138 1    
    30   15   16 1    
    31   15  139 1    
    32   15  140 1    
    33   16   17 1    
    34   17   18 1    
    35   17  141 1    
    36   17  142 1    
    37   18   19 1    
    38   18   67 1    
    39   18  143 1    
    40   19   20 am   BACKBONE|DICT|INTERRES
    41   19  144 1    
    42   20   21 2    
    43   20   22 1    
    44   22   23 1    
    45   22   24 1    
    46   22  145 1    
    47   23  146 1    
    48   23  147 1    
    49   23  148 1    
    50   24   25 am   BACKBONE|DICT|INTERRES
    51   24  149 1    
    52   25   26 2    
    53   25   27 1    
    54   27   28 1    
    55   27   29 1    
    56   27  150 1    
    57   28  151 1    
    58   28  152 1    
    59   28  153 1    
    60   29   30 am   BACKBONE|DICT|INTERRES
    61   29  154 1    
    62   30   31 2    
    63   30   32 1    
    64   32   33 1    
    65   32   34 1    
    66   32  155 1    
    67   33  156 1    
    68   33  157 1    
    69   33  158 1    
    70   34   35 am   BACKBONE|DICT|INTERRES
    71   34  159 1    
    72   35   36 2    
    73   35   37 1    
    74   37   38 1    
    75   37   39 1    
    76   37  160 1    
    77   38  161 1    
    78   38  162 1    
    79   38  163 1    
    80   39   40 am   BACKBONE|DICT|INTERRES
    81   39  164 1    
    82   40   41 2    
    83   40   42 1    
    84   42   43 1    
    85   42   44 1    
    86   42  165 1    
    87   43  166 1    
    88   43  167 1    
    89   43  168 1    
    90   44   45 am   BACKBONE|DICT|INTERRES
    91   44  169 1    
    92   45   46 2    
    93   45   47 1    
    94   47   48 1    
    95   47   49 1    
    96   47  170 1    
    97   48  171 1    
    98   48  172 1    
    99   48  173 1    
   100   49   50 am   BACKBONE|DICT|INTERRES
   101   49  174 1    
   102   50   51 2    
   103   50   52 1    
   104   52   53 1    
   105   52   54 1    
   106   52  175 1    
   107   53  176 1    
   108   53  177 1    
   109   53  178 1    
   110   54   55 am   BACKBONE|DICT|INTERRES
   111   54  179 1    
   112   55   56 2    
   113   55   57 1    
   114   57   58 1    
   115   57   59 1    
   116   57  180 1    
   117   58  181 1    
   118   58  182 1    
   119   58  183 1    
   120   59   60 am   BACKBONE|DICT|INTERRES
   121   59  184 1    
   122   60   61 2    
   123   60   62 1    
   124   62   63 1    
   125   62   64 1    
   126   62  185 1    
   127   63  186 1    
   128   63  187 1    
   129   63  188 1    
   130   64   65 am   BACKBONE|DICT|INTERRES
   131   64  189 1    
   132   65   66 2    
   133   67   68 2    
   134   67   69 am   BACKBONE|DICT|INTERRES
   135   69   70 1    
   136   69  190 1    
   137   70   71 1    
   138   70   72 1    
   139   70  191 1    
   140   71  192 1    
   141   71  193 1    
   142   71  194 1    
   143   72   73 2    
   144   72   74 am   BACKBONE|DICT|INTERRES
   145   74   75 1    
   146   74  195 1    
   147   75   76 1    
   148   75   77 1    
   149   75  196 1    
   150   76  197 1    
   151   76  198 1    
   152   76  199 1    
   153   77   78 2    
   154   77   79 am   BACKBONE|DICT|INTERRES
   155   79   80 1    
   156   79  200 1    
   157   80   81 1    
   158   80   82 1    
   159   80  201 1    
   160   81  202 1    
   161   81  203 1    
   162   81  204 1    
   163   82   83 2    
   164   82   84 am   BACKBONE|DICT|INTERRES
   165   84   85 1    
   166   84  205 1    
   167   85   86 1    
   168   85   87 1    
   169   85  206 1    
   170   86  207 1    
   171   86  208 1    
   172   86  209 1    
   173   87   88 2    
   174   87   89 am   BACKBONE|DICT|INTERRES
   175   89   90 1    
   176   89  210 1    
   177   90   91 1    
   178   90   92 1    
   179   90  211 1    
   180   91  212 1    
   181   91  213 1    
   182   91  214 1    
   183   92   93 2    
   184   92   94 am   BACKBONE|DICT|INTERRES
   185   94   95 1    
   186   94  215 1    
   187   95   96 1    
   188   95   97 1    
   189   95  216 1    
   190   96  217 1    
   191   96  218 1    
   192   96  219 1    
   193   97   98 2    
   194   97   99 am   BACKBONE|DICT|INTERRES
   195   99  100 1    
   196   99  220 1    
   197  100  101 1    
   198  100  102 1    
   199  100  221 1    
   200  101  222 1    
   201  101  223 1    
   202  101  224 1    
   203  102  103 2    
   204  102  104 am   BACKBONE|DICT|INTERRES
   205  104  105 1    
   206  104  225 1    
   207  105  106 1    
   208  105  107 1    
   209  105  226 1    
   210  106  227 1    
   211  106  228 1    
   212  106  229 1    
   213  107  108 2    
   214  107  109 am   BACKBONE|DICT|INTERRES
   215  109  110 1    
   216  109  230 1    
   217  110  111 1    
   218  110  112 1    
   219  110  231 1    
   220  111  232 1    
   221  111  233 1    
   222  111  234 1    
   223  112  113 2    
   224  112  114 am   BACKBONE|DICT|INTERRES
   225  114  115 1    
   226  114  235 1    
   227  115  116 1    
   228  115  117 1    
   229  115  236 1    
   230  116  237 1    
   231  116  238 1    
   232  116  239 1    
   233  117  118 2    
   234  117  119 am   BACKBONE|DICT|INTERRES
   235  119  120 1    
   236  119  240 1    
   237  120  121 1    
   238  120  124 1    
   239  120  241 1    
   240  121  122 am   BACKBONE|DICT|INTERRES
   241  121  123 2    
   242  122  242 1    
   243  122  243 1    
   244  124  125 1    
   245  124  244 1    
   246  124  245 1    
   247  125  126 1    
   248  126  246 1    
   249  126  247 1    
@<TRIPOS>SUBSTRUCTURE
     1 UNK         1 GROUP             0       ****    0 ROOT    
