@<TRIPOS>MOLECULE
3R540
247   249    1
SMALL
USER_CHARGES


@<TRIPOS>ATOM
      1 CA          0.9891  -10.2692  -49.7966 C.3       0 UNK        -0.1800 
      2 C          -0.3036  -11.0831  -49.8455 C.2       0 UNK         0.5000 
      3 O          -1.3825  -10.4935  -49.8408 O.2       0 UNK        -0.5000 
      4 N          -0.2607  -12.4215  -49.9111 N.am      1 UNK        -0.5000 
      5 CA          0.9210  -13.2885  -49.8454 C.3       1 UNK         0.1400 
      6 C6          0.5527  -14.7640  -50.1251 C.3       23 UNK        -0.0398 
      7 S7          0.0861  -15.0497  -51.8652 S.3       23 UNK        -0.2404 
      8 C8          1.1240  -16.4893  -52.2903 C.3       23 UNK        -0.0205 
      9 C9          0.4502  -17.8147  -51.9527 C.ar      23 UNK        -0.0193 
     10 C10         0.1649  -18.7299  -52.9711 C.ar      23 UNK        -0.1150 
     11 C11        -0.4568  -19.9476  -52.6820 C.ar      23 UNK        -0.0193 
     12 C12        -0.7978  -20.2461  -51.3605 C.ar      23 UNK        -0.1150 
     13 C13        -0.4950  -19.3558  -50.3276 C.ar      23 UNK        -0.0193 
     14 C14         0.1296  -18.1439  -50.6307 C.ar      23 UNK        -0.1150 
     15 C15        -0.8630  -19.6920  -48.8904 C.3       23 UNK        -0.0205 
     16 S16         0.6008  -19.8974  -47.8361 S.3       23 UNK        -0.2404 
     17 C17        -0.1715  -20.2462  -46.2207 C.3       23 UNK        -0.0398 
     18 CA         -0.1770  -21.7597  -45.8847 C.3       11 UNK         0.1400 
     19 N           0.0797  -22.0067  -44.4627 N.am      11 UNK        -0.5000 
     20 C           0.3699  -23.2089  -43.9457 C.2       10 UNK         0.5000 
     21 O           0.4639  -24.2362  -44.6140 O.2       10 UNK        -0.5000 
     22 CA          0.5252  -23.2892  -42.4203 C.3       10 UNK         0.1400 
     23 CB          1.9066  -22.7832  -41.9817 C.3       10 UNK        -0.1800 
     24 N          -0.5285  -22.5401  -41.7379 N.am      10 UNK        -0.5000 
     25 C          -1.8134  -22.9212  -41.7073 C.2       9 UNK         0.5000 
     26 O          -2.2292  -23.9617  -42.2178 O.2       9 UNK        -0.5000 
     27 CA         -2.8046  -21.9616  -41.0242 C.3       9 UNK         0.1400 
     28 CB         -2.8424  -22.2126  -39.5096 C.3       9 UNK        -0.1800 
     29 N          -2.5018  -20.5510  -41.2740 N.am      9 UNK        -0.5000 
     30 C          -2.5712  -19.9607  -42.4756 C.2       8 UNK         0.5000 
     31 O          -2.8837  -20.5450  -43.5111 O.2       8 UNK        -0.5000 
     32 CA         -2.1785  -18.4753  -42.5378 C.3       8 UNK         0.1400 
     33 CB         -3.3451  -17.6003  -42.0524 C.3       8 UNK        -0.1800 
     34 N          -0.9706  -18.1532  -41.7717 N.am      8 UNK        -0.5000 
     35 C           0.2241  -18.7396  -41.9235 C.2       7 UNK         0.5000 
     36 O           0.4453  -19.6460  -42.7300 O.2       7 UNK        -0.5000 
     37 CA          1.3446  -18.2196  -41.0142 C.3       7 UNK         0.1400 
     38 CB          2.4676  -19.2528  -40.8028 C.3       7 UNK        -0.1800 
     39 N           1.9006  -16.9939  -41.5774 N.am      7 UNK        -0.5000 
     40 C           2.4910  -16.0345  -40.8534 C.2       6 UNK         0.5000 
     41 O           2.5546  -16.0493  -39.6230 O.2       6 UNK        -0.5000 
     42 CA          3.1357  -14.8685  -41.6224 C.3       6 UNK         0.1400 
     43 CB          4.4679  -15.3075  -42.2503 C.3       6 UNK        -0.1800 
     44 N           2.2669  -14.3104  -42.6563 N.am      6 UNK        -0.5000 
     45 C           1.1709  -13.5763  -42.4191 C.2       5 UNK         0.5000 
     46 O           0.7733  -13.2825  -41.2910 O.2       5 UNK        -0.5000 
     47 CA          0.3807  -13.0925  -43.6510 C.3       5 UNK         0.1400 
     48 CB          1.0080  -11.8218  -44.2445 C.3       5 UNK        -0.1800 
     49 N           0.2842  -14.1188  -44.6880 N.am      5 UNK        -0.5000 
     50 C          -0.4138  -15.2547  -44.5558 C.2       4 UNK         0.5000 
     51 O          -1.1194  -15.5091  -43.5822 O.2       4 UNK        -0.5000 
     52 CA         -0.2814  -16.2921  -45.6838 C.3       4 UNK         0.1400 
     53 CB         -1.2989  -16.0195  -46.8010 C.3       4 UNK        -0.1800 
     54 N           1.0675  -16.3288  -46.2469 N.am      4 UNK        -0.5000 
     55 C           2.1420  -16.8050  -45.6024 C.2       3 UNK         0.5000 
     56 O           2.1080  -17.2776  -44.4666 O.2       3 UNK        -0.5000 
     57 CA          3.4892  -16.6824  -46.3371 C.3       3 UNK         0.1400 
     58 CB          3.6583  -17.8192  -47.3559 C.3       3 UNK        -0.1800 
     59 N           3.6429  -15.3943  -47.0171 N.am      3 UNK        -0.5000 
     60 C           3.7170  -14.2117  -46.3897 C.2       2 UNK         0.5000 
     61 O           3.6914  -14.0852  -45.1673 O.2       2 UNK        -0.5000 
     62 CA          3.7764  -12.9558  -47.2778 C.3       2 UNK         0.1400 
     63 CB          5.2251  -12.6467  -47.6828 C.3       2 UNK        -0.1800 
     64 N           2.9450  -13.0591  -48.4803 N.am      2 UNK        -0.5000 
     65 C           1.6114  -13.1868  -48.4714 C.2       1 UNK         0.5000 
     66 O           0.9374  -13.2653  -47.4426 O.2       1 UNK        -0.5000 
     67 C          -1.4629  -22.4660  -46.3733 C.2       11 UNK         0.5000 
     68 O          -1.4883  -22.9861  -47.4899 O.2       11 UNK        -0.5000 
     69 N          -2.4951  -22.5178  -45.5186 N.am      12 UNK        -0.5000 
     70 CA         -3.7255  -23.2762  -45.7445 C.3       12 UNK         0.1400 
     71 CB         -4.7590  -22.9473  -44.6578 C.3       12 UNK        -0.1800 
     72 C          -3.4851  -24.7916  -45.8390 C.2       12 UNK         0.5000 
     73 O          -4.0452  -25.4370  -46.7243 O.2       12 UNK        -0.5000 
     74 N          -2.6440  -25.3257  -44.9454 N.am      13 UNK        -0.5000 
     75 CA         -2.2728  -26.7380  -44.9168 C.3       13 UNK         0.1400 
     76 CB         -1.6179  -27.0653  -43.5655 C.3       13 UNK        -0.1800 
     77 C          -1.3509  -27.1372  -46.0836 C.2       13 UNK         0.5000 
     78 O          -1.6078  -28.1456  -46.7425 O.2       13 UNK        -0.5000 
     79 N          -0.2835  -26.3587  -46.3009 N.am      14 UNK        -0.5000 
     80 CA          0.7965  -26.6958  -47.2267 C.3       14 UNK         0.1400 
     81 CB          2.0865  -25.9944  -46.7731 C.3       14 UNK        -0.1800 
     82 C           0.4965  -26.3428  -48.6918 C.2       14 UNK         0.5000 
     83 O           0.9239  -27.0834  -49.5788 O.2       14 UNK        -0.5000 
     84 N          -0.1863  -25.2148  -48.9278 N.am      15 UNK        -0.5000 
     85 CA         -0.3312  -24.6092  -50.2550 C.3       15 UNK         0.1400 
     86 CB          0.5149  -23.3246  -50.2995 C.3       15 UNK        -0.1800 
     87 C          -1.7973  -24.3507  -50.6473 C.2       15 UNK         0.5000 
     88 O          -2.0345  -23.7046  -51.6668 O.2       15 UNK        -0.5000 
     89 N          -2.7517  -24.8658  -49.8575 N.am      16 UNK        -0.5000 
     90 CA         -4.2057  -24.7909  -50.0651 C.3       16 UNK         0.1400 
     91 CB         -4.6186  -25.4978  -51.3746 C.3       16 UNK        -0.1800 
     92 C          -4.7975  -23.3679  -49.9442 C.2       16 UNK         0.5000 
     93 O          -5.9002  -23.1313  -50.4407 O.2       16 UNK        -0.5000 
     94 N          -4.0785  -22.4769  -49.2430 N.am      17 UNK        -0.5000 
     95 CA         -4.3939  -21.0750  -48.9401 C.3       17 UNK         0.1400 
     96 CB         -5.7745  -20.9267  -48.2653 C.3       17 UNK        -0.1800 
     97 C          -4.2785  -20.1363  -50.1563 C.2       17 UNK         0.5000 
     98 O          -4.4377  -20.5518  -51.3040 O.2       17 UNK        -0.5000 
     99 N          -4.0479  -18.8467  -49.8700 N.am      18 UNK        -0.5000 
    100 CA        -3.9509  -17.7783  -50.8730 C.3       18 UNK         0.1400 
    101 CB        -3.3868  -16.5130  -50.2087 C.3       18 UNK        -0.1800 
    102 C         -5.2925  -17.4819  -51.5768 C.2       18 UNK         0.5000 
    103 O         -5.2980  -16.8995  -52.6611 O.2       18 UNK        -0.5000 
    104 N         -6.4033  -17.9349  -50.9752 N.am      19 UNK        -0.5000 
    105 CA        -7.7606  -17.9149  -51.5261 C.3       19 UNK         0.1400 
    106 CB        -8.7338  -18.4243  -50.4519 C.3       19 UNK        -0.1800 
    107 C         -7.9225  -18.7273  -52.8292 C.2       19 UNK         0.5000 
    108 O         -8.8665  -18.4766  -53.5789 O.2       19 UNK        -0.5000 
    109 N         -6.9902  -19.6537  -53.1003 N.am      20 UNK        -0.5000 
    110 CA        -6.8754  -20.3853  -54.3637 C.3       20 UNK         0.1400 
    111 CB        -5.9965  -21.6256  -54.1354 C.3       20 UNK        -0.1800 
    112 C         -6.3226  -19.5276  -55.5257 C.2       20 UNK         0.5000 
    113 O         -6.2755  -20.0151  -56.6561 O.2       20 UNK        -0.5000 
    114 N         -5.8977  -18.2863  -55.2381 N.am      21 UNK        -0.5000 
    115 CA        -5.3257  -17.2612  -56.1207 C.3       21 UNK         0.1400 
    116 CB        -6.2565  -16.9246  -57.3016 C.3       21 UNK        -0.1800 
    117 C         -3.8969  -17.5812  -56.5925 C.2       21 UNK         0.5000 
    118 O         -3.0305  -16.7095  -56.5166 O.2       21 UNK        -0.5000 
    119 N         -3.6719  -18.8238  -57.0349 N.am      22 UNK        -0.5000 
    120 CA        -2.3624  -19.4147  -57.3633 C.3       22 UNK         0.1400 
    121 C         -1.6465  -18.7937  -58.6033 C.2       22 UNK         0.5000 
    122 N         -2.3409  -18.0696  -59.4726 N.am      22 UNK        -0.7600 
    123 O         -0.4521  -18.9965  -58.8053 O.2       22 UNK        -0.5000 
    124 C124       -1.4349  -19.5182  -56.1186 C.3       23 UNK        -0.0398 
    125 S125       -2.1918  -20.5026  -54.7775 S.3       23 UNK        -0.2404 
    126 C126       -0.7359  -20.9565  -53.7863 C.3       23 UNK        -0.0205 
    127 H127        1.7492  -10.6706  -50.4656 H         1 UNK         0.0600 
    128 H128        1.3875  -10.2458  -48.7823 H         1 UNK         0.0600 
    129 H129        0.7988   -9.2404  -50.1028 H         1 UNK         0.0600 
    130 H130       -1.1393  -12.9163  -49.9505 H         1 UNK         0.3000 
    131 H131        1.6252  -12.9637  -50.6136 H         1 UNK         0.0600 
    132 H132        1.3942  -15.4130  -49.8782 H         1 UNK         0.0800 
    133 H133       -0.2748  -15.0844  -49.4908 H         1 UNK         0.0800 
    134 H134        1.3358  -16.4393  -53.3594 H         1 UNK         0.0800 
    135 H135        2.0935  -16.4306  -51.7947 H         1 UNK         0.0800 
    136 H136        0.4303  -18.4976  -53.9923 H         1 UNK         0.1150 
    137 H137       -1.2958  -21.1788  -51.1376 H         1 UNK         0.1150 
    138 H138        0.3605  -17.4629  -49.8271 H         1 UNK         0.1150 
    139 H139       -1.4999  -18.9058  -48.4869 H         1 UNK         0.0800 
    140 H140       -1.4365  -20.6171  -48.8600 H         1 UNK         0.0800 
    141 H141        0.4278  -19.7039  -45.4874 H         1 UNK         0.0800 
    142 H142       -1.1681  -19.8048  -46.1588 H         1 UNK         0.0800 
    143 H143        0.6531  -22.2298  -46.4173 H         1 UNK         0.0600 
    144 H144        0.0506  -21.2025  -43.8416 H         1 UNK         0.3000 
    145 H145        0.4425  -24.3383  -42.1275 H         1 UNK         0.0600 
    146 H146        2.0173  -22.8191  -40.8979 H         1 UNK         0.0600 
    147 H147        2.6972  -23.4003  -42.4102 H         1 UNK         0.0600 
    148 H148        2.0842  -21.7588  -42.3074 H         1 UNK         0.0600 
    149 H149       -0.2756  -21.6436  -41.3499 H         1 UNK         0.3000 
    150 H150       -3.7976  -22.1689  -41.4285 H         1 UNK         0.0600 
    151 H151       -3.0851  -23.2539  -39.2929 H         1 UNK         0.0600 
    152 H152       -3.6010  -21.5965  -39.0266 H         1 UNK         0.0600 
    153 H153       -1.8826  -21.9945  -39.0397 H         1 UNK         0.0600 
    154 H154       -2.2259  -19.9944  -40.4786 H         1 UNK         0.3000 
    155 H155       -1.9793  -18.2325  -43.5828 H         1 UNK         0.0600 
    156 H156       -3.1236  -16.5398  -42.1686 H         1 UNK         0.0600 
    157 H157       -3.5747  -17.7790  -41.0013 H         1 UNK         0.0600 
    158 H158       -4.2504  -17.8044  -42.6257 H         1 UNK         0.0600 
    159 H159       -1.0513  -17.3871  -41.1190 H         1 UNK         0.3000 
    160 H160        0.8958  -18.0053  -40.0418 H         1 UNK         0.0600 
    161 H161        2.9805  -19.4849  -41.7370 H         1 UNK         0.0600 
    162 H162        2.0692  -20.1837  -40.3989 H         1 UNK         0.0600 
    163 H163        3.2132  -18.8891  -40.0957 H         1 UNK         0.0600 
    164 H164        1.8948  -16.9335  -42.5939 H         1 UNK         0.3000 
    165 H165        3.3528  -14.0769  -40.9020 H         1 UNK         0.0600 
    166 H166        4.3201  -16.0630  -43.0227 H         1 UNK         0.0600 
    167 H167        4.9858  -14.4626  -42.7044 H         1 UNK         0.0600 
    168 H168        5.1350  -15.7311  -41.4985 H         1 UNK         0.0600 
    169 H169        2.5658  -14.4443  -43.6175 H         1 UNK         0.3000 
    170 H170       -0.6318  -12.8473  -43.3234 H         1 UNK         0.0600 
    171 H171        1.0403  -11.0215  -43.5043 H         1 UNK         0.0600 
    172 H172        2.0291  -11.9956  -44.5835 H         1 UNK         0.0600 
    173 H173        0.4313  -11.4572  -45.0949 H         1 UNK         0.0600 
    174 H174        0.7777  -13.9443  -45.5571 H         1 UNK         0.3000 
    175 H175       -0.4953  -17.2756  -45.2611 H         1 UNK         0.0600 
    176 H176       -2.3191  -16.0994  -46.4240 H         1 UNK         0.0600 
    177 H177       -1.1831  -15.0185  -47.2175 H         1 UNK         0.0600 
    178 H178       -1.1939  -16.7366  -47.6135 H         1 UNK         0.0600 
    179 H179        1.1955  -15.9052  -47.1518 H         1 UNK         0.3000 
    180 H180        4.2830  -16.7700  -45.5921 H         1 UNK         0.0600 
    181 H181        2.9182  -17.7607  -48.1551 H         1 UNK         0.0600 
    182 H182        3.5453  -18.7926  -46.8763 H         1 UNK         0.0600 
    183 H183        4.6478  -17.7959  -47.8126 H         1 UNK         0.0600 
    184 H184        3.6879  -15.4101  -48.0248 H         1 UNK         0.3000 
    185 H185        3.4034  -12.1170  -46.6866 H         1 UNK         0.0600 
    186 H186        5.2884  -11.7100  -48.2370 H         1 UNK         0.0600 
    187 H187        5.8627  -12.5455  -46.8033 H         1 UNK         0.0600 
    188 H188        5.6481  -13.4357  -48.3058 H         1 UNK         0.0600 
    189 H189        3.4330  -13.0094  -49.3634 H         1 UNK         0.3000 
    190 H190       -2.4423  -21.9946  -44.6486 H         1 UNK         0.3000 
    191 H191       -4.1429  -22.9579  -46.6954 H         1 UNK         0.0600 
    192 H192       -5.6865  -23.4970  -44.8222 H         1 UNK         0.0600 
    193 H193       -5.0074  -21.8860  -44.6599 H         1 UNK         0.0600 
    194 H194       -4.3965  -23.2053  -43.6633 H         1 UNK         0.0600 
    195 H195       -2.2509  -24.7340  -44.2226 H         1 UNK         0.3000 
    196 H196       -3.1859  -27.3318  -44.9968 H         1 UNK         0.0600 
    197 H197       -1.3377  -28.1179  -43.5109 H         1 UNK         0.0600 
    198 H198       -2.3015  -26.8670  -42.7397 H         1 UNK         0.0600 
    199 H199       -0.7161  -26.4752  -43.3988 H         1 UNK         0.0600 
    200 H200       -0.1263  -25.5528  -45.6974 H         1 UNK         0.3000 
    201 H201        0.9731  -27.7726  -47.1765 H         1 UNK         0.0600 
    202 H202        2.3479  -26.2709  -45.7515 H         1 UNK         0.0600 
    203 H203        1.9890  -24.9086  -46.8113 H         1 UNK         0.0600 
    204 H204        2.9274  -26.2707  -47.4105 H         1 UNK         0.0600 
    205 H205       -0.5222  -24.6545  -48.1512 H         1 UNK         0.3000 
    206 H206        0.0560  -25.2795  -51.0245 H         1 UNK         0.0600 
    207 H207        1.5557  -23.5299  -50.0493 H         1 UNK         0.0600 
    208 H208        0.5078  -22.8817  -51.2957 H         1 UNK         0.0600 
    209 H209        0.1473  -22.5751  -49.5988 H         1 UNK         0.0600 
    210 H210       -2.4558  -25.3692  -49.0326 H         1 UNK         0.3000 
    211 H211       -4.6507  -25.3612  -49.2501 H         1 UNK         0.0600 
    212 H212       -4.3055  -24.9367  -52.2555 H         1 UNK         0.0600 
    213 H213       -5.7016  -25.6115  -51.4324 H         1 UNK         0.0600 
    214 H214       -4.1860  -26.4961  -51.4389 H         1 UNK         0.0600 
    215 H215       -3.1787  -22.7954  -48.9027 H         1 UNK         0.3000 
    216 H216       -3.6458  -20.7640  -48.2108 H         1 UNK         0.0600 
    217 H217       -5.8978  -21.6240  -47.4377 H         1 UNK         0.0600 
    218 H218       -5.9043  -19.9230  -47.8593 H         1 UNK         0.0600 
    219 H219       -6.5924  -21.0956  -48.9664 H         1 UNK         0.0600 
    220 H220       -3.9617  -18.5597  -48.9063 H         1 UNK         0.3000 
    221 H221       -3.2454  -18.0999  -51.6430 H         1 UNK         0.0600 
    222 H222       -4.0308  -16.1560  -49.4043 H         1 UNK         0.0600 
    223 H223       -2.3961  -16.6959  -49.7941 H         1 UNK         0.0600 
    224 H224       -3.2847  -15.7043  -50.9337 H         1 UNK         0.0600 
    225 H225       -6.2938  -18.3965  -50.0853 H         1 UNK         0.3000 
    226 H226       -8.0105  -16.8772  -51.7560 H         1 UNK         0.0600 
    227 H227       -8.5141  -19.4541  -50.1667 H         1 UNK         0.0600 
    228 H228       -8.6886  -17.8089  -49.5531 H         1 UNK         0.0600 
    229 H229       -9.7633  -18.3958  -50.8112 H         1 UNK         0.0600 
    230 H230       -6.2483  -19.8145  -52.4287 H         1 UNK         0.3000 
    231 H231       -7.8704  -20.7250  -54.6578 H         1 UNK         0.0600 
    232 H232       -5.9364  -22.2380  -55.0357 H         1 UNK         0.0600 
    233 H233       -6.3971  -22.2546  -53.3399 H         1 UNK         0.0600 
    234 H234       -4.9787  -21.3496  -53.8587 H         1 UNK         0.0600 
    235 H235       -5.9181  -18.0082  -54.2628 H         1 UNK         0.3000 
    236 H236       -5.2539  -16.3641  -55.5037 H         1 UNK         0.0600 
    237 H237       -7.2551  -16.6613  -56.9529 H         1 UNK         0.0600 
    238 H238       -5.8731  -16.0724  -57.8638 H         1 UNK         0.0600 
    239 H239       -6.3528  -17.7552  -58.0009 H         1 UNK         0.0600 
    240 H240       -4.4674  -19.4543  -57.0630 H         1 UNK         0.3000 
    241 H241       -2.5849  -20.4354  -57.6759 H         1 UNK         0.0600 
    242 H242       -3.3232  -17.9005  -59.3257 H         1 UNK         0.3800 
    243 H243       -1.8778  -17.6795  -60.2785 H         1 UNK         0.3800 
    244 H244       -0.4894  -19.9885  -56.3919 H         1 UNK         0.0800 
    245 H245       -1.1872  -18.5270  -55.7381 H         1 UNK         0.0800 
    246 H246        0.1438  -21.0677  -54.4211 H         1 UNK         0.0800 
    247 H247       -0.9150  -21.9414  -53.3536 H         1 UNK         0.0800 
@<TRIPOS>BOND
     1    1    2 1    
     2    1  127 1    
     3    1  128 1    
     4    1  129 1    
     5    2    3 2    
     6    2    4 am   BACKBONE|DICT|INTERRES
     7    4    5 1    
     8    4  130 1    
     9    5    6 1    
    10    5   65 1    
    11    5  131 1    
    12    6    7 1    
    13    6  132 1    
    14    6  133 1    
    15    7    8 1    
    16    8    9 1    
    17    8  134 1    
    18    8  135 1    
    19    9   10 ar   
    20    9   14 ar   
    21   10   11 ar   
    22   10  136 1    
    23   11   12 ar   
    24   11  126 1    
    25   12   13 ar   
    26   12  137 1    
    27   13   14 ar   
    28   13   15 1    
    29   14  138 1    
    30   15   16 1    
    31   15  139 1    
    32   15  140 1    
    33   16   17 1    
    34   17   18 1    
    35   17  141 1    
    36   17  142 1    
    37   18   19 1    
    38   18   67 1    
    39   18  143 1    
    40   19   20 am   BACKBONE|DICT|INTERRES
    41   19  144 1    
    42   20   21 2    
    43   20   22 1    
    44   22   23 1    
    45   22   24 1    
    46   22  145 1    
    47   23  146 1    
    48   23  147 1    
    49   23  148 1    
    50   24   25 am   BACKBONE|DICT|INTERRES
    51   24  149 1    
    52   25   26 2    
    53   25   27 1    
    54   27   28 1    
    55   27   29 1    
    56   27  150 1    
    57   28  151 1    
    58   28  152 1    
    59   28  153 1    
    60   29   30 am   BACKBONE|DICT|INTERRES
    61   29  154 1    
    62   30   31 2    
    63   30   32 1    
    64   32   33 1    
    65   32   34 1    
    66   32  155 1    
    67   33  156 1    
    68   33  157 1    
    69   33  158 1    
    70   34   35 am   BACKBONE|DICT|INTERRES
    71   34  159 1    
    72   35   36 2    
    73   35   37 1    
    74   37   38 1    
    75   37   39 1    
    76   37  160 1    
    77   38  161 1    
    78   38  162 1    
    79   38  163 1    
    80   39   40 am   BACKBONE|DICT|INTERRES
    81   39  164 1    
    82   40   41 2    
    83   40   42 1    
    84   42   43 1    
    85   42   44 1    
    86   42  165 1    
    87   43  166 1    
    88   43  167 1    
    89   43  168 1    
    90   44   45 am   BACKBONE|DICT|INTERRES
    91   44  169 1    
    92   45   46 2    
    93   45   47 1    
    94   47   48 1    
    95   47   49 1    
    96   47  170 1    
    97   48  171 1    
    98   48  172 1    
    99   48  173 1    
   100   49   50 am   BACKBONE|DICT|INTERRES
   101   49  174 1    
   102   50   51 2    
   103   50   52 1    
   104   52   53 1    
   105   52   54 1    
   106   52  175 1    
   107   53  176 1    
   108   53  177 1    
   109   53  178 1    
   110   54   55 am   BACKBONE|DICT|INTERRES
   111   54  179 1    
   112   55   56 2    
   113   55   57 1    
   114   57   58 1    
   115   57   59 1    
   116   57  180 1    
   117   58  181 1    
   118   58  182 1    
   119   58  183 1    
   120   59   60 am   BACKBONE|DICT|INTERRES
   121   59  184 1    
   122   60   61 2    
   123   60   62 1    
   124   62   63 1    
   125   62   64 1    
   126   62  185 1    
   127   63  186 1    
   128   63  187 1    
   129   63  188 1    
   130   64   65 am   BACKBONE|DICT|INTERRES
   131   64  189 1    
   132   65   66 2    
   133   67   68 2    
   134   67   69 am   BACKBONE|DICT|INTERRES
   135   69   70 1    
   136   69  190 1    
   137   70   71 1    
   138   70   72 1    
   139   70  191 1    
   140   71  192 1    
   141   71  193 1    
   142   71  194 1    
   143   72   73 2    
   144   72   74 am   BACKBONE|DICT|INTERRES
   145   74   75 1    
   146   74  195 1    
   147   75   76 1    
   148   75   77 1    
   149   75  196 1    
   150   76  197 1    
   151   76  198 1    
   152   76  199 1    
   153   77   78 2    
   154   77   79 am   BACKBONE|DICT|INTERRES
   155   79   80 1    
   156   79  200 1    
   157   80   81 1    
   158   80   82 1    
   159   80  201 1    
   160   81  202 1    
   161   81  203 1    
   162   81  204 1    
   163   82   83 2    
   164   82   84 am   BACKBONE|DICT|INTERRES
   165   84   85 1    
   166   84  205 1    
   167   85   86 1    
   168   85   87 1    
   169   85  206 1    
   170   86  207 1    
   171   86  208 1    
   172   86  209 1    
   173   87   88 2    
   174   87   89 am   BACKBONE|DICT|INTERRES
   175   89   90 1    
   176   89  210 1    
   177   90   91 1    
   178   90   92 1    
   179   90  211 1    
   180   91  212 1    
   181   91  213 1    
   182   91  214 1    
   183   92   93 2    
   184   92   94 am   BACKBONE|DICT|INTERRES
   185   94   95 1    
   186   94  215 1    
   187   95   96 1    
   188   95   97 1    
   189   95  216 1    
   190   96  217 1    
   191   96  218 1    
   192   96  219 1    
   193   97   98 2    
   194   97   99 am   BACKBONE|DICT|INTERRES
   195   99  100 1    
   196   99  220 1    
   197  100  101 1    
   198  100  102 1    
   199  100  221 1    
   200  101  222 1    
   201  101  223 1    
   202  101  224 1    
   203  102  103 2    
   204  102  104 am   BACKBONE|DICT|INTERRES
   205  104  105 1    
   206  104  225 1    
   207  105  106 1    
   208  105  107 1    
   209  105  226 1    
   210  106  227 1    
   211  106  228 1    
   212  106  229 1    
   213  107  108 2    
   214  107  109 am   BACKBONE|DICT|INTERRES
   215  109  110 1    
   216  109  230 1    
   217  110  111 1    
   218  110  112 1    
   219  110  231 1    
   220  111  232 1    
   221  111  233 1    
   222  111  234 1    
   223  112  113 2    
   224  112  114 am   BACKBONE|DICT|INTERRES
   225  114  115 1    
   226  114  235 1    
   227  115  116 1    
   228  115  117 1    
   229  115  236 1    
   230  116  237 1    
   231  116  238 1    
   232  116  239 1    
   233  117  118 2    
   234  117  119 am   BACKBONE|DICT|INTERRES
   235  119  120 1    
   236  119  240 1    
   237  120  121 1    
   238  120  124 1    
   239  120  241 1    
   240  121  122 am   BACKBONE|DICT|INTERRES
   241  121  123 2    
   242  122  242 1    
   243  122  243 1    
   244  124  125 1    
   245  124  244 1    
   246  124  245 1    
   247  125  126 1    
   248  126  246 1    
   249  126  247 1    
@<TRIPOS>SUBSTRUCTURE
     1 UNK         1 GROUP             0       ****    0 ROOT    
