@<TRIPOS>MOLECULE
3R540
247   249    1
SMALL
USER_CHARGES


@<TRIPOS>ATOM
      1 CA         -2.2683  -14.7252  -42.3837 C.3       0 UNK        -0.1800 
      2 C          -2.4566  -13.6493  -43.4444 C.2       0 UNK         0.5000 
      3 O          -2.9706  -12.5717  -43.1427 O.2       0 UNK        -0.5000 
      4 N          -2.0424  -13.9354  -44.6845 N.am      1 UNK        -0.5000 
      5 CA         -2.1752  -13.0714  -45.8634 C.3       1 UNK         0.1400 
      6 C6         -2.1372  -13.8950  -47.1768 C.3       23 UNK        -0.0398 
      7 S7         -3.5026  -15.1062  -47.2574 S.3       23 UNK        -0.2404 
      8 C8         -3.3941  -15.6784  -48.9808 C.3       23 UNK        -0.0205 
      9 C9         -2.3799  -16.7999  -49.1454 C.ar      23 UNK        -0.0193 
     10 C10        -1.0427  -16.5070  -49.4248 C.ar      23 UNK        -0.1150 
     11 C11        -0.1116  -17.5326  -49.6053 C.ar      23 UNK        -0.0193 
     12 C12        -0.5401  -18.8614  -49.5125 C.ar      23 UNK        -0.1150 
     13 C13        -1.8744  -19.1794  -49.2270 C.ar      23 UNK        -0.0193 
     14 C14        -2.7851  -18.1346  -49.0411 C.ar      23 UNK        -0.1150 
     15 C15        -2.3817  -20.6204  -49.0969 C.3       23 UNK        -0.0205 
     16 S16        -1.1999  -21.9434  -49.5448 S.3       23 UNK        -0.2404 
     17 C17        -0.0405  -21.8722  -48.1329 C.3       23 UNK        -0.0398 
     18 CA          0.0418  -23.1214  -47.2221 C.3       11 UNK         0.1400 
     19 N           0.9221  -22.8507  -46.0827 N.am      11 UNK        -0.5000 
     20 C           1.3024  -23.7204  -45.1376 C.2       10 UNK         0.5000 
     21 O           0.9676  -24.9044  -45.1162 O.2       10 UNK        -0.5000 
     22 CA          2.1811  -23.1524  -44.0083 C.3       10 UNK         0.1400 
     23 CB          3.6396  -22.9966  -44.4659 C.3       10 UNK        -0.1800 
     24 N           1.6777  -21.8636  -43.5315 N.am      10 UNK        -0.5000 
     25 C           0.5924  -21.7216  -42.7577 C.2       9 UNK         0.5000 
     26 O          -0.0493  -22.6678  -42.3005 O.2       9 UNK        -0.5000 
     27 CA          0.1311  -20.2819  -42.4587 C.3       9 UNK         0.1400 
     28 CB          0.8676  -19.7231  -41.2322 C.3       9 UNK        -0.1800 
     29 N           0.3094  -19.3665  -43.5870 N.am      9 UNK        -0.5000 
     30 C          -0.3064  -19.4860  -44.7715 C.2       8 UNK         0.5000 
     31 O          -1.1109  -20.3762  -45.0382 O.2       8 UNK        -0.5000 
     32 CA          0.0835  -18.4763  -45.8628 C.3       8 UNK         0.1400 
     33 CB         -0.6740  -17.1565  -45.6817 C.3       8 UNK        -0.1800 
     34 N           1.5225  -18.2237  -45.9173 N.am      8 UNK        -0.5000 
     35 C           2.4615  -19.1499  -46.1566 C.2       7 UNK         0.5000 
     36 O           2.2138  -20.3356  -46.3718 O.2       7 UNK        -0.5000 
     37 CA          3.9249  -18.6856  -46.0891 C.3       7 UNK         0.1400 
     38 CB          4.3688  -18.0408  -47.4098 C.3       7 UNK        -0.1800 
     39 N           4.1342  -17.7457  -44.9903 N.am      7 UNK        -0.5000 
     40 C           4.2265  -18.1015  -43.7021 C.2       6 UNK         0.5000 
     41 O           4.2065  -19.2690  -43.3104 O.2       6 UNK        -0.5000 
     42 CA          4.3286  -16.9541  -42.6789 C.3       6 UNK         0.1400 
     43 CB          5.7857  -16.4928  -42.5252 C.3       6 UNK        -0.1800 
     44 N           3.4903  -15.8033  -43.0253 N.am      6 UNK        -0.5000 
     45 C           2.1509  -15.8299  -43.0413 C.2       5 UNK         0.5000 
     46 O           1.4843  -16.8245  -42.7570 O.2       5 UNK        -0.5000 
     47 CA          1.4276  -14.5448  -43.4844 C.3       5 UNK         0.1400 
     48 CB          1.2173  -13.6119  -42.2838 C.3       5 UNK        -0.1800 
     49 N           2.0574  -13.8100  -44.5888 N.am      5 UNK        -0.5000 
     50 C           2.4009  -14.3326  -45.7781 C.2       4 UNK         0.5000 
     51 O           2.2983  -15.5305  -46.0382 O.2       4 UNK        -0.5000 
     52 CA          2.9407  -13.3873  -46.8686 C.3       4 UNK         0.1400 
     53 CB          2.2855  -13.6806  -48.2295 C.3       4 UNK        -0.1800 
     54 N           2.7294  -11.9791  -46.5401 N.am      4 UNK        -0.5000 
     55 C           3.6536  -11.1629  -46.0157 C.2       3 UNK         0.5000 
     56 O           4.8038  -11.5156  -45.7531 O.2       3 UNK        -0.5000 
     57 CA          3.2276   -9.7094  -45.7212 C.3       3 UNK         0.1400 
     58 CB          3.7433   -8.7667  -46.8193 C.3       3 UNK        -0.1800 
     59 N           1.7801   -9.5290  -45.5863 N.am      3 UNK        -0.5000 
     60 C           1.0279  -10.0548  -44.6108 C.2       2 UNK         0.5000 
     61 O           1.4897  -10.7454  -43.7027 O.2       2 UNK        -0.5000 
     62 CA         -0.4922   -9.7954  -44.6633 C.3       2 UNK         0.1400 
     63 CB         -0.9153   -8.7393  -45.7092 C.3       2 UNK        -0.1800 
     64 N          -1.2594  -11.0289  -44.8614 N.am      2 UNK        -0.5000 
     65 C          -1.1398  -11.9220  -45.8540 C.2       1 UNK         0.5000 
     66 O          -0.2716  -11.8603  -46.7270 O.2       1 UNK        -0.5000 
     67 C          -1.3400  -23.6415  -46.7734 C.2       11 UNK         0.5000 
     68 O          -1.8056  -24.6440  -47.3144 O.2       11 UNK        -0.5000 
     69 N          -1.9315  -23.0017  -45.7532 N.am      12 UNK        -0.5000 
     70 CA         -3.2457  -23.3055  -45.1732 C.3       12 UNK         0.1400 
     71 CB         -3.5096  -22.3373  -44.0091 C.3       12 UNK        -0.1800 
     72 C          -3.4562  -24.7625  -44.7080 C.2       12 UNK         0.5000 
     73 O          -4.6030  -25.1907  -44.5712 O.2       12 UNK        -0.5000 
     74 N          -2.3636  -25.5007  -44.4727 N.am      13 UNK        -0.5000 
     75 CA         -2.3816  -26.9168  -44.1148 C.3       13 UNK         0.1400 
     76 CB         -1.0245  -27.2861  -43.4961 C.3       13 UNK        -0.1800 
     77 C          -2.7050  -27.8548  -45.2975 C.2       13 UNK         0.5000 
     78 O          -3.0788  -29.0020  -45.0471 O.2       13 UNK        -0.5000 
     79 N          -2.5397  -27.3876  -46.5450 N.am      14 UNK        -0.5000 
     80 CA         -2.6767  -28.2112  -47.7520 C.3       14 UNK         0.1400 
     81 CB         -1.2766  -28.6503  -48.2131 C.3       14 UNK        -0.1800 
     82 C          -3.4290  -27.5218  -48.9049 C.2       14 UNK         0.5000 
     83 O          -3.9837  -28.2227  -49.7530 O.2       14 UNK        -0.5000 
     84 N          -3.4323  -26.1865  -48.9430 N.am      15 UNK        -0.5000 
     85 CA         -4.0146  -25.3644  -50.0000 C.3       15 UNK         0.1400 
     86 CB         -2.9038  -24.9951  -51.0019 C.3       15 UNK        -0.1800 
     87 C          -4.7134  -24.1338  -49.3932 C.2       15 UNK         0.5000 
     88 O          -4.8302  -24.0250  -48.1715 O.2       15 UNK        -0.5000 
     89 N          -5.2054  -23.2420  -50.2574 N.am      16 UNK        -0.5000 
     90 CA         -5.9675  -22.0457  -49.9148 C.3       16 UNK         0.1400 
     91 CB         -7.4078  -22.4400  -49.5270 C.3       16 UNK        -0.1800 
     92 C          -5.9630  -21.1009  -51.1259 C.2       16 UNK         0.5000 
     93 O          -5.4363  -21.4574  -52.1846 O.2       16 UNK        -0.5000 
     94 N          -6.6027  -19.9328  -50.9819 N.am      17 UNK        -0.5000 
     95 CA         -6.8387  -18.9749  -52.0694 C.3       17 UNK         0.1400 
     96 CB         -7.4711  -17.6990  -51.4964 C.3       17 UNK        -0.1800 
     97 C          -7.6980  -19.5495  -53.2150 C.2       17 UNK         0.5000 
     98 O          -7.5049  -19.1696  -54.3695 O.2       17 UNK        -0.5000 
     99 N          -8.5744  -20.5111  -52.8883 N.am      18 UNK        -0.5000 
    100 CA        -9.3509  -21.3108  -53.8406 C.3       18 UNK         0.1400 
    101 CB       -10.3916  -22.1313  -53.0636 C.3       18 UNK        -0.1800 
    102 C         -8.4834  -22.2378  -54.7207 C.2       18 UNK         0.5000 
    103 O         -8.9161  -22.6125  -55.8104 O.2       18 UNK        -0.5000 
    104 N         -7.2722  -22.5654  -54.2487 N.am      19 UNK        -0.5000 
    105 CA        -6.2431  -23.3160  -54.9707 C.3       19 UNK         0.1400 
    106 CB        -5.6440  -24.3699  -54.0228 C.3       19 UNK        -0.1800 
    107 C         -5.1589  -22.3771  -55.5460 C.2       19 UNK         0.5000 
    108 O         -4.0686  -22.8421  -55.8783 O.2       19 UNK        -0.5000 
    109 N         -5.4801  -21.0784  -55.6550 N.am      20 UNK        -0.5000 
    110 CA        -4.6728  -19.9814  -56.1974 C.3       20 UNK         0.1400 
    111 CB        -4.2279  -20.2637  -57.6488 C.3       20 UNK        -0.1800 
    112 C         -3.5123  -19.5204  -55.2907 C.2       20 UNK         0.5000 
    113 O         -2.6494  -18.7812  -55.7673 O.2       20 UNK        -0.5000 
    114 N         -3.5361  -19.9001  -54.0021 N.am      21 UNK        -0.5000 
    115 CA        -2.5968  -19.4867  -52.9510 C.3       21 UNK         0.1400 
    116 CB        -2.7871  -17.9823  -52.6405 C.3       21 UNK        -0.1800 
    117 C         -1.1302  -19.8755  -53.2586 C.2       21 UNK         0.5000 
    118 O         -0.8898  -20.9455  -53.8227 O.2       21 UNK        -0.5000 
    119 N         -0.1790  -19.0155  -52.8704 N.am      22 UNK        -0.5000 
    120 CA         1.2467  -19.1035  -53.2136 C.3       22 UNK         0.1400 
    121 C          1.4780  -18.9721  -54.7458 C.2       22 UNK         0.5000 
    122 N          2.2184  -19.8893  -55.3534 N.am      22 UNK        -0.7600 
    123 O          1.0350  -18.0148  -55.3763 O.2       22 UNK        -0.5000 
    124 C124        2.0730  -18.0279  -52.4596 C.3       23 UNK        -0.0398 
    125 S125        2.3494  -18.4322  -50.7025 S.3       23 UNK        -0.2404 
    126 C126        1.3562  -17.1725  -49.8253 C.3       23 UNK        -0.0205 
    127 H127       -3.2381  -15.0595  -42.0155 H         1 UNK         0.0600 
    128 H128       -1.7036  -14.3273  -41.5409 H         1 UNK         0.0600 
    129 H129       -1.7349  -15.5934  -42.7710 H         1 UNK         0.0600 
    130 H130       -1.6530  -14.8463  -44.8723 H         1 UNK         0.3000 
    131 H131       -3.1562  -12.5930  -45.8185 H         1 UNK         0.0600 
    132 H132       -2.2221  -13.2322  -48.0399 H         1 UNK         0.0800 
    133 H133       -1.1848  -14.4154  -47.2804 H         1 UNK         0.0800 
    134 H134       -4.3792  -16.0288  -49.2927 H         1 UNK         0.0800 
    135 H135       -3.1510  -14.8443  -49.6406 H         1 UNK         0.0800 
    136 H136       -0.7245  -15.4763  -49.4921 H         1 UNK         0.1150 
    137 H137        0.1840  -19.6472  -49.6456 H         1 UNK         0.1150 
    138 H138       -3.8190  -18.3603  -48.8206 H         1 UNK         0.1150 
    139 H139       -2.7294  -20.7869  -48.0759 H         1 UNK         0.0800 
    140 H140       -3.2531  -20.7343  -49.7402 H         1 UNK         0.0800 
    141 H141        0.9509  -21.6583  -48.5348 H         1 UNK         0.0800 
    142 H142       -0.2993  -21.0088  -47.5248 H         1 UNK         0.0800 
    143 H143        0.5075  -23.9217  -47.8007 H         1 UNK         0.0600 
    144 H144        1.2958  -21.9056  -46.0346 H         1 UNK         0.3000 
    145 H145        2.1629  -23.8627  -43.1788 H         1 UNK         0.0600 
    146 H146        4.2707  -22.6386  -43.6521 H         1 UNK         0.0600 
    147 H147        4.0471  -23.9520  -44.7984 H         1 UNK         0.0600 
    148 H148        3.7345  -22.2937  -45.2939 H         1 UNK         0.0600 
    149 H149        2.1444  -21.0342  -43.8716 H         1 UNK         0.3000 
    150 H150       -0.9357  -20.3201  -42.2286 H         1 UNK         0.0600 
    151 H151        0.7552  -20.3839  -40.3717 H         1 UNK         0.0600 
    152 H152        0.4724  -18.7480  -40.9467 H         1 UNK         0.0600 
    153 H153        1.9354  -19.6077  -41.4235 H         1 UNK         0.0600 
    154 H154        0.9180  -18.5678  -43.4311 H         1 UNK         0.3000 
    155 H155       -0.2077  -18.8918  -46.8245 H         1 UNK         0.0600 
    156 H156       -0.3698  -16.4271  -46.4311 H         1 UNK         0.0600 
    157 H157       -0.5002  -16.7302  -44.6959 H         1 UNK         0.0600 
    158 H158       -1.7482  -17.3103  -45.7909 H         1 UNK         0.0600 
    159 H159        1.8186  -17.2567  -45.8025 H         1 UNK         0.3000 
    160 H160        4.5461  -19.5683  -45.9217 H         1 UNK         0.0600 
    161 H161        3.8227  -17.1210  -47.6181 H         1 UNK         0.0600 
    162 H162        4.2060  -18.7193  -48.2479 H         1 UNK         0.0600 
    163 H163        5.4314  -17.7990  -47.3902 H         1 UNK         0.0600 
    164 H164        4.0779  -16.7633  -45.2197 H         1 UNK         0.3000 
    165 H165        3.9901  -17.3405  -41.7150 H         1 UNK         0.0600 
    166 H166        6.1747  -16.0684  -43.4516 H         1 UNK         0.0600 
    167 H167        5.8801  -15.7383  -41.7440 H         1 UNK         0.0600 
    168 H168        6.4319  -17.3273  -42.2494 H         1 UNK         0.0600 
    169 H169        3.9615  -14.9476  -43.2796 H         1 UNK         0.3000 
    170 H170        0.4449  -14.8495  -43.8381 H         1 UNK         0.0600 
    171 H171        0.8413  -14.1585  -41.4178 H         1 UNK         0.0600 
    172 H172        2.1452  -13.1225  -41.9861 H         1 UNK         0.0600 
    173 H173        0.4849  -12.8384  -42.5126 H         1 UNK         0.0600 
    174 H174        2.1602  -12.8117  -44.4568 H         1 UNK         0.3000 
    175 H175        4.0084  -13.5931  -46.9654 H         1 UNK         0.0600 
    176 H176        2.6367  -12.9884  -48.9948 H         1 UNK         0.0600 
    177 H177        2.5307  -14.6863  -48.5705 H         1 UNK         0.0600 
    178 H178        1.1989  -13.6053  -48.1817 H         1 UNK         0.0600 
    179 H179        1.7864  -11.6314  -46.6844 H         1 UNK         0.3000 
    180 H180        3.6915   -9.4200  -44.7760 H         1 UNK         0.0600 
    181 H181        3.2974   -8.9963  -47.7879 H         1 UNK         0.0600 
    182 H182        4.8257   -8.8481  -46.9288 H         1 UNK         0.0600 
    183 H183        3.5201   -7.7259  -46.5838 H         1 UNK         0.0600 
    184 H184        1.3223   -8.9938  -46.3097 H         1 UNK         0.3000 
    185 H185       -0.7676   -9.4142  -43.6791 H         1 UNK         0.0600 
    186 H186       -1.9840   -8.5354  -45.6416 H         1 UNK         0.0600 
    187 H187       -0.4010   -7.7914  -45.5451 H         1 UNK         0.0600 
    188 H188       -0.7088   -9.0621  -46.7303 H         1 UNK         0.0600 
    189 H189       -1.9534  -11.2363  -44.1485 H         1 UNK         0.3000 
    190 H190       -1.4814  -22.1635  -45.3916 H         1 UNK         0.3000 
    191 H191       -3.9899  -23.1060  -45.9438 H         1 UNK         0.0600 
    192 H192       -4.4709  -22.5406  -43.5353 H         1 UNK         0.0600 
    193 H193       -3.5360  -21.3038  -44.3540 H         1 UNK         0.0600 
    194 H194       -2.7398  -22.4165  -43.2407 H         1 UNK         0.0600 
    195 H195       -1.4551  -25.0813  -44.6208 H         1 UNK         0.3000 
    196 H196       -3.1509  -27.0697  -43.3550 H         1 UNK         0.0600 
    197 H197       -1.0242  -28.3178  -43.1421 H         1 UNK         0.0600 
    198 H198       -0.7913  -26.6494  -42.6423 H         1 UNK         0.0600 
    199 H199       -0.2142  -27.1886  -44.2194 H         1 UNK         0.0600 
    200 H200       -2.2405  -26.4259  -46.6754 H         1 UNK         0.3000 
    201 H201       -3.2526  -29.1105  -47.5243 H         1 UNK         0.0600 
    202 H202       -0.7758  -29.2405  -47.4455 H         1 UNK         0.0600 
    203 H203       -0.6444  -27.7913  -48.4417 H         1 UNK         0.0600 
    204 H204       -1.3329  -29.2670  -49.1111 H         1 UNK         0.0600 
    205 H205       -2.9682  -25.6506  -48.2121 H         1 UNK         0.3000 
    206 H206       -4.7901  -25.9246  -50.5264 H         1 UNK         0.0600 
    207 H207       -2.5293  -25.8845  -51.5088 H         1 UNK         0.0600 
    208 H208       -3.2499  -24.3100  -51.7749 H         1 UNK         0.0600 
    209 H209       -2.0584  -24.5263  -50.5002 H         1 UNK         0.0600 
    210 H210       -5.0265  -23.3389  -51.2484 H         1 UNK         0.3000 
    211 H211       -5.4856  -21.5348  -49.0791 H         1 UNK         0.0600 
    212 H212       -7.9227  -22.9367  -50.3504 H         1 UNK         0.0600 
    213 H213       -8.0002  -21.5698  -49.2431 H         1 UNK         0.0600 
    214 H214       -7.4185  -23.1180  -48.6736 H         1 UNK         0.0600 
    215 H215       -7.0088  -19.7010  -50.0867 H         1 UNK         0.3000 
    216 H216       -5.8719  -18.7132  -52.4995 H         1 UNK         0.0600 
    217 H217       -7.6380  -16.9596  -52.2809 H         1 UNK         0.0600 
    218 H218       -6.8221  -17.2384  -50.7511 H         1 UNK         0.0600 
    219 H219       -8.4339  -17.9024  -51.0260 H         1 UNK         0.0600 
    220 H220       -8.6770  -20.7501  -51.9134 H         1 UNK         0.3000 
    221 H221       -9.8792  -20.6254  -54.5066 H         1 UNK         0.0600 
    222 H222       -9.9189  -22.8244  -52.3664 H         1 UNK         0.0600 
    223 H223      -11.0597  -21.4846  -52.4945 H         1 UNK         0.0600 
    224 H224      -11.0114  -22.7196  -53.7417 H         1 UNK         0.0600 
    225 H225       -6.9722  -22.1729  -53.3648 H         1 UNK         0.3000 
    226 H226       -6.6884  -23.8427  -55.8168 H         1 UNK         0.0600 
    227 H227       -6.4198  -25.0077  -53.5990 H         1 UNK         0.0600 
    228 H228       -4.9434  -25.0193  -54.5490 H         1 UNK         0.0600 
    229 H229       -5.1036  -23.9054  -53.2001 H         1 UNK         0.0600 
    230 H230       -6.3926  -20.7938  -55.3211 H         1 UNK         0.3000 
    231 H231       -5.3522  -19.1290  -56.2393 H         1 UNK         0.0600 
    232 H232       -3.8127  -19.3676  -58.1112 H         1 UNK         0.0600 
    233 H233       -5.0679  -20.5838  -58.2653 H         1 UNK         0.0600 
    234 H234       -3.4601  -21.0360  -57.6962 H         1 UNK         0.0600 
    235 H235       -4.2598  -20.5437  -53.7037 H         1 UNK         0.3000 
    236 H236       -2.8740  -20.0487  -52.0591 H         1 UNK         0.0600 
    237 H237       -3.8178  -17.7576  -52.3729 H         1 UNK         0.0600 
    238 H238       -2.1749  -17.6641  -51.8005 H         1 UNK         0.0600 
    239 H239       -2.5205  -17.3528  -53.4898 H         1 UNK         0.0600 
    240 H240       -0.4635  -18.1697  -52.4007 H         1 UNK         0.3000 
    241 H241        1.5967  -20.0894  -52.9011 H         1 UNK         0.0600 
    242 H242        2.5949  -20.6805  -54.8539 H         1 UNK         0.3800 
    243 H243        2.3895  -19.8039  -56.3434 H         1 UNK         0.3800 
    244 H244        3.0667  -17.9319  -52.9016 H         1 UNK         0.0800 
    245 H245        1.6115  -17.0442  -52.5585 H         1 UNK         0.0800 
    246 H246        1.4430  -16.2168  -50.3440 H         1 UNK         0.0800 
    247 H247        1.7972  -17.0246  -48.8397 H         1 UNK         0.0800 
@<TRIPOS>BOND
     1    1    2 1    
     2    1  127 1    
     3    1  128 1    
     4    1  129 1    
     5    2    3 2    
     6    2    4 am   BACKBONE|DICT|INTERRES
     7    4    5 1    
     8    4  130 1    
     9    5    6 1    
    10    5   65 1    
    11    5  131 1    
    12    6    7 1    
    13    6  132 1    
    14    6  133 1    
    15    7    8 1    
    16    8    9 1    
    17    8  134 1    
    18    8  135 1    
    19    9   10 ar   
    20    9   14 ar   
    21   10   11 ar   
    22   10  136 1    
    23   11   12 ar   
    24   11  126 1    
    25   12   13 ar   
    26   12  137 1    
    27   13   14 ar   
    28   13   15 1    
    29   14  138 1    
    30   15   16 1    
    31   15  139 1    
    32   15  140 1    
    33   16   17 1    
    34   17   18 1    
    35   17  141 1    
    36   17  142 1    
    37   18   19 1    
    38   18   67 1    
    39   18  143 1    
    40   19   20 am   BACKBONE|DICT|INTERRES
    41   19  144 1    
    42   20   21 2    
    43   20   22 1    
    44   22   23 1    
    45   22   24 1    
    46   22  145 1    
    47   23  146 1    
    48   23  147 1    
    49   23  148 1    
    50   24   25 am   BACKBONE|DICT|INTERRES
    51   24  149 1    
    52   25   26 2    
    53   25   27 1    
    54   27   28 1    
    55   27   29 1    
    56   27  150 1    
    57   28  151 1    
    58   28  152 1    
    59   28  153 1    
    60   29   30 am   BACKBONE|DICT|INTERRES
    61   29  154 1    
    62   30   31 2    
    63   30   32 1    
    64   32   33 1    
    65   32   34 1    
    66   32  155 1    
    67   33  156 1    
    68   33  157 1    
    69   33  158 1    
    70   34   35 am   BACKBONE|DICT|INTERRES
    71   34  159 1    
    72   35   36 2    
    73   35   37 1    
    74   37   38 1    
    75   37   39 1    
    76   37  160 1    
    77   38  161 1    
    78   38  162 1    
    79   38  163 1    
    80   39   40 am   BACKBONE|DICT|INTERRES
    81   39  164 1    
    82   40   41 2    
    83   40   42 1    
    84   42   43 1    
    85   42   44 1    
    86   42  165 1    
    87   43  166 1    
    88   43  167 1    
    89   43  168 1    
    90   44   45 am   BACKBONE|DICT|INTERRES
    91   44  169 1    
    92   45   46 2    
    93   45   47 1    
    94   47   48 1    
    95   47   49 1    
    96   47  170 1    
    97   48  171 1    
    98   48  172 1    
    99   48  173 1    
   100   49   50 am   BACKBONE|DICT|INTERRES
   101   49  174 1    
   102   50   51 2    
   103   50   52 1    
   104   52   53 1    
   105   52   54 1    
   106   52  175 1    
   107   53  176 1    
   108   53  177 1    
   109   53  178 1    
   110   54   55 am   BACKBONE|DICT|INTERRES
   111   54  179 1    
   112   55   56 2    
   113   55   57 1    
   114   57   58 1    
   115   57   59 1    
   116   57  180 1    
   117   58  181 1    
   118   58  182 1    
   119   58  183 1    
   120   59   60 am   BACKBONE|DICT|INTERRES
   121   59  184 1    
   122   60   61 2    
   123   60   62 1    
   124   62   63 1    
   125   62   64 1    
   126   62  185 1    
   127   63  186 1    
   128   63  187 1    
   129   63  188 1    
   130   64   65 am   BACKBONE|DICT|INTERRES
   131   64  189 1    
   132   65   66 2    
   133   67   68 2    
   134   67   69 am   BACKBONE|DICT|INTERRES
   135   69   70 1    
   136   69  190 1    
   137   70   71 1    
   138   70   72 1    
   139   70  191 1    
   140   71  192 1    
   141   71  193 1    
   142   71  194 1    
   143   72   73 2    
   144   72   74 am   BACKBONE|DICT|INTERRES
   145   74   75 1    
   146   74  195 1    
   147   75   76 1    
   148   75   77 1    
   149   75  196 1    
   150   76  197 1    
   151   76  198 1    
   152   76  199 1    
   153   77   78 2    
   154   77   79 am   BACKBONE|DICT|INTERRES
   155   79   80 1    
   156   79  200 1    
   157   80   81 1    
   158   80   82 1    
   159   80  201 1    
   160   81  202 1    
   161   81  203 1    
   162   81  204 1    
   163   82   83 2    
   164   82   84 am   BACKBONE|DICT|INTERRES
   165   84   85 1    
   166   84  205 1    
   167   85   86 1    
   168   85   87 1    
   169   85  206 1    
   170   86  207 1    
   171   86  208 1    
   172   86  209 1    
   173   87   88 2    
   174   87   89 am   BACKBONE|DICT|INTERRES
   175   89   90 1    
   176   89  210 1    
   177   90   91 1    
   178   90   92 1    
   179   90  211 1    
   180   91  212 1    
   181   91  213 1    
   182   91  214 1    
   183   92   93 2    
   184   92   94 am   BACKBONE|DICT|INTERRES
   185   94   95 1    
   186   94  215 1    
   187   95   96 1    
   188   95   97 1    
   189   95  216 1    
   190   96  217 1    
   191   96  218 1    
   192   96  219 1    
   193   97   98 2    
   194   97   99 am   BACKBONE|DICT|INTERRES
   195   99  100 1    
   196   99  220 1    
   197  100  101 1    
   198  100  102 1    
   199  100  221 1    
   200  101  222 1    
   201  101  223 1    
   202  101  224 1    
   203  102  103 2    
   204  102  104 am   BACKBONE|DICT|INTERRES
   205  104  105 1    
   206  104  225 1    
   207  105  106 1    
   208  105  107 1    
   209  105  226 1    
   210  106  227 1    
   211  106  228 1    
   212  106  229 1    
   213  107  108 2    
   214  107  109 am   BACKBONE|DICT|INTERRES
   215  109  110 1    
   216  109  230 1    
   217  110  111 1    
   218  110  112 1    
   219  110  231 1    
   220  111  232 1    
   221  111  233 1    
   222  111  234 1    
   223  112  113 2    
   224  112  114 am   BACKBONE|DICT|INTERRES
   225  114  115 1    
   226  114  235 1    
   227  115  116 1    
   228  115  117 1    
   229  115  236 1    
   230  116  237 1    
   231  116  238 1    
   232  116  239 1    
   233  117  118 2    
   234  117  119 am   BACKBONE|DICT|INTERRES
   235  119  120 1    
   236  119  240 1    
   237  120  121 1    
   238  120  124 1    
   239  120  241 1    
   240  121  122 am   BACKBONE|DICT|INTERRES
   241  121  123 2    
   242  122  242 1    
   243  122  243 1    
   244  124  125 1    
   245  124  244 1    
   246  124  245 1    
   247  125  126 1    
   248  126  246 1    
   249  126  247 1    
@<TRIPOS>SUBSTRUCTURE
     1 UNK         1 GROUP             0       ****    0 ROOT    
