@<TRIPOS>MOLECULE
3R540
247   249    1
SMALL
USER_CHARGES


@<TRIPOS>ATOM
      1 CA          1.2034  -12.4379  -51.5632 C.3       0 UNK        -0.1800 
      2 C           1.8464  -11.8479  -50.3166 C.2       0 UNK         0.5000 
      3 O           1.8619  -10.6280  -50.1484 O.2       0 UNK        -0.5000 
      4 N           2.3713  -12.7069  -49.4352 N.am      1 UNK        -0.5000 
      5 CA          3.0312  -12.3682  -48.1680 C.3       1 UNK         0.1400 
      6 C6          4.0248  -13.4768  -47.7159 C.3       23 UNK        -0.0398 
      7 S7          3.3378  -15.1725  -47.7687 S.3       23 UNK        -0.2404 
      8 C8          4.1672  -15.8160  -49.2534 C.3       23 UNK        -0.0205 
      9 C9          3.4338  -17.0176  -49.8230 C.ar      23 UNK        -0.0193 
     10 C10         2.3778  -16.8281  -50.7190 C.ar      23 UNK        -0.1150 
     11 C11         1.7040  -17.9234  -51.2751 C.ar      23 UNK        -0.0193 
     12 C12         2.1208  -19.2133  -50.9336 C.ar      23 UNK        -0.1150 
     13 C13         3.1763  -19.4176  -50.0407 C.ar      23 UNK        -0.0193 
     14 C14         3.8247  -18.3142  -49.4807 C.ar      23 UNK        -0.1150 
     15 C15         3.6329  -20.8294  -49.7035 C.3       23 UNK        -0.0205 
     16 S16         2.8545  -21.4552  -48.1837 S.3       23 UNK        -0.2404 
     17 C17         1.1141  -21.6057  -48.7066 C.3       23 UNK        -0.0398 
     18 CA          0.3327  -22.6314  -47.8557 C.3       11 UNK         0.1400 
     19 N           0.2024  -22.2270  -46.4521 N.am      11 UNK        -0.5000 
     20 C          -0.2752  -23.0150  -45.4787 C.2       10 UNK         0.5000 
     21 O          -0.6119  -24.1862  -45.6515 O.2       10 UNK        -0.5000 
     22 CA         -0.4597  -22.3787  -44.0898 C.3       10 UNK         0.1400 
     23 CB          0.8686  -22.3368  -43.3202 C.3       10 UNK        -0.1800 
     24 N          -1.0454  -21.0392  -44.1604 N.am      10 UNK        -0.5000 
     25 C          -2.2795  -20.7829  -44.6191 C.2       9 UNK         0.5000 
     26 O          -3.0666  -21.6566  -44.9804 O.2       9 UNK        -0.5000 
     27 CA         -2.6977  -19.3067  -44.7336 C.3       9 UNK         0.1400 
     28 CB         -3.1618  -18.7659  -43.3735 C.3       9 UNK        -0.1800 
     29 N          -1.6368  -18.4540  -45.2669 N.am      9 UNK        -0.5000 
     30 C          -1.0960  -18.5760  -46.4875 C.2       8 UNK         0.5000 
     31 O          -1.4607  -19.4058  -47.3194 O.2       8 UNK        -0.5000 
     32 CA          0.0894  -17.6479  -46.8096 C.3       8 UNK         0.1400 
     33 CB         -0.4041  -16.2393  -47.1708 C.3       8 UNK        -0.1800 
     34 N           1.0490  -17.5647  -45.7084 N.am      8 UNK        -0.5000 
     35 C           1.7259  -18.6085  -45.2092 C.2       7 UNK         0.5000 
     36 O           1.6306  -19.7574  -45.6368 O.2       7 UNK        -0.5000 
     37 CA          2.6033  -18.3287  -43.9794 C.3       7 UNK         0.1400 
     38 CB          3.8955  -17.6002  -44.3810 C.3       7 UNK        -0.1800 
     39 N           1.8794  -17.5498  -42.9739 N.am      7 UNK        -0.5000 
     40 C           0.8542  -18.0259  -42.2494 C.2       6 UNK         0.5000 
     41 O           0.4532  -19.1872  -42.3200 O.2       6 UNK        -0.5000 
     42 CA          0.1225  -17.0367  -41.3186 C.3       6 UNK         0.1400 
     43 CB          0.7857  -17.0093  -39.9338 C.3       6 UNK        -0.1800 
     44 N           0.0654  -15.6753  -41.8513 N.am      6 UNK        -0.5000 
     45 C          -0.5133  -15.3313  -43.0094 C.2       5 UNK         0.5000 
     46 O          -1.1648  -16.1146  -43.6987 O.2       5 UNK        -0.5000 
     47 CA         -0.3006  -13.8910  -43.5136 C.3       5 UNK         0.1400 
     48 CB         -1.5565  -13.0474  -43.2494 C.3       5 UNK        -0.1800 
     49 N           0.8716  -13.1865  -42.9789 N.am      5 UNK        -0.5000 
     50 C           2.1457  -13.6081  -43.0199 C.2       4 UNK         0.5000 
     51 O           2.4849  -14.7389  -43.3716 O.2       4 UNK        -0.5000 
     52 CA          3.2061  -12.5641  -42.6367 C.3       4 UNK         0.1400 
     53 CB          4.6477  -13.0470  -42.8823 C.3       4 UNK        -0.1800 
     54 N           2.9599  -11.3559  -43.4175 N.am      4 UNK        -0.5000 
     55 C           3.0241  -10.0984  -42.9631 C.2       3 UNK         0.5000 
     56 O           3.3378   -9.8084  -41.8080 O.2       3 UNK        -0.5000 
     57 CA          2.6830   -8.9660  -43.9570 C.3       3 UNK         0.1400 
     58 CB          3.9651   -8.2568  -44.4203 C.3       3 UNK        -0.1800 
     59 N           1.9479   -9.4220  -45.1394 N.am      3 UNK        -0.5000 
     60 C           0.6760   -9.8449  -45.1430 C.2       2 UNK         0.5000 
     61 O          -0.0519   -9.8154  -44.1508 O.2       2 UNK        -0.5000 
     62 CA          0.1387  -10.4348  -46.4645 C.3       2 UNK         0.1400 
     63 CB         -0.6874   -9.3882  -47.2265 C.3       2 UNK        -0.1800 
     64 N           1.1779  -10.9619  -47.3573 N.am      2 UNK        -0.5000 
     65 C           2.0158  -11.9675  -47.0719 C.2       1 UNK         0.5000 
     66 O           2.0139  -12.5433  -45.9859 O.2       1 UNK        -0.5000 
     67 C          -1.0379  -22.9413  -48.4912 C.2       11 UNK         0.5000 
     68 O          -1.1737  -23.9743  -49.1474 O.2       11 UNK        -0.5000 
     69 N          -2.0360  -22.0781  -48.2502 N.am      12 UNK        -0.5000 
     70 CA         -3.4183  -22.2686  -48.6932 C.3       12 UNK         0.1400 
     71 CB         -4.2548  -21.0255  -48.3531 C.3       12 UNK        -0.1800 
     72 C          -4.0594  -23.5321  -48.0924 C.2       12 UNK         0.5000 
     73 O          -4.7038  -24.2855  -48.8206 O.2       12 UNK        -0.5000 
     74 N          -3.8433  -23.7617  -46.7890 N.am      13 UNK        -0.5000 
     75 CA         -4.3031  -24.9460  -46.0633 C.3       13 UNK         0.1400 
     76 CB         -4.0618  -24.7625  -44.5578 C.3       13 UNK        -0.1800 
     77 C          -3.6518  -26.2452  -46.5683 C.2       13 UNK         0.5000 
     78 O          -4.3576  -27.2351  -46.7615 O.2       13 UNK        -0.5000 
     79 N          -2.3350  -26.2128  -46.8212 N.am      14 UNK        -0.5000 
     80 CA         -1.5702  -27.3231  -47.3987 C.3       14 UNK         0.1400 
     81 CB         -0.0724  -26.9836  -47.3727 C.3       14 UNK        -0.1800 
     82 C          -2.0224  -27.6854  -48.8270 C.2       14 UNK         0.5000 
     83 O          -2.0453  -28.8645  -49.1805 O.2       14 UNK        -0.5000 
     84 N          -2.4174  -26.6676  -49.6012 N.am      15 UNK        -0.5000 
     85 CA         -3.0094  -26.7911  -50.9332 C.3       15 UNK         0.1400 
     86 CB         -2.7242  -25.4948  -51.7048 C.3       15 UNK        -0.1800 
     87 C          -4.5241  -27.0962  -50.9104 C.2       15 UNK         0.5000 
     88 O          -5.1355  -27.1576  -51.9780 O.2       15 UNK        -0.5000 
     89 N          -5.1168  -27.2515  -49.7151 N.am      16 UNK        -0.5000 
     90 CA         -6.5334  -27.5325  -49.4452 C.3       16 UNK         0.1400 
     91 CB         -6.8873  -28.9653  -49.8937 C.3       16 UNK        -0.1800 
     92 C          -7.4975  -26.4720  -50.0228 C.2       16 UNK         0.5000 
     93 O          -8.6258  -26.8004  -50.3930 O.2       16 UNK        -0.5000 
     94 N          -7.0167  -25.2233  -50.1150 N.am      17 UNK        -0.5000 
     95 CA         -7.6502  -24.0431  -50.7116 C.3       17 UNK         0.1400 
     96 CB         -8.9076  -23.6361  -49.9170 C.3       17 UNK        -0.1800 
     97 C          -7.9229  -24.1520  -52.2299 C.2       17 UNK         0.5000 
     98 O          -8.6053  -23.2862  -52.7801 O.2       17 UNK        -0.5000 
     99 N          -7.3759  -25.1798  -52.8967 N.am      18 UNK        -0.5000 
    100 CA        -7.4842  -25.3811  -54.3447 C.3       18 UNK         0.1400 
    101 CB        -7.2959  -26.8737  -54.6569 C.3       18 UNK        -0.1800 
    102 C         -6.4681  -24.5306  -55.1317 C.2       18 UNK         0.5000 
    103 O         -6.6412  -24.3297  -56.3346 O.2       18 UNK        -0.5000 
    104 N         -5.4344  -24.0465  -54.4384 N.am      19 UNK        -0.5000 
    105 CA        -4.3733  -23.1778  -54.9243 C.3       19 UNK         0.1400 
    106 CB        -3.3202  -24.0135  -55.6786 C.3       19 UNK        -0.1800 
    107 C         -3.7704  -22.4502  -53.7111 C.2       19 UNK         0.5000 
    108 O         -4.2087  -22.6805  -52.5801 O.2       19 UNK        -0.5000 
    109 N         -2.7740  -21.5912  -53.9694 N.am      20 UNK        -0.5000 
    110 CA        -1.9549  -20.8736  -52.9822 C.3       20 UNK         0.1400 
    111 CB        -1.0687  -21.8628  -52.1971 C.3       20 UNK        -0.1800 
    112 C         -2.7525  -19.9331  -52.0526 C.2       20 UNK         0.5000 
    113 O         -2.3261  -19.6729  -50.9271 O.2       20 UNK        -0.5000 
    114 N         -3.8814  -19.4081  -52.5450 N.am      21 UNK        -0.5000 
    115 CA        -4.7983  -18.5246  -51.8235 C.3       21 UNK         0.1400 
    116 CB        -6.1900  -18.6302  -52.4728 C.3       21 UNK        -0.1800 
    117 C         -4.2802  -17.0708  -51.7402 C.2       21 UNK         0.5000 
    118 O         -4.9693  -16.1401  -52.1619 O.2       21 UNK        -0.5000 
    119 N         -3.0681  -16.9030  -51.1995 N.am      22 UNK        -0.5000 
    120 CA        -2.4187  -15.6037  -50.9542 C.3       22 UNK         0.1400 
    121 C         -2.9664  -14.8354  -49.7139 C.2       22 UNK         0.5000 
    122 N         -3.8047  -15.4283  -48.8720 N.am      22 UNK        -0.7600 
    123 O         -2.6279  -13.6722  -49.5163 O.2       22 UNK        -0.5000 
    124 C124       -0.8757  -15.7423  -50.8844 C.3       23 UNK        -0.0398 
    125 S125       -0.1304  -16.1041  -52.5102 S.3       23 UNK        -0.2404 
    126 C126        0.5413  -17.7841  -52.2605 C.3       23 UNK        -0.0205 
    127 H127        0.1177  -12.3672  -51.4956 H         1 UNK         0.0600 
    128 H128        1.5279  -11.8920  -52.4490 H         1 UNK         0.0600 
    129 H129        1.4722  -13.4855  -51.6977 H         1 UNK         0.0600 
    130 H130        2.2890  -13.6987  -49.6041 H         1 UNK         0.3000 
    131 H131        3.6327  -11.4732  -48.3408 H         1 UNK         0.0600 
    132 H132        4.9117  -13.4368  -48.3494 H         1 UNK         0.0800 
    133 H133        4.3970  -13.2850  -46.7078 H         1 UNK         0.0800 
    134 H134        4.2267  -15.0381  -50.0162 H         1 UNK         0.0800 
    135 H135        5.1964  -16.0791  -49.0042 H         1 UNK         0.0800 
    136 H136        2.0951  -15.8202  -50.9806 H         1 UNK         0.1150 
    137 H137        1.6234  -20.0661  -51.3720 H         1 UNK         0.1150 
    138 H138        4.6415  -18.4655  -48.7889 H         1 UNK         0.1150 
    139 H139        3.4233  -21.5089  -50.5310 H         1 UNK         0.0800 
    140 H140        4.7159  -20.8408  -49.5717 H         1 UNK         0.0800 
    141 H141        1.1058  -21.9094  -49.7542 H         1 UNK         0.0800 
    142 H142        0.6440  -20.6216  -48.6616 H         1 UNK         0.0800 
    143 H143        0.8978  -23.5660  -47.8660 H         1 UNK         0.0600 
    144 H144        0.5110  -21.2871  -46.2188 H         1 UNK         0.3000 
    145 H145       -1.1500  -23.0113  -43.5280 H         1 UNK         0.0600 
    146 H146        0.7224  -21.9731  -42.3031 H         1 UNK         0.0600 
    147 H147        1.3093  -23.3319  -43.2491 H         1 UNK         0.0600 
    148 H148        1.5987  -21.6889  -43.8049 H         1 UNK         0.0600 
    149 H149       -0.4633  -20.2709  -43.8453 H         1 UNK         0.3000 
    150 H150       -3.5407  -19.2536  -45.4254 H         1 UNK         0.0600 
    151 H151       -3.9782  -19.3675  -42.9721 H         1 UNK         0.0600 
    152 H152       -3.5235  -17.7410  -43.4589 H         1 UNK         0.0600 
    153 H153       -2.3548  -18.7761  -42.6409 H         1 UNK         0.0600 
    154 H154       -1.3100  -17.7041  -44.6619 H         1 UNK         0.3000 
    155 H155        0.6093  -18.0617  -47.6769 H         1 UNK         0.0600 
    156 H156        0.4000  -15.6259  -47.5757 H         1 UNK         0.0600 
    157 H157       -0.8224  -15.7193  -46.3098 H         1 UNK         0.0600 
    158 H158       -1.1880  -16.2896  -47.9239 H         1 UNK         0.0600 
    159 H159        1.1766  -16.6597  -45.2800 H         1 UNK         0.3000 
    160 H160        2.8792  -19.2878  -43.5357 H         1 UNK         0.0600 
    161 H161        3.6906  -16.6375  -44.8508 H         1 UNK         0.0600 
    162 H162        4.4698  -18.1937  -45.0934 H         1 UNK         0.0600 
    163 H163        4.5331  -17.4206  -43.5153 H         1 UNK         0.0600 
    164 H164        2.1147  -16.5624  -42.9132 H         1 UNK         0.3000 
    165 H165       -0.9035  -17.3902  -41.1996 H         1 UNK         0.0600 
    166 H166        1.8088  -16.6346  -39.9851 H         1 UNK         0.0600 
    167 H167        0.2295  -16.3767  -39.2418 H         1 UNK         0.0600 
    168 H168        0.8234  -18.0094  -39.4998 H         1 UNK         0.0600 
    169 H169        0.5897  -14.9697  -41.3562 H         1 UNK         0.3000 
    170 H170       -0.1590  -13.9561  -44.5943 H         1 UNK         0.0600 
    171 H171       -2.4483  -13.5355  -43.6450 H         1 UNK         0.0600 
    172 H172       -1.7149  -12.8875  -42.1823 H         1 UNK         0.0600 
    173 H173       -1.4867  -12.0719  -43.7295 H         1 UNK         0.0600 
    174 H174        0.7079  -12.2348  -42.6827 H         1 UNK         0.3000 
    175 H175        3.0814  -12.3620  -41.5711 H         1 UNK         0.0600 
    176 H176        4.8650  -13.9439  -42.3009 H         1 UNK         0.0600 
    177 H177        5.3728  -12.2870  -42.5912 H         1 UNK         0.0600 
    178 H178        4.8154  -13.2860  -43.9334 H         1 UNK         0.0600 
    179 H179        2.6471  -11.5255  -44.3691 H         1 UNK         0.3000 
    180 H180        2.0623   -8.2410  -43.4265 H         1 UNK         0.0600 
    181 H181        4.6234   -8.9329  -44.9674 H         1 UNK         0.0600 
    182 H182        4.5270   -7.8688  -43.5697 H         1 UNK         0.0600 
    183 H183        3.7364   -7.4109  -45.0689 H         1 UNK         0.0600 
    184 H184        2.4670   -9.4726  -46.0033 H         1 UNK         0.3000 
    185 H185       -0.5196  -11.2654  -46.2015 H         1 UNK         0.0600 
    186 H186       -1.1495   -9.8211  -48.1140 H         1 UNK         0.0600 
    187 H187       -1.4906   -8.9931  -46.6030 H         1 UNK         0.0600 
    188 H188       -0.0724   -8.5455  -47.5447 H         1 UNK         0.0600 
    189 H189        1.2437  -10.5499  -48.2835 H         1 UNK         0.3000 
    190 H190       -1.8351  -21.2158  -47.7492 H         1 UNK         0.3000 
    191 H191       -3.4055  -22.3821  -49.7792 H         1 UNK         0.0600 
    192 H192       -3.8202  -20.1247  -48.7848 H         1 UNK         0.0600 
    193 H193       -5.2676  -21.1197  -48.7463 H         1 UNK         0.0600 
    194 H194       -4.3314  -20.8716  -47.2768 H         1 UNK         0.0600 
    195 H195       -3.3468  -23.0613  -46.2443 H         1 UNK         0.3000 
    196 H196       -5.3798  -25.0333  -46.2237 H         1 UNK         0.0600 
    197 H197       -4.4104  -25.6305  -43.9970 H         1 UNK         0.0600 
    198 H198       -4.5975  -23.8929  -44.1768 H         1 UNK         0.0600 
    199 H199       -3.0039  -24.6280  -44.3321 H         1 UNK         0.0600 
    200 H200       -1.8111  -25.3724  -46.5905 H         1 UNK         0.3000 
    201 H201       -1.7310  -28.2004  -46.7690 H         1 UNK         0.0600 
    202 H202        0.2735  -26.8058  -46.3543 H         1 UNK         0.0600 
    203 H203        0.1485  -26.0925  -47.9608 H         1 UNK         0.0600 
    204 H204        0.5218  -27.8026  -47.7799 H         1 UNK         0.0600 
    205 H205       -2.3085  -25.7225  -49.2475 H         1 UNK         0.3000 
    206 H206       -2.5252  -27.6135  -51.4632 H         1 UNK         0.0600 
    207 H207       -1.6529  -25.3161  -51.7976 H         1 UNK         0.0600 
    208 H208       -3.1366  -25.5315  -52.7132 H         1 UNK         0.0600 
    209 H209       -3.1609  -24.6342  -51.1983 H         1 UNK         0.0600 
    210 H210       -4.5416  -27.1479  -48.8879 H         1 UNK         0.3000 
    211 H211       -6.6513  -27.4864  -48.3620 H         1 UNK         0.0600 
    212 H212       -6.8492  -29.0701  -50.9785 H         1 UNK         0.0600 
    213 H213       -7.8926  -29.2406  -49.5730 H         1 UNK         0.0600 
    214 H214       -6.2006  -29.6935  -49.4619 H         1 UNK         0.0600 
    215 H215       -6.0826  -25.0534  -49.7434 H         1 UNK         0.3000 
    216 H216       -6.9214  -23.2383  -50.6033 H         1 UNK         0.0600 
    217 H217       -8.6872  -23.5401  -48.8538 H         1 UNK         0.0600 
    218 H218       -9.7117  -24.3636  -50.0297 H         1 UNK         0.0600 
    219 H219       -9.2906  -22.6726  -50.2548 H         1 UNK         0.0600 
    220 H220       -6.8081  -25.8500  -52.3901 H         1 UNK         0.3000 
    221 H221       -8.4851  -25.0910  -54.6711 H         1 UNK         0.0600 
    222 H222       -6.2920  -27.2152  -54.4026 H         1 UNK         0.0600 
    223 H223       -8.0089  -27.4862  -54.1047 H         1 UNK         0.0600 
    224 H224       -7.4491  -27.0719  -55.7184 H         1 UNK         0.0600 
    225 H225       -5.4015  -24.2024  -53.4384 H         1 UNK         0.3000 
    226 H226       -4.8003  -22.4275  -55.5927 H         1 UNK         0.0600 
    227 H227       -3.7663  -24.5527  -56.5144 H         1 UNK         0.0600 
    228 H228       -2.5320  -23.3836  -56.0916 H         1 UNK         0.0600 
    229 H229       -2.8466  -24.7469  -55.0253 H         1 UNK         0.0600 
    230 H230       -2.5044  -21.4517  -54.9333 H         1 UNK         0.3000 
    231 H231       -1.2900  -20.2256  -53.5548 H         1 UNK         0.0600 
    232 H232       -0.3787  -21.3344  -51.5407 H         1 UNK         0.0600 
    233 H233       -0.4705  -22.4781  -52.8688 H         1 UNK         0.0600 
    234 H234       -1.6633  -22.5299  -51.5731 H         1 UNK         0.0600 
    235 H235       -4.1409  -19.6457  -53.4906 H         1 UNK         0.3000 
    236 H236       -4.8905  -18.8868  -50.7974 H         1 UNK         0.0600 
    237 H237       -6.9214  -18.0266  -51.9338 H         1 UNK         0.0600 
    238 H238       -6.1787  -18.2880  -53.5084 H         1 UNK         0.0600 
    239 H239       -6.5516  -19.6589  -52.4631 H         1 UNK         0.0600 
    240 H240       -2.5712  -17.7342  -50.8935 H         1 UNK         0.3000 
    241 H241       -2.6470  -14.9579  -51.8044 H         1 UNK         0.0600 
    242 H242       -4.0981  -16.3794  -49.0205 H         1 UNK         0.3800 
    243 H243       -4.1564  -14.9119  -48.0816 H         1 UNK         0.3800 
    244 H244       -0.4150  -14.8197  -50.5276 H         1 UNK         0.0800 
    245 H245       -0.5938  -16.5147  -50.1684 H         1 UNK         0.0800 
    246 H246        0.8667  -18.1647  -53.2295 H         1 UNK         0.0800 
    247 H247       -0.2709  -18.4289  -51.9331 H         1 UNK         0.0800 
@<TRIPOS>BOND
     1    1    2 1    
     2    1  127 1    
     3    1  128 1    
     4    1  129 1    
     5    2    3 2    
     6    2    4 am   BACKBONE|DICT|INTERRES
     7    4    5 1    
     8    4  130 1    
     9    5    6 1    
    10    5   65 1    
    11    5  131 1    
    12    6    7 1    
    13    6  132 1    
    14    6  133 1    
    15    7    8 1    
    16    8    9 1    
    17    8  134 1    
    18    8  135 1    
    19    9   10 ar   
    20    9   14 ar   
    21   10   11 ar   
    22   10  136 1    
    23   11   12 ar   
    24   11  126 1    
    25   12   13 ar   
    26   12  137 1    
    27   13   14 ar   
    28   13   15 1    
    29   14  138 1    
    30   15   16 1    
    31   15  139 1    
    32   15  140 1    
    33   16   17 1    
    34   17   18 1    
    35   17  141 1    
    36   17  142 1    
    37   18   19 1    
    38   18   67 1    
    39   18  143 1    
    40   19   20 am   BACKBONE|DICT|INTERRES
    41   19  144 1    
    42   20   21 2    
    43   20   22 1    
    44   22   23 1    
    45   22   24 1    
    46   22  145 1    
    47   23  146 1    
    48   23  147 1    
    49   23  148 1    
    50   24   25 am   BACKBONE|DICT|INTERRES
    51   24  149 1    
    52   25   26 2    
    53   25   27 1    
    54   27   28 1    
    55   27   29 1    
    56   27  150 1    
    57   28  151 1    
    58   28  152 1    
    59   28  153 1    
    60   29   30 am   BACKBONE|DICT|INTERRES
    61   29  154 1    
    62   30   31 2    
    63   30   32 1    
    64   32   33 1    
    65   32   34 1    
    66   32  155 1    
    67   33  156 1    
    68   33  157 1    
    69   33  158 1    
    70   34   35 am   BACKBONE|DICT|INTERRES
    71   34  159 1    
    72   35   36 2    
    73   35   37 1    
    74   37   38 1    
    75   37   39 1    
    76   37  160 1    
    77   38  161 1    
    78   38  162 1    
    79   38  163 1    
    80   39   40 am   BACKBONE|DICT|INTERRES
    81   39  164 1    
    82   40   41 2    
    83   40   42 1    
    84   42   43 1    
    85   42   44 1    
    86   42  165 1    
    87   43  166 1    
    88   43  167 1    
    89   43  168 1    
    90   44   45 am   BACKBONE|DICT|INTERRES
    91   44  169 1    
    92   45   46 2    
    93   45   47 1    
    94   47   48 1    
    95   47   49 1    
    96   47  170 1    
    97   48  171 1    
    98   48  172 1    
    99   48  173 1    
   100   49   50 am   BACKBONE|DICT|INTERRES
   101   49  174 1    
   102   50   51 2    
   103   50   52 1    
   104   52   53 1    
   105   52   54 1    
   106   52  175 1    
   107   53  176 1    
   108   53  177 1    
   109   53  178 1    
   110   54   55 am   BACKBONE|DICT|INTERRES
   111   54  179 1    
   112   55   56 2    
   113   55   57 1    
   114   57   58 1    
   115   57   59 1    
   116   57  180 1    
   117   58  181 1    
   118   58  182 1    
   119   58  183 1    
   120   59   60 am   BACKBONE|DICT|INTERRES
   121   59  184 1    
   122   60   61 2    
   123   60   62 1    
   124   62   63 1    
   125   62   64 1    
   126   62  185 1    
   127   63  186 1    
   128   63  187 1    
   129   63  188 1    
   130   64   65 am   BACKBONE|DICT|INTERRES
   131   64  189 1    
   132   65   66 2    
   133   67   68 2    
   134   67   69 am   BACKBONE|DICT|INTERRES
   135   69   70 1    
   136   69  190 1    
   137   70   71 1    
   138   70   72 1    
   139   70  191 1    
   140   71  192 1    
   141   71  193 1    
   142   71  194 1    
   143   72   73 2    
   144   72   74 am   BACKBONE|DICT|INTERRES
   145   74   75 1    
   146   74  195 1    
   147   75   76 1    
   148   75   77 1    
   149   75  196 1    
   150   76  197 1    
   151   76  198 1    
   152   76  199 1    
   153   77   78 2    
   154   77   79 am   BACKBONE|DICT|INTERRES
   155   79   80 1    
   156   79  200 1    
   157   80   81 1    
   158   80   82 1    
   159   80  201 1    
   160   81  202 1    
   161   81  203 1    
   162   81  204 1    
   163   82   83 2    
   164   82   84 am   BACKBONE|DICT|INTERRES
   165   84   85 1    
   166   84  205 1    
   167   85   86 1    
   168   85   87 1    
   169   85  206 1    
   170   86  207 1    
   171   86  208 1    
   172   86  209 1    
   173   87   88 2    
   174   87   89 am   BACKBONE|DICT|INTERRES
   175   89   90 1    
   176   89  210 1    
   177   90   91 1    
   178   90   92 1    
   179   90  211 1    
   180   91  212 1    
   181   91  213 1    
   182   91  214 1    
   183   92   93 2    
   184   92   94 am   BACKBONE|DICT|INTERRES
   185   94   95 1    
   186   94  215 1    
   187   95   96 1    
   188   95   97 1    
   189   95  216 1    
   190   96  217 1    
   191   96  218 1    
   192   96  219 1    
   193   97   98 2    
   194   97   99 am   BACKBONE|DICT|INTERRES
   195   99  100 1    
   196   99  220 1    
   197  100  101 1    
   198  100  102 1    
   199  100  221 1    
   200  101  222 1    
   201  101  223 1    
   202  101  224 1    
   203  102  103 2    
   204  102  104 am   BACKBONE|DICT|INTERRES
   205  104  105 1    
   206  104  225 1    
   207  105  106 1    
   208  105  107 1    
   209  105  226 1    
   210  106  227 1    
   211  106  228 1    
   212  106  229 1    
   213  107  108 2    
   214  107  109 am   BACKBONE|DICT|INTERRES
   215  109  110 1    
   216  109  230 1    
   217  110  111 1    
   218  110  112 1    
   219  110  231 1    
   220  111  232 1    
   221  111  233 1    
   222  111  234 1    
   223  112  113 2    
   224  112  114 am   BACKBONE|DICT|INTERRES
   225  114  115 1    
   226  114  235 1    
   227  115  116 1    
   228  115  117 1    
   229  115  236 1    
   230  116  237 1    
   231  116  238 1    
   232  116  239 1    
   233  117  118 2    
   234  117  119 am   BACKBONE|DICT|INTERRES
   235  119  120 1    
   236  119  240 1    
   237  120  121 1    
   238  120  124 1    
   239  120  241 1    
   240  121  122 am   BACKBONE|DICT|INTERRES
   241  121  123 2    
   242  122  242 1    
   243  122  243 1    
   244  124  125 1    
   245  124  244 1    
   246  124  245 1    
   247  125  126 1    
   248  126  246 1    
   249  126  247 1    
@<TRIPOS>SUBSTRUCTURE
     1 UNK         1 GROUP             0       ****    0 ROOT    
