@<TRIPOS>MOLECULE
3R540
247   249    1
SMALL
USER_CHARGES


@<TRIPOS>ATOM
      1 CA          6.6963  -14.4838  -50.4024 C.3       0 UNK        -0.1800 
      2 C           6.1901  -14.7556  -48.9930 C.2       0 UNK         0.5000 
      3 O           6.6351  -15.7097  -48.3546 O.2       0 UNK        -0.5000 
      4 N           5.2588  -13.9256  -48.5088 N.am      1 UNK        -0.5000 
      5 CA          4.6886  -14.0053  -47.1636 C.3       1 UNK         0.1400 
      6 C6          3.3085  -13.3010  -47.0744 C.3       23 UNK        -0.0398 
      7 S7          1.9555  -14.4243  -47.5466 S.3       23 UNK        -0.2404 
      8 C8          1.8555  -14.1839  -49.3420 C.3       23 UNK        -0.0205 
      9 C9          1.0692  -15.3106  -49.9919 C.ar      23 UNK        -0.0193 
     10 C10        -0.2555  -15.1168  -50.3888 C.ar      23 UNK        -0.1150 
     11 C11        -0.9670  -16.1423  -51.0198 C.ar      23 UNK        -0.0193 
     12 C12        -0.3400  -17.3715  -51.2515 C.ar      23 UNK        -0.1150 
     13 C13         0.9875  -17.5796  -50.8563 C.ar      23 UNK        -0.0193 
     14 C14         1.6818  -16.5449  -50.2229 C.ar      23 UNK        -0.1150 
     15 C15         1.7080  -18.8886  -51.1655 C.3       23 UNK        -0.0205 
     16 S16         0.7970  -20.3745  -50.6387 S.3       23 UNK        -0.2404 
     17 C17         0.7000  -20.1262  -48.8325 C.3       23 UNK        -0.0398 
     18 CA          0.4456  -21.4246  -48.0232 C.3       11 UNK         0.1400 
     19 N           0.4294  -21.1632  -46.5809 N.am      11 UNK        -0.5000 
     20 C           0.3247  -22.0936  -45.6202 C.2       10 UNK         0.5000 
     21 O           0.3068  -23.3042  -45.8370 O.2       10 UNK        -0.5000 
     22 CA          0.1535  -21.5874  -44.1760 C.3       10 UNK         0.1400 
     23 CB          1.5079  -21.1970  -43.5681 C.3       10 UNK        -0.1800 
     24 N          -0.7833  -20.4654  -44.0812 N.am      10 UNK        -0.5000 
     25 C          -2.0860  -20.5433  -44.3939 C.2       9 UNK         0.5000 
     26 O          -2.6424  -21.5836  -44.7418 O.2       9 UNK        -0.5000 
     27 CA         -2.8951  -19.2352  -44.3636 C.3       9 UNK         0.1400 
     28 CB         -3.3274  -18.8889  -42.9313 C.3       9 UNK        -0.1800 
     29 N          -2.1569  -18.1140  -44.9407 N.am      9 UNK        -0.5000 
     30 C          -1.7760  -18.0307  -46.2234 C.2       8 UNK         0.5000 
     31 O          -2.0729  -18.8624  -47.0813 O.2       8 UNK        -0.5000 
     32 CA         -0.8589  -16.8504  -46.5882 C.3       8 UNK         0.1400 
     33 CB         -1.6675  -15.5578  -46.7672 C.3       8 UNK        -0.1800 
     34 N           0.1814  -16.6469  -45.5789 N.am      8 UNK        -0.5000 
     35 C           1.1983  -17.4922  -45.3608 C.2       7 UNK         0.5000 
     36 O           1.3903  -18.5100  -46.0243 O.2       7 UNK        -0.5000 
     37 CA          2.1290  -17.1814  -44.1732 C.3       7 UNK         0.1400 
     38 CB          3.3615  -16.3869  -44.6198 C.3       7 UNK        -0.1800 
     39 N           1.4447  -16.4717  -43.0908 N.am      7 UNK        -0.5000 
     40 C           0.5549  -17.0634  -42.2806 C.2       6 UNK         0.5000 
     41 O           0.2357  -18.2493  -42.3729 O.2       6 UNK        -0.5000 
     42 CA         -0.1245  -16.1787  -41.2223 C.3       6 UNK         0.1400 
     43 CB          0.8339  -15.8742  -40.0620 C.3       6 UNK        -0.1800 
     44 N          -0.6369  -14.9231  -41.7671 N.am      6 UNK        -0.5000 
     45 C          -1.5798  -14.8063  -42.7087 C.2       5 UNK         0.5000 
     46 O          -2.1091  -15.7715  -43.2576 O.2       5 UNK        -0.5000 
     47 CA         -1.9898  -13.3821  -43.1358 C.3       5 UNK         0.1400 
     48 CB         -3.0468  -12.7971  -42.1802 C.3       5 UNK        -0.1800 
     49 N          -0.8626  -12.4592  -43.3328 N.am      5 UNK        -0.5000 
     50 C          -0.0066  -11.9731  -42.4243 C.2       4 UNK         0.5000 
     51 O          -0.0707  -12.2012  -41.2137 O.2       4 UNK        -0.5000 
     52 CA          1.1420  -11.1088  -42.9723 C.3       4 UNK         0.1400 
     53 CB          0.8857   -9.6216  -42.6862 C.3       4 UNK        -0.1800 
     54 N           2.4356  -11.4935  -42.4060 N.am      4 UNK        -0.5000 
     55 C           2.9997  -12.7011  -42.5310 C.2       3 UNK         0.5000 
     56 O           2.4883  -13.6474  -43.1373 O.2       3 UNK        -0.5000 
     57 CA          4.3768  -12.8852  -41.8861 C.3       3 UNK         0.1400 
     58 CB          4.2967  -13.7763  -40.6366 C.3       3 UNK        -0.1800 
     59 N           5.2388  -13.5083  -42.8797 N.am      3 UNK        -0.5000 
     60 C           6.5390  -13.2536  -43.0617 C.2       2 UNK         0.5000 
     61 O           7.1979  -12.5029  -42.3410 O.2       2 UNK        -0.5000 
     62 CA          7.2197  -13.9480  -44.2586 C.3       2 UNK         0.1400 
     63 CB          7.9480  -15.2194  -43.7961 C.3       2 UNK        -0.1800 
     64 N           6.2843  -14.3021  -45.3301 N.am      2 UNK        -0.5000 
     65 C           5.6902  -13.4238  -46.1492 C.2       1 UNK         0.5000 
     66 O           5.9006  -12.2095  -46.1276 O.2       1 UNK        -0.5000 
     67 C          -0.8371  -22.1579  -48.4705 C.2       11 UNK         0.5000 
     68 O          -0.7438  -23.2088  -49.1059 O.2       11 UNK        -0.5000 
     69 N          -2.0043  -21.6203  -48.0884 N.am      12 UNK        -0.5000 
     70 CA         -3.3140  -22.2018  -48.3797 C.3       12 UNK         0.1400 
     71 CB         -4.4150  -21.2461  -47.9049 C.3       12 UNK        -0.1800 
     72 C          -3.5008  -23.6034  -47.7717 C.2       12 UNK         0.5000 
     73 O          -4.0130  -24.4903  -48.4539 O.2       12 UNK        -0.5000 
     74 N          -3.0500  -23.7927  -46.5242 N.am      13 UNK        -0.5000 
     75 CA         -3.0593  -25.0767  -45.8240 C.3       13 UNK         0.1400 
     76 CB         -2.6764  -24.8683  -44.3512 C.3       13 UNK        -0.1800 
     77 C          -2.1441  -26.1225  -46.4858 C.2       13 UNK         0.5000 
     78 O          -2.5668  -27.2652  -46.6616 O.2       13 UNK        -0.5000 
     79 N          -0.9272  -25.7105  -46.8699 N.am      14 UNK        -0.5000 
     80 CA          0.0553  -26.5464  -47.5642 C.3       14 UNK         0.1400 
     81 CB          1.4050  -25.8150  -47.6230 C.3       14 UNK        -0.1800 
     82 C          -0.4002  -26.9607  -48.9752 C.2       14 UNK         0.5000 
     83 O          -0.1859  -28.1071  -49.3711 O.2       14 UNK        -0.5000 
     84 N          -1.0421  -26.0317  -49.6960 N.am      15 UNK        -0.5000 
     85 CA         -1.6345  -26.2632  -51.0142 C.3       15 UNK         0.1400 
     86 CB         -1.9286  -24.9041  -51.6706 C.3       15 UNK        -0.1800 
     87 C          -2.9213  -27.1102  -50.9684 C.2       15 UNK         0.5000 
     88 O          -3.3047  -27.6667  -51.9970 O.2       15 UNK        -0.5000 
     89 N          -3.5754  -27.1604  -49.7970 N.am      16 UNK        -0.5000 
     90 CA         -4.9265  -27.6777  -49.5530 C.3       16 UNK         0.1400 
     91 CB         -4.9966  -29.2018  -49.7806 C.3       16 UNK        -0.1800 
     92 C          -5.9687  -26.8811  -50.3654 C.2       16 UNK         0.5000 
     93 O          -6.7938  -27.4603  -51.0752 O.2       16 UNK        -0.5000 
     94 N          -5.8496  -25.5481  -50.2834 N.am      17 UNK        -0.5000 
     95 CA         -6.5331  -24.4936  -51.0388 C.3       17 UNK         0.1400 
     96 CB         -8.0595  -24.5380  -50.8398 C.3       17 UNK        -0.1800 
     97 C          -6.1558  -24.4582  -52.5319 C.2       17 UNK         0.5000 
     98 O          -5.7957  -23.3924  -53.0330 O.2       17 UNK        -0.5000 
     99 N          -6.2287  -25.6140  -53.2079 N.am      18 UNK        -0.5000 
    100 CA        -5.9640  -25.8353  -54.6320 C.3       18 UNK         0.1400 
    101 CB        -4.4459  -25.7539  -54.9127 C.3       18 UNK        -0.1800 
    102 C         -6.8175  -24.8928  -55.5063 C.2       18 UNK         0.5000 
    103 O         -8.0386  -25.0533  -55.5512 O.2       18 UNK        -0.5000 
    104 N         -6.1686  -23.9123  -56.1412 N.am      19 UNK        -0.5000 
    105 CA        -6.7920  -22.8005  -56.8540 C.3       19 UNK         0.1400 
    106 CB        -6.6950  -23.0545  -58.3696 C.3       19 UNK        -0.1800 
    107 C         -6.1496  -21.4622  -56.4352 C.2       19 UNK         0.5000 
    108 O         -6.2004  -20.4988  -57.2023 O.2       19 UNK        -0.5000 
    109 N         -5.5360  -21.4152  -55.2419 N.am      20 UNK        -0.5000 
    110 CA        -4.9096  -20.2152  -54.6907 C.3       20 UNK         0.1400 
    111 CB        -3.9421  -20.6129  -53.5633 C.3       20 UNK        -0.1800 
    112 C         -5.9741  -19.2405  -54.1624 C.2       20 UNK         0.5000 
    113 O         -6.9267  -19.6709  -53.5069 O.2       20 UNK        -0.5000 
    114 N         -5.7661  -17.9397  -54.4064 N.am      21 UNK        -0.5000 
    115 CA        -6.6505  -16.8516  -53.9703 C.3       21 UNK         0.1400 
    116 CB        -6.1552  -15.5314  -54.5811 C.3       21 UNK        -0.1800 
    117 C         -6.7700  -16.7223  -52.4380 C.2       21 UNK         0.5000 
    118 O         -7.7875  -16.2340  -51.9450 O.2       21 UNK        -0.5000 
    119 N         -5.7355  -17.1797  -51.7238 N.am      22 UNK        -0.5000 
    120 CA        -5.6869  -17.2657  -50.2574 C.3       22 UNK         0.1400 
    121 C         -6.4023  -18.5199  -49.6740 C.2       22 UNK         0.5000 
    122 N         -6.8806  -19.4640  -50.4782 N.am      22 UNK        -0.7600 
    123 O         -6.5497  -18.6269  -48.4603 O.2       22 UNK        -0.5000 
    124 C124       -4.2326  -17.1330  -49.7324 C.3       23 UNK        -0.0398 
    125 S125       -3.5340  -15.4979  -50.1504 S.3       23 UNK        -0.2404 
    126 C126       -2.3861  -15.8881  -51.5097 C.3       23 UNK        -0.0205 
    127 H127        6.2102  -13.6155  -50.8479 H         1 UNK         0.0600 
    128 H128        7.7709  -14.3015  -50.3864 H         1 UNK         0.0600 
    129 H129        6.5048  -15.3455  -51.0420 H         1 UNK         0.0600 
    130 H130        4.9676  -13.1336  -49.0631 H         1 UNK         0.3000 
    131 H131        4.5484  -15.0602  -46.9203 H         1 UNK         0.0600 
    132 H132        3.0927  -12.9884  -46.0503 H         1 UNK         0.0800 
    133 H133        3.2774  -12.3910  -47.6756 H         1 UNK         0.0800 
    134 H134        1.3975  -13.2165  -49.5532 H         1 UNK         0.0800 
    135 H135        2.8555  -14.1555  -49.7742 H         1 UNK         0.0800 
    136 H136       -0.7324  -14.1615  -50.2200 H         1 UNK         0.1150 
    137 H137       -0.8750  -18.1616  -51.7592 H         1 UNK         0.1150 
    138 H138        2.7104  -16.6891  -49.9227 H         1 UNK         0.1150 
    139 H139        1.8723  -18.9456  -52.2421 H         1 UNK         0.0800 
    140 H140        2.6968  -18.9062  -50.7046 H         1 UNK         0.0800 
    141 H141       -0.0775  -19.3883  -48.6375 H         1 UNK         0.0800 
    142 H142        1.6341  -19.6716  -48.4996 H         1 UNK         0.0800 
    143 H143        1.2829  -22.1000  -48.2106 H         1 UNK         0.0600 
    144 H144        0.5032  -20.1883  -46.3044 H         1 UNK         0.3000 
    145 H145       -0.2564  -22.4075  -43.5829 H         1 UNK         0.0600 
    146 H146        1.3968  -20.8519  -42.5400 H         1 UNK         0.0600 
    147 H147        2.1863  -22.0509  -43.5537 H         1 UNK         0.0600 
    148 H148        1.9930  -20.4063  -44.1388 H         1 UNK         0.0600 
    149 H149       -0.4132  -19.5845  -43.7392 H         1 UNK         0.3000 
    150 H150       -3.7950  -19.3863  -44.9633 H         1 UNK         0.0600 
    151 H151       -3.8943  -19.7072  -42.4857 H         1 UNK         0.0600 
    152 H152       -3.9646  -18.0046  -42.9162 H         1 UNK         0.0600 
    153 H153       -2.4703  -18.6923  -42.2866 H         1 UNK         0.0600 
    154 H154       -1.9200  -17.3550  -44.3074 H         1 UNK         0.3000 
    155 H155       -0.3748  -17.0801  -47.5404 H         1 UNK         0.0600 
    156 H156       -1.0403  -14.7446  -47.1315 H         1 UNK         0.0600 
    157 H157       -2.1346  -15.2347  -45.8385 H         1 UNK         0.0600 
    158 H158       -2.4652  -15.7007  -47.4938 H         1 UNK         0.0600 
    159 H159        0.0867  -15.8441  -44.9762 H         1 UNK         0.3000 
    160 H160        2.4855  -18.1351  -43.7802 H         1 UNK         0.0600 
    161 H161        3.0834  -15.4005  -44.9854 H         1 UNK         0.0600 
    162 H162        3.8882  -16.9049  -45.4222 H         1 UNK         0.0600 
    163 H163        4.0637  -16.2572  -43.7964 H         1 UNK         0.0600 
    164 H164        1.6571  -15.4847  -42.9795 H         1 UNK         0.3000 
    165 H165       -0.9740  -16.7375  -40.8240 H         1 UNK         0.0600 
    166 H166        1.6645  -15.2462  -40.3836 H         1 UNK         0.0600 
    167 H167        0.3189  -15.3558  -39.2530 H         1 UNK         0.0600 
    168 H168        1.2530  -16.7915  -39.6465 H         1 UNK         0.0600 
    169 H169       -0.2633  -14.0614  -41.3784 H         1 UNK         0.3000 
    170 H170       -2.4616  -13.4770  -44.1148 H         1 UNK         0.0600 
    171 H171       -3.9279  -13.4387  -42.1393 H         1 UNK         0.0600 
    172 H172       -2.6713  -12.6993  -41.1614 H         1 UNK         0.0600 
    173 H173       -3.3768  -11.8129  -42.5124 H         1 UNK         0.0600 
    174 H174       -0.6914  -12.2187  -44.2993 H         1 UNK         0.3000 
    175 H175        1.2036  -11.2458  -44.0541 H         1 UNK         0.0600 
    176 H176        1.6661   -8.9952  -43.1188 H         1 UNK         0.0600 
    177 H177       -0.0638   -9.2993  -43.1158 H         1 UNK         0.0600 
    178 H178        0.8465   -9.4190  -41.6150 H         1 UNK         0.0600 
    179 H179        2.9121  -10.7850  -41.8675 H         1 UNK         0.3000 
    180 H180        4.7716  -11.9059  -41.6063 H         1 UNK         0.0600 
    181 H181        3.9665  -14.7856  -40.8850 H         1 UNK         0.0600 
    182 H182        3.5972  -13.3673  -39.9065 H         1 UNK         0.0600 
    183 H183        5.2686  -13.8556  -40.1494 H         1 UNK         0.0600 
    184 H184        4.7578  -14.1059  -43.5370 H         1 UNK         0.3000 
    185 H185        7.9613  -13.2564  -44.6642 H         1 UNK         0.0600 
    186 H186        8.4911  -15.6848  -44.6190 H         1 UNK         0.0600 
    187 H187        8.6760  -14.9910  -43.0163 H         1 UNK         0.0600 
    188 H188        7.2536  -15.9568  -43.3910 H         1 UNK         0.0600 
    189 H189        6.1022  -15.2877  -45.4560 H         1 UNK         0.3000 
    190 H190       -1.9996  -20.7386  -47.5825 H         1 UNK         0.3000 
    191 H191       -3.3949  -22.2984  -49.4644 H         1 UNK         0.0600 
    192 H192       -4.2977  -20.2624  -48.3585 H         1 UNK         0.0600 
    193 H193       -5.4029  -21.6177  -48.1796 H         1 UNK         0.0600 
    194 H194       -4.3999  -21.1156  -46.8227 H         1 UNK         0.0600 
    195 H195       -2.6930  -22.9940  -46.0056 H         1 UNK         0.3000 
    196 H196       -4.0801  -25.4634  -45.8550 H         1 UNK         0.0600 
    197 H197       -2.6929  -25.8123  -43.8053 H         1 UNK         0.0600 
    198 H198       -3.3740  -24.1933  -43.8551 H         1 UNK         0.0600 
    199 H199       -1.6760  -24.4470  -44.2503 H         1 UNK         0.0600 
    200 H200       -0.6383  -24.7597  -46.6538 H         1 UNK         0.3000 
    201 H201        0.1900  -27.4585  -46.9792 H         1 UNK         0.0600 
    202 H202        1.7802  -25.6010  -46.6221 H         1 UNK         0.0600 
    203 H203        1.3268  -24.8687  -48.1595 H         1 UNK         0.0600 
    204 H204        2.1572  -26.4205  -48.1300 H         1 UNK         0.0600 
    205 H205       -1.1104  -25.0864  -49.3264 H         1 UNK         0.3000 
    206 H206       -0.9082  -26.7943  -51.6328 H         1 UNK         0.0600 
    207 H207       -1.0215  -24.3071  -51.7672 H         1 UNK         0.0600 
    208 H208       -2.3419  -25.0320  -52.6716 H         1 UNK         0.0600 
    209 H209       -2.6490  -24.3259  -51.0903 H         1 UNK         0.0600 
    210 H210       -3.1689  -26.6488  -49.0247 H         1 UNK         0.3000 
    211 H211       -5.1423  -27.4898  -48.5002 H         1 UNK         0.0600 
    212 H212       -4.8485  -29.4681  -50.8273 H         1 UNK         0.0600 
    213 H213       -5.9691  -29.5934  -49.4806 H         1 UNK         0.0600 
    214 H214       -4.2408  -29.7216  -49.1918 H         1 UNK         0.0600 
    215 H215       -5.1222  -25.1999  -49.6590 H         1 UNK         0.3000 
    216 H216       -6.1785  -23.5560  -50.6072 H         1 UNK         0.0600 
    217 H217       -8.3195  -24.5030  -49.7819 H         1 UNK         0.0600 
    218 H218       -8.5043  -25.4376  -51.2657 H         1 UNK         0.0600 
    219 H219       -8.5361  -23.6829  -51.3208 H         1 UNK         0.0600 
    220 H220       -6.5364  -26.4271  -52.6818 H         1 UNK         0.3000 
    221 H221       -6.2908  -26.8509  -54.8595 H         1 UNK         0.0600 
    222 H222       -4.0223  -24.7869  -54.6394 H         1 UNK         0.0600 
    223 H223       -3.9087  -26.5155  -54.3486 H         1 UNK         0.0600 
    224 H224       -4.2294  -25.9304  -55.9671 H         1 UNK         0.0600 
    225 H225       -5.1663  -23.8523  -56.0281 H         1 UNK         0.3000 
    226 H226       -7.8472  -22.7256  -56.5839 H         1 UNK         0.0600 
    227 H227       -7.1646  -24.0003  -58.6403 H         1 UNK         0.0600 
    228 H228       -7.2008  -22.2708  -58.9348 H         1 UNK         0.0600 
    229 H229       -5.6577  -23.0873  -58.7044 H         1 UNK         0.0600 
    230 H230       -5.6202  -22.2038  -54.6060 H         1 UNK         0.3000 
    231 H231       -4.3333  -19.7280  -55.4803 H         1 UNK         0.0600 
    232 H232       -3.2000  -21.3306  -53.9134 H         1 UNK         0.0600 
    233 H233       -4.4671  -21.0610  -52.7186 H         1 UNK         0.0600 
    234 H234       -3.4016  -19.7436  -53.1869 H         1 UNK         0.0600 
    235 H235       -4.9595  -17.6671  -54.9498 H         1 UNK         0.3000 
    236 H236       -7.6498  -17.0574  -54.3598 H         1 UNK         0.0600 
    237 H237       -6.1424  -15.5794  -55.6702 H         1 UNK         0.0600 
    238 H238       -6.8073  -14.7027  -54.3018 H         1 UNK         0.0600 
    239 H239       -5.1480  -15.2844  -54.2421 H         1 UNK         0.0600 
    240 H240       -4.9510  -17.5693  -52.2215 H         1 UNK         0.3000 
    241 H241       -6.2461  -16.4170  -49.8584 H         1 UNK         0.0600 
    242 H242       -6.8207  -19.3880  -51.4871 H         1 UNK         0.3800 
    243 H243       -7.3560  -20.2526  -50.0714 H         1 UNK         0.3800 
    244 H244       -4.2053  -17.2301  -48.6455 H         1 UNK         0.0800 
    245 H245       -3.5970  -17.9301  -50.1213 H         1 UNK         0.0800 
    246 H246       -2.7619  -16.7323  -52.0887 H         1 UNK         0.0800 
    247 H247       -2.3655  -15.0397  -52.1950 H         1 UNK         0.0800 
@<TRIPOS>BOND
     1    1    2 1    
     2    1  127 1    
     3    1  128 1    
     4    1  129 1    
     5    2    3 2    
     6    2    4 am   BACKBONE|DICT|INTERRES
     7    4    5 1    
     8    4  130 1    
     9    5    6 1    
    10    5   65 1    
    11    5  131 1    
    12    6    7 1    
    13    6  132 1    
    14    6  133 1    
    15    7    8 1    
    16    8    9 1    
    17    8  134 1    
    18    8  135 1    
    19    9   10 ar   
    20    9   14 ar   
    21   10   11 ar   
    22   10  136 1    
    23   11   12 ar   
    24   11  126 1    
    25   12   13 ar   
    26   12  137 1    
    27   13   14 ar   
    28   13   15 1    
    29   14  138 1    
    30   15   16 1    
    31   15  139 1    
    32   15  140 1    
    33   16   17 1    
    34   17   18 1    
    35   17  141 1    
    36   17  142 1    
    37   18   19 1    
    38   18   67 1    
    39   18  143 1    
    40   19   20 am   BACKBONE|DICT|INTERRES
    41   19  144 1    
    42   20   21 2    
    43   20   22 1    
    44   22   23 1    
    45   22   24 1    
    46   22  145 1    
    47   23  146 1    
    48   23  147 1    
    49   23  148 1    
    50   24   25 am   BACKBONE|DICT|INTERRES
    51   24  149 1    
    52   25   26 2    
    53   25   27 1    
    54   27   28 1    
    55   27   29 1    
    56   27  150 1    
    57   28  151 1    
    58   28  152 1    
    59   28  153 1    
    60   29   30 am   BACKBONE|DICT|INTERRES
    61   29  154 1    
    62   30   31 2    
    63   30   32 1    
    64   32   33 1    
    65   32   34 1    
    66   32  155 1    
    67   33  156 1    
    68   33  157 1    
    69   33  158 1    
    70   34   35 am   BACKBONE|DICT|INTERRES
    71   34  159 1    
    72   35   36 2    
    73   35   37 1    
    74   37   38 1    
    75   37   39 1    
    76   37  160 1    
    77   38  161 1    
    78   38  162 1    
    79   38  163 1    
    80   39   40 am   BACKBONE|DICT|INTERRES
    81   39  164 1    
    82   40   41 2    
    83   40   42 1    
    84   42   43 1    
    85   42   44 1    
    86   42  165 1    
    87   43  166 1    
    88   43  167 1    
    89   43  168 1    
    90   44   45 am   BACKBONE|DICT|INTERRES
    91   44  169 1    
    92   45   46 2    
    93   45   47 1    
    94   47   48 1    
    95   47   49 1    
    96   47  170 1    
    97   48  171 1    
    98   48  172 1    
    99   48  173 1    
   100   49   50 am   BACKBONE|DICT|INTERRES
   101   49  174 1    
   102   50   51 2    
   103   50   52 1    
   104   52   53 1    
   105   52   54 1    
   106   52  175 1    
   107   53  176 1    
   108   53  177 1    
   109   53  178 1    
   110   54   55 am   BACKBONE|DICT|INTERRES
   111   54  179 1    
   112   55   56 2    
   113   55   57 1    
   114   57   58 1    
   115   57   59 1    
   116   57  180 1    
   117   58  181 1    
   118   58  182 1    
   119   58  183 1    
   120   59   60 am   BACKBONE|DICT|INTERRES
   121   59  184 1    
   122   60   61 2    
   123   60   62 1    
   124   62   63 1    
   125   62   64 1    
   126   62  185 1    
   127   63  186 1    
   128   63  187 1    
   129   63  188 1    
   130   64   65 am   BACKBONE|DICT|INTERRES
   131   64  189 1    
   132   65   66 2    
   133   67   68 2    
   134   67   69 am   BACKBONE|DICT|INTERRES
   135   69   70 1    
   136   69  190 1    
   137   70   71 1    
   138   70   72 1    
   139   70  191 1    
   140   71  192 1    
   141   71  193 1    
   142   71  194 1    
   143   72   73 2    
   144   72   74 am   BACKBONE|DICT|INTERRES
   145   74   75 1    
   146   74  195 1    
   147   75   76 1    
   148   75   77 1    
   149   75  196 1    
   150   76  197 1    
   151   76  198 1    
   152   76  199 1    
   153   77   78 2    
   154   77   79 am   BACKBONE|DICT|INTERRES
   155   79   80 1    
   156   79  200 1    
   157   80   81 1    
   158   80   82 1    
   159   80  201 1    
   160   81  202 1    
   161   81  203 1    
   162   81  204 1    
   163   82   83 2    
   164   82   84 am   BACKBONE|DICT|INTERRES
   165   84   85 1    
   166   84  205 1    
   167   85   86 1    
   168   85   87 1    
   169   85  206 1    
   170   86  207 1    
   171   86  208 1    
   172   86  209 1    
   173   87   88 2    
   174   87   89 am   BACKBONE|DICT|INTERRES
   175   89   90 1    
   176   89  210 1    
   177   90   91 1    
   178   90   92 1    
   179   90  211 1    
   180   91  212 1    
   181   91  213 1    
   182   91  214 1    
   183   92   93 2    
   184   92   94 am   BACKBONE|DICT|INTERRES
   185   94   95 1    
   186   94  215 1    
   187   95   96 1    
   188   95   97 1    
   189   95  216 1    
   190   96  217 1    
   191   96  218 1    
   192   96  219 1    
   193   97   98 2    
   194   97   99 am   BACKBONE|DICT|INTERRES
   195   99  100 1    
   196   99  220 1    
   197  100  101 1    
   198  100  102 1    
   199  100  221 1    
   200  101  222 1    
   201  101  223 1    
   202  101  224 1    
   203  102  103 2    
   204  102  104 am   BACKBONE|DICT|INTERRES
   205  104  105 1    
   206  104  225 1    
   207  105  106 1    
   208  105  107 1    
   209  105  226 1    
   210  106  227 1    
   211  106  228 1    
   212  106  229 1    
   213  107  108 2    
   214  107  109 am   BACKBONE|DICT|INTERRES
   215  109  110 1    
   216  109  230 1    
   217  110  111 1    
   218  110  112 1    
   219  110  231 1    
   220  111  232 1    
   221  111  233 1    
   222  111  234 1    
   223  112  113 2    
   224  112  114 am   BACKBONE|DICT|INTERRES
   225  114  115 1    
   226  114  235 1    
   227  115  116 1    
   228  115  117 1    
   229  115  236 1    
   230  116  237 1    
   231  116  238 1    
   232  116  239 1    
   233  117  118 2    
   234  117  119 am   BACKBONE|DICT|INTERRES
   235  119  120 1    
   236  119  240 1    
   237  120  121 1    
   238  120  124 1    
   239  120  241 1    
   240  121  122 am   BACKBONE|DICT|INTERRES
   241  121  123 2    
   242  122  242 1    
   243  122  243 1    
   244  124  125 1    
   245  124  244 1    
   246  124  245 1    
   247  125  126 1    
   248  126  246 1    
   249  126  247 1    
@<TRIPOS>SUBSTRUCTURE
     1 UNK         1 GROUP             0       ****    0 ROOT    
