@<TRIPOS>MOLECULE
3R540
247   249    1
SMALL
USER_CHARGES


@<TRIPOS>ATOM
      1 CA         -4.9069  -12.6044  -49.3766 C.3       0 UNK        -0.1800 
      2 C          -3.4649  -12.1436  -49.5259 C.2       0 UNK         0.5000 
      3 O          -3.2230  -11.0131  -49.9489 O.2       0 UNK        -0.5000 
      4 N          -2.5085  -13.0125  -49.1734 N.am      1 UNK        -0.5000 
      5 CA         -1.0653  -12.7475  -49.2512 C.3       1 UNK         0.1400 
      6 C6         -0.2308  -14.0439  -49.1292 C.3       23 UNK        -0.0398 
      7 S7         -0.4929  -15.1987  -50.5129 S.3       23 UNK        -0.2404 
      8 C8         -1.3274  -16.5971  -49.6933 C.3       23 UNK        -0.0205 
      9 C9         -2.8352  -16.4102  -49.5890 C.ar      23 UNK        -0.0193 
     10 C10        -3.6008  -16.2230  -50.7441 C.ar      23 UNK        -0.1150 
     11 C11        -4.9925  -16.0717  -50.6709 C.ar      23 UNK        -0.0193 
     12 C12        -5.6092  -16.1424  -49.4186 C.ar      23 UNK        -0.1150 
     13 C13        -4.8595  -16.3296  -48.2542 C.ar      23 UNK        -0.0193 
     14 C14        -3.4704  -16.4553  -48.3453 C.ar      23 UNK        -0.1150 
     15 C15        -5.5581  -16.3593  -46.9023 C.3       23 UNK        -0.0205 
     16 S16        -6.0641  -18.0432  -46.4212 S.3       23 UNK        -0.2404 
     17 C17        -4.5075  -18.7221  -45.7572 C.3       23 UNK        -0.0398 
     18 CA         -3.9815  -19.9278  -46.5789 C.3       11 UNK         0.1400 
     19 N          -2.5199  -19.9469  -46.6596 N.am      11 UNK        -0.5000 
     20 C          -1.7994  -20.7854  -47.4167 C.2       10 UNK         0.5000 
     21 O          -2.2923  -21.6111  -48.1849 O.2       10 UNK        -0.5000 
     22 CA         -0.2694  -20.7274  -47.2472 C.3       10 UNK         0.1400 
     23 CB          0.3396  -19.5968  -48.0881 C.3       10 UNK        -0.1800 
     24 N           0.1380  -20.5704  -45.8490 N.am      10 UNK        -0.5000 
     25 C          -0.1027  -21.4742  -44.8880 C.2       9 UNK         0.5000 
     26 O          -0.6482  -22.5582  -45.0914 O.2       9 UNK        -0.5000 
     27 CA          0.2849  -21.0845  -43.4507 C.3       9 UNK         0.1400 
     28 CB          1.7951  -21.2526  -43.2277 C.3       9 UNK        -0.1800 
     29 N          -0.1181  -19.7208  -43.1052 N.am      9 UNK        -0.5000 
     30 C          -1.3866  -19.2872  -43.0665 C.2       8 UNK         0.5000 
     31 O          -2.3632  -20.0032  -43.2853 O.2       8 UNK        -0.5000 
     32 CA         -1.6030  -17.7874  -42.7961 C.3       8 UNK         0.1400 
     33 CB         -1.4858  -17.4780  -41.2971 C.3       8 UNK        -0.1800 
     34 N          -0.6860  -16.9349  -43.5540 N.am      8 UNK        -0.5000 
     35 C          -0.6111  -16.9071  -44.8921 C.2       7 UNK         0.5000 
     36 O          -1.3159  -17.5860  -45.6347 O.2       7 UNK        -0.5000 
     37 CA          0.4600  -16.0016  -45.5110 C.3       7 UNK         0.1400 
     38 CB          0.0014  -14.5403  -45.4991 C.3       7 UNK        -0.1800 
     39 N           1.7508  -16.1350  -44.8404 N.am      7 UNK        -0.5000 
     40 C           2.4794  -17.2605  -44.8374 C.2       6 UNK         0.5000 
     41 O           2.1770  -18.2783  -45.4624 O.2       6 UNK        -0.5000 
     42 CA          3.7201  -17.2644  -43.9295 C.3       6 UNK         0.1400 
     43 CB          4.9040  -16.5571  -44.6061 C.3       6 UNK        -0.1800 
     44 N           3.4427  -16.6448  -42.6322 N.am      6 UNK        -0.5000 
     45 C           2.6341  -17.1824  -41.7070 C.2       5 UNK         0.5000 
     46 O           2.0683  -18.2663  -41.8444 O.2       5 UNK        -0.5000 
     47 CA          2.3893  -16.3694  -40.4234 C.3       5 UNK         0.1400 
     48 CB          3.4362  -16.7231  -39.3568 C.3       5 UNK        -0.1800 
     49 N           2.3859  -14.9217  -40.6319 N.am      5 UNK        -0.5000 
     50 C           1.5062  -14.2460  -41.3841 C.2       4 UNK         0.5000 
     51 O           0.5985  -14.7876  -42.0181 O.2       4 UNK        -0.5000 
     52 CA          1.6591  -12.7080  -41.4337 C.3       4 UNK         0.1400 
     53 CB          2.8623  -12.1714  -40.6259 C.3       4 UNK        -0.1800 
     54 N           1.7120  -12.1581  -42.7917 N.am      4 UNK        -0.5000 
     55 C           2.4836  -12.5475  -43.8141 C.2       3 UNK         0.5000 
     56 O           3.1719  -13.5706  -43.7984 O.2       3 UNK        -0.5000 
     57 CA          2.4916  -11.6253  -45.0576 C.3       3 UNK         0.1400 
     58 CB          3.4304  -12.1465  -46.1614 C.3       3 UNK        -0.1800 
     59 N           1.1730  -11.3953  -45.6548 N.am      3 UNK        -0.5000 
     60 C           0.1453  -10.7044  -45.1492 C.2       2 UNK         0.5000 
     61 O           0.1809  -10.1580  -44.0455 O.2       2 UNK        -0.5000 
     62 CA         -1.1499  -10.6060  -45.9895 C.3       2 UNK         0.1400 
     63 CB         -1.3539   -9.1700  -46.5097 C.3       2 UNK        -0.1800 
     64 N          -1.3074  -11.5781  -47.0872 N.am      2 UNK        -0.5000 
     65 C          -0.5849  -11.7085  -48.2120 C.2       1 UNK         0.5000 
     66 O           0.4393  -11.0662  -48.4416 O.2       1 UNK        -0.5000 
     67 C          -4.5360  -21.2625  -46.0348 C.2       11 UNK         0.5000 
     68 O          -5.4176  -21.8596  -46.6529 O.2       11 UNK        -0.5000 
     69 N          -3.9764  -21.7205  -44.9046 N.am      12 UNK        -0.5000 
     70 CA         -4.3444  -22.9602  -44.2175 C.3       12 UNK         0.1400 
     71 CB         -3.6296  -23.0173  -42.8591 C.3       12 UNK        -0.1800 
     72 C          -4.0518  -24.2328  -45.0330 C.2       12 UNK         0.5000 
     73 O          -4.7935  -25.2086  -44.9126 O.2       12 UNK        -0.5000 
     74 N          -2.9958  -24.1986  -45.8582 N.am      13 UNK        -0.5000 
     75 CA         -2.6181  -25.2758  -46.7749 C.3       13 UNK         0.1400 
     76 CB         -1.2230  -24.9868  -47.3475 C.3       13 UNK        -0.1800 
     77 C          -3.6276  -25.4950  -47.9184 C.2       13 UNK         0.5000 
     78 O          -3.6633  -26.5929  -48.4783 O.2       13 UNK        -0.5000 
     79 N          -4.4132  -24.4569  -48.2471 N.am      14 UNK        -0.5000 
     80 CA         -5.4834  -24.3797  -49.2498 C.3       14 UNK         0.1400 
     81 CB         -6.6345  -25.3474  -48.9165 C.3       14 UNK        -0.1800 
     82 C          -4.9984  -24.5546  -50.7010 C.2       14 UNK         0.5000 
     83 O          -5.1712  -23.6453  -51.5120 O.2       14 UNK        -0.5000 
     84 N          -4.3690  -25.6975  -50.9836 N.am      15 UNK        -0.5000 
     85 CA         -3.7582  -26.0613  -52.2601 C.3       15 UNK         0.1400 
     86 CB         -4.7453  -26.9223  -53.0643 C.3       15 UNK        -0.1800 
     87 C          -2.4180  -26.7991  -52.0751 C.2       15 UNK         0.5000 
     88 O          -1.6332  -26.8509  -53.0226 O.2       15 UNK        -0.5000 
     89 N          -2.1593  -27.3563  -50.8798 N.am      16 UNK        -0.5000 
     90 CA         -1.0321  -28.2545  -50.6015 C.3       16 UNK         0.1400 
     91 CB         -1.2319  -28.8932  -49.2183 C.3       16 UNK        -0.1800 
     92 C           0.3579  -27.5966  -50.6956 C.2       16 UNK         0.5000 
     93 O           1.3377  -28.2923  -50.9641 O.2       16 UNK        -0.5000 
     94 N           0.4202  -26.2745  -50.4909 N.am      17 UNK        -0.5000 
     95 CA          1.6444  -25.4764  -50.5971 C.3       17 UNK         0.1400 
     96 CB          1.5131  -24.2352  -49.6963 C.3       17 UNK        -0.1800 
     97 C           1.9866  -25.0705  -52.0464 C.2       17 UNK         0.5000 
     98 O           3.0339  -24.4566  -52.2563 O.2       17 UNK        -0.5000 
     99 N           1.1016  -25.3794  -53.0100 N.am      18 UNK        -0.5000 
    100 CA         1.1133  -24.9954  -54.4292 C.3       18 UNK         0.1400 
    101 CB         2.3737  -25.4950  -55.1622 C.3       18 UNK        -0.1800 
    102 C          0.8829  -23.4856  -54.6236 C.2       18 UNK         0.5000 
    103 O         -0.1351  -23.0913  -55.1930 O.2       18 UNK        -0.5000 
    104 N          1.7769  -22.6641  -54.0614 N.am      19 UNK        -0.5000 
    105 CA         1.5992  -21.2288  -53.8422 C.3       19 UNK         0.1400 
    106 CB         2.9826  -20.5551  -53.8204 C.3       19 UNK        -0.1800 
    107 C          0.8061  -21.0164  -52.5358 C.2       19 UNK         0.5000 
    108 O          1.3223  -20.4494  -51.5716 O.2       19 UNK        -0.5000 
    109 N         -0.4153  -21.5597  -52.5180 N.am      20 UNK        -0.5000 
    110 CA        -1.3039  -21.6346  -51.3657 C.3       20 UNK         0.1400 
    111 CB        -1.9163  -23.0438  -51.3397 C.3       20 UNK        -0.1800 
    112 C         -2.3441  -20.4975  -51.4153 C.2       20 UNK         0.5000 
    113 O         -1.9813  -19.3649  -51.7353 O.2       20 UNK        -0.5000 
    114 N         -3.6141  -20.7971  -51.1073 N.am      21 UNK        -0.5000 
    115 CA        -4.7232  -19.8456  -50.9917 C.3       21 UNK         0.1400 
    116 CB        -5.8430  -20.4948  -50.1585 C.3       21 UNK        -0.1800 
    117 C         -5.2333  -19.3391  -52.3599 C.2       21 UNK         0.5000 
    118 O         -6.4125  -19.4984  -52.6798 O.2       21 UNK        -0.5000 
    119 N         -4.3293  -18.7440  -53.1465 N.am      22 UNK        -0.5000 
    120 CA        -4.5538  -18.1714  -54.4867 C.3       22 UNK         0.1400 
    121 C         -4.8719  -19.2169  -55.6019 C.2       22 UNK         0.5000 
    122 N         -4.6980  -20.5126  -55.3717 N.am      22 UNK        -0.7600 
    123 O         -5.2481  -18.8495  -56.7120 O.2       22 UNK        -0.5000 
    124 C124       -5.5601  -16.9840  -54.4843 C.3       23 UNK        -0.0398 
    125 S125       -5.0019  -15.5639  -53.4789 S.3       23 UNK        -0.2404 
    126 C126       -5.8793  -15.8233  -51.8946 C.3       23 UNK        -0.0205 
    127 H127       -4.9940  -13.4079  -48.6460 H         1 UNK         0.0600 
    128 H128       -5.2874  -12.9628  -50.3330 H         1 UNK         0.0600 
    129 H129       -5.5371  -11.7798  -49.0434 H         1 UNK         0.0600 
    130 H130       -2.7719  -13.9464  -48.8922 H         1 UNK         0.3000 
    131 H131       -0.8641  -12.3147  -50.2337 H         1 UNK         0.0600 
    132 H132        0.8367  -13.8151  -49.1083 H         1 UNK         0.0800 
    133 H133       -0.4505  -14.5509  -48.1926 H         1 UNK         0.0800 
    134 H134       -1.1261  -17.4984  -50.2695 H         1 UNK         0.0800 
    135 H135       -0.8852  -16.7671  -48.7119 H         1 UNK         0.0800 
    136 H136       -3.0921  -16.1958  -51.6961 H         1 UNK         0.1150 
    137 H137       -6.6826  -16.0344  -49.3469 H         1 UNK         0.1150 
    138 H138       -2.8846  -16.5977  -47.4494 H         1 UNK         0.1150 
    139 H139       -4.9213  -15.9209  -46.1323 H         1 UNK         0.0800 
    140 H140       -6.4490  -15.7307  -46.9404 H         1 UNK         0.0800 
    141 H141       -4.6515  -18.9727  -44.7045 H         1 UNK         0.0800 
    142 H142       -3.7749  -17.9197  -45.7487 H         1 UNK         0.0800 
    143 H143       -4.3253  -19.8160  -47.6077 H         1 UNK         0.0600 
    144 H144       -2.0257  -19.2575  -46.0989 H         1 UNK         0.3000 
    145 H145        0.1344  -21.6746  -47.6113 H         1 UNK         0.0600 
    146 H146        1.4274  -19.6649  -48.1058 H         1 UNK         0.0600 
    147 H147        0.0774  -18.6181  -47.6899 H         1 UNK         0.0600 
    148 H148       -0.0052  -19.6361  -49.1217 H         1 UNK         0.0600 
    149 H149        0.6131  -19.7081  -45.6052 H         1 UNK         0.3000 
    150 H150       -0.2347  -21.7648  -42.7729 H         1 UNK         0.0600 
    151 H151        2.1181  -22.2634  -43.4800 H         1 UNK         0.0600 
    152 H152        2.0601  -21.0775  -42.1849 H         1 UNK         0.0600 
    153 H153        2.3730  -20.5591  -43.8395 H         1 UNK         0.0600 
    154 H154        0.6293  -19.0751  -42.8668 H         1 UNK         0.3000 
    155 H155       -2.6172  -17.5373  -43.1143 H         1 UNK         0.0600 
    156 H156       -2.2208  -18.0454  -40.7249 H         1 UNK         0.0600 
    157 H157       -1.6606  -16.4209  -41.0957 H         1 UNK         0.0600 
    158 H158       -0.5010  -17.7359  -40.9095 H         1 UNK         0.0600 
    159 H159       -0.0954  -16.3042  -43.0189 H         1 UNK         0.3000 
    160 H160        0.5881  -16.3076  -46.5514 H         1 UNK         0.0600 
    161 H161       -0.0191  -14.1235  -44.4928 H         1 UNK         0.0600 
    162 H162       -1.0031  -14.4361  -45.9107 H         1 UNK         0.0600 
    163 H163        0.6709  -13.9360  -46.1065 H         1 UNK         0.0600 
    164 H164        2.0747  -15.3469  -44.2911 H         1 UNK         0.3000 
    165 H165        4.0029  -18.3051  -43.7563 H         1 UNK         0.0600 
    166 H166        5.7976  -16.6018  -43.9835 H         1 UNK         0.0600 
    167 H167        5.1468  -17.0315  -45.5577 H         1 UNK         0.0600 
    168 H168        4.6895  -15.5079  -44.8100 H         1 UNK         0.0600 
    169 H169        3.8241  -15.7226  -42.4730 H         1 UNK         0.3000 
    170 H170        1.4075  -16.6487  -40.0377 H         1 UNK         0.0600 
    171 H171        4.4416  -16.4372  -39.6686 H         1 UNK         0.0600 
    172 H172        3.2219  -16.2236  -38.4118 H         1 UNK         0.0600 
    173 H173        3.4460  -17.7962  -39.1604 H         1 UNK         0.0600 
    174 H174        3.1046  -14.3980  -40.1541 H         1 UNK         0.3000 
    175 H175        0.7523  -12.3065  -40.9795 H         1 UNK         0.0600 
    176 H176        3.8126  -12.5316  -41.0226 H         1 UNK         0.0600 
    177 H177        2.8903  -11.0818  -40.6508 H         1 UNK         0.0600 
    178 H178        2.8011  -12.4591  -39.5755 H         1 UNK         0.0600 
    179 H179        1.1257  -11.3440  -42.9595 H         1 UNK         0.3000 
    180 H180        2.8777  -10.6594  -44.7262 H         1 UNK         0.0600 
    181 H181        3.4801  -11.4504  -46.9991 H         1 UNK         0.0600 
    182 H182        3.1005  -13.1121  -46.5471 H         1 UNK         0.0600 
    183 H183        4.4469  -12.2721  -45.7863 H         1 UNK         0.0600 
    184 H184        1.0601  -11.7184  -46.6069 H         1 UNK         0.3000 
    185 H185       -1.9656  -10.8187  -45.2970 H         1 UNK         0.0600 
    186 H186       -2.3027   -9.0733  -47.0378 H         1 UNK         0.0600 
    187 H187       -1.3663   -8.4536  -45.6873 H         1 UNK         0.0600 
    188 H188       -0.5584   -8.8681  -47.1915 H         1 UNK         0.0600 
    189 H189       -2.1161  -12.1774  -47.0026 H         1 UNK         0.3000 
    190 H190       -3.2682  -21.1514  -44.4455 H         1 UNK         0.3000 
    191 H191       -5.4204  -22.9289  -44.0351 H         1 UNK         0.0600 
    192 H192       -3.9021  -22.1667  -42.2341 H         1 UNK         0.0600 
    193 H193       -2.5453  -23.0122  -42.9766 H         1 UNK         0.0600 
    194 H194       -3.8978  -23.9219  -42.3120 H         1 UNK         0.0600 
    195 H195       -2.3864  -23.3877  -45.8325 H         1 UNK         0.3000 
    196 H196       -2.5664  -26.2038  -46.2020 H         1 UNK         0.0600 
    197 H197       -0.4828  -24.8879  -46.5535 H         1 UNK         0.0600 
    198 H198       -1.2094  -24.0683  -47.9346 H         1 UNK         0.0600 
    199 H199       -0.8910  -25.7973  -47.9950 H         1 UNK         0.0600 
    200 H200       -4.2741  -23.6018  -47.7224 H         1 UNK         0.3000 
    201 H201       -5.8830  -23.3680  -49.1716 H         1 UNK         0.0600 
    202 H202       -7.0301  -25.1540  -47.9193 H         1 UNK         0.0600 
    203 H203       -6.3215  -26.3910  -48.9540 H         1 UNK         0.0600 
    204 H204       -7.4580  -25.2287  -49.6217 H         1 UNK         0.0600 
    205 H205       -4.2424  -26.3403  -50.2078 H         1 UNK         0.3000 
    206 H206       -3.5447  -25.1618  -52.8388 H         1 UNK         0.0600 
    207 H207       -5.0061  -27.8372  -52.5309 H         1 UNK         0.0600 
    208 H208       -5.6678  -26.3775  -53.2661 H         1 UNK         0.0600 
    209 H209       -4.3213  -27.2104  -54.0271 H         1 UNK         0.0600 
    210 H210       -2.8104  -27.2324  -50.1130 H         1 UNK         0.3000 
    211 H211       -1.0581  -29.0525  -51.3464 H         1 UNK         0.0600 
    212 H212       -1.2389  -28.1460  -48.4246 H         1 UNK         0.0600 
    213 H213       -0.4333  -29.6017  -48.9946 H         1 UNK         0.0600 
    214 H214       -2.1733  -29.4407  -49.1692 H         1 UNK         0.0600 
    215 H215       -0.4347  -25.7825  -50.2817 H         1 UNK         0.3000 
    216 H216        2.4858  -26.0657  -50.2265 H         1 UNK         0.0600 
    217 H217        2.4167  -23.6252  -49.7334 H         1 UNK         0.0600 
    218 H218        1.3648  -24.5194  -48.6548 H         1 UNK         0.0600 
    219 H219        0.6816  -23.5978  -49.9929 H         1 UNK         0.0600 
    220 H220        0.2736  -25.8939  -52.7325 H         1 UNK         0.3000 
    221 H221        0.2580  -25.5043  -54.8768 H         1 UNK         0.0600 
    222 H222        3.2838  -25.0145  -54.8032 H         1 UNK         0.0600 
    223 H223        2.4950  -26.5716  -55.0430 H         1 UNK         0.0600 
    224 H224        2.3028  -25.2925  -56.2315 H         1 UNK         0.0600 
    225 H225        2.5214  -23.1062  -53.5291 H         1 UNK         0.3000 
    226 H226        1.0227  -20.7948  -54.6617 H         1 UNK         0.0600 
    227 H227        3.5057  -20.7018  -54.7654 H         1 UNK         0.0600 
    228 H228        2.8908  -19.4798  -53.6628 H         1 UNK         0.0600 
    229 H229        3.6128  -20.9534  -53.0241 H         1 UNK         0.0600 
    230 H230       -0.7507  -21.9844  -53.3736 H         1 UNK         0.3000 
    231 H231       -0.7275  -21.5060  -50.4485 H         1 UNK         0.0600 
    232 H232       -2.4484  -23.2230  -50.4056 H         1 UNK         0.0600 
    233 H233       -1.1509  -23.8137  -51.4235 H         1 UNK         0.0600 
    234 H234       -2.6075  -23.1840  -52.1697 H         1 UNK         0.0600 
    235 H235       -3.8492  -21.7625  -50.9216 H         1 UNK         0.3000 
    236 H236       -4.3635  -18.9792  -50.4343 H         1 UNK         0.0600 
    237 H237       -5.4615  -20.9050  -49.2256 H         1 UNK         0.0600 
    238 H238       -6.6106  -19.7633  -49.9032 H         1 UNK         0.0600 
    239 H239       -6.3290  -21.3076  -50.6989 H         1 UNK         0.0600 
    240 H240       -3.3751  -18.7026  -52.7969 H         1 UNK         0.3000 
    241 H241       -3.5857  -17.7644  -54.7800 H         1 UNK         0.0600 
    242 H242       -4.3989  -20.8345  -54.4661 H         1 UNK         0.3800 
    243 H243       -4.8948  -21.1769  -56.1035 H         1 UNK         0.3800 
    244 H244       -6.5529  -17.3080  -54.1715 H         1 UNK         0.0800 
    245 H245       -5.6885  -16.5990  -55.4970 H         1 UNK         0.0800 
    246 H246       -6.4812  -14.9332  -51.7066 H         1 UNK         0.0800 
    247 H247       -6.5857  -16.6486  -51.9847 H         1 UNK         0.0800 
@<TRIPOS>BOND
     1    1    2 1    
     2    1  127 1    
     3    1  128 1    
     4    1  129 1    
     5    2    3 2    
     6    2    4 am   BACKBONE|DICT|INTERRES
     7    4    5 1    
     8    4  130 1    
     9    5    6 1    
    10    5   65 1    
    11    5  131 1    
    12    6    7 1    
    13    6  132 1    
    14    6  133 1    
    15    7    8 1    
    16    8    9 1    
    17    8  134 1    
    18    8  135 1    
    19    9   10 ar   
    20    9   14 ar   
    21   10   11 ar   
    22   10  136 1    
    23   11   12 ar   
    24   11  126 1    
    25   12   13 ar   
    26   12  137 1    
    27   13   14 ar   
    28   13   15 1    
    29   14  138 1    
    30   15   16 1    
    31   15  139 1    
    32   15  140 1    
    33   16   17 1    
    34   17   18 1    
    35   17  141 1    
    36   17  142 1    
    37   18   19 1    
    38   18   67 1    
    39   18  143 1    
    40   19   20 am   BACKBONE|DICT|INTERRES
    41   19  144 1    
    42   20   21 2    
    43   20   22 1    
    44   22   23 1    
    45   22   24 1    
    46   22  145 1    
    47   23  146 1    
    48   23  147 1    
    49   23  148 1    
    50   24   25 am   BACKBONE|DICT|INTERRES
    51   24  149 1    
    52   25   26 2    
    53   25   27 1    
    54   27   28 1    
    55   27   29 1    
    56   27  150 1    
    57   28  151 1    
    58   28  152 1    
    59   28  153 1    
    60   29   30 am   BACKBONE|DICT|INTERRES
    61   29  154 1    
    62   30   31 2    
    63   30   32 1    
    64   32   33 1    
    65   32   34 1    
    66   32  155 1    
    67   33  156 1    
    68   33  157 1    
    69   33  158 1    
    70   34   35 am   BACKBONE|DICT|INTERRES
    71   34  159 1    
    72   35   36 2    
    73   35   37 1    
    74   37   38 1    
    75   37   39 1    
    76   37  160 1    
    77   38  161 1    
    78   38  162 1    
    79   38  163 1    
    80   39   40 am   BACKBONE|DICT|INTERRES
    81   39  164 1    
    82   40   41 2    
    83   40   42 1    
    84   42   43 1    
    85   42   44 1    
    86   42  165 1    
    87   43  166 1    
    88   43  167 1    
    89   43  168 1    
    90   44   45 am   BACKBONE|DICT|INTERRES
    91   44  169 1    
    92   45   46 2    
    93   45   47 1    
    94   47   48 1    
    95   47   49 1    
    96   47  170 1    
    97   48  171 1    
    98   48  172 1    
    99   48  173 1    
   100   49   50 am   BACKBONE|DICT|INTERRES
   101   49  174 1    
   102   50   51 2    
   103   50   52 1    
   104   52   53 1    
   105   52   54 1    
   106   52  175 1    
   107   53  176 1    
   108   53  177 1    
   109   53  178 1    
   110   54   55 am   BACKBONE|DICT|INTERRES
   111   54  179 1    
   112   55   56 2    
   113   55   57 1    
   114   57   58 1    
   115   57   59 1    
   116   57  180 1    
   117   58  181 1    
   118   58  182 1    
   119   58  183 1    
   120   59   60 am   BACKBONE|DICT|INTERRES
   121   59  184 1    
   122   60   61 2    
   123   60   62 1    
   124   62   63 1    
   125   62   64 1    
   126   62  185 1    
   127   63  186 1    
   128   63  187 1    
   129   63  188 1    
   130   64   65 am   BACKBONE|DICT|INTERRES
   131   64  189 1    
   132   65   66 2    
   133   67   68 2    
   134   67   69 am   BACKBONE|DICT|INTERRES
   135   69   70 1    
   136   69  190 1    
   137   70   71 1    
   138   70   72 1    
   139   70  191 1    
   140   71  192 1    
   141   71  193 1    
   142   71  194 1    
   143   72   73 2    
   144   72   74 am   BACKBONE|DICT|INTERRES
   145   74   75 1    
   146   74  195 1    
   147   75   76 1    
   148   75   77 1    
   149   75  196 1    
   150   76  197 1    
   151   76  198 1    
   152   76  199 1    
   153   77   78 2    
   154   77   79 am   BACKBONE|DICT|INTERRES
   155   79   80 1    
   156   79  200 1    
   157   80   81 1    
   158   80   82 1    
   159   80  201 1    
   160   81  202 1    
   161   81  203 1    
   162   81  204 1    
   163   82   83 2    
   164   82   84 am   BACKBONE|DICT|INTERRES
   165   84   85 1    
   166   84  205 1    
   167   85   86 1    
   168   85   87 1    
   169   85  206 1    
   170   86  207 1    
   171   86  208 1    
   172   86  209 1    
   173   87   88 2    
   174   87   89 am   BACKBONE|DICT|INTERRES
   175   89   90 1    
   176   89  210 1    
   177   90   91 1    
   178   90   92 1    
   179   90  211 1    
   180   91  212 1    
   181   91  213 1    
   182   91  214 1    
   183   92   93 2    
   184   92   94 am   BACKBONE|DICT|INTERRES
   185   94   95 1    
   186   94  215 1    
   187   95   96 1    
   188   95   97 1    
   189   95  216 1    
   190   96  217 1    
   191   96  218 1    
   192   96  219 1    
   193   97   98 2    
   194   97   99 am   BACKBONE|DICT|INTERRES
   195   99  100 1    
   196   99  220 1    
   197  100  101 1    
   198  100  102 1    
   199  100  221 1    
   200  101  222 1    
   201  101  223 1    
   202  101  224 1    
   203  102  103 2    
   204  102  104 am   BACKBONE|DICT|INTERRES
   205  104  105 1    
   206  104  225 1    
   207  105  106 1    
   208  105  107 1    
   209  105  226 1    
   210  106  227 1    
   211  106  228 1    
   212  106  229 1    
   213  107  108 2    
   214  107  109 am   BACKBONE|DICT|INTERRES
   215  109  110 1    
   216  109  230 1    
   217  110  111 1    
   218  110  112 1    
   219  110  231 1    
   220  111  232 1    
   221  111  233 1    
   222  111  234 1    
   223  112  113 2    
   224  112  114 am   BACKBONE|DICT|INTERRES
   225  114  115 1    
   226  114  235 1    
   227  115  116 1    
   228  115  117 1    
   229  115  236 1    
   230  116  237 1    
   231  116  238 1    
   232  116  239 1    
   233  117  118 2    
   234  117  119 am   BACKBONE|DICT|INTERRES
   235  119  120 1    
   236  119  240 1    
   237  120  121 1    
   238  120  124 1    
   239  120  241 1    
   240  121  122 am   BACKBONE|DICT|INTERRES
   241  121  123 2    
   242  122  242 1    
   243  122  243 1    
   244  124  125 1    
   245  124  244 1    
   246  124  245 1    
   247  125  126 1    
   248  126  246 1    
   249  126  247 1    
@<TRIPOS>SUBSTRUCTURE
     1 UNK         1 GROUP             0       ****    0 ROOT    
