@<TRIPOS>MOLECULE
3R540
247   249    1
SMALL
USER_CHARGES


@<TRIPOS>ATOM
      1 CA          4.8161  -19.9726  -45.8263 C.3       0 UNK        -0.1800 
      2 C           4.1694  -18.7117  -45.2718 C.2       0 UNK         0.5000 
      3 O           3.9576  -18.6184  -44.0632 O.2       0 UNK        -0.5000 
      4 N           3.8604  -17.7452  -46.1461 N.am      1 UNK        -0.5000 
      5 CA          3.3520  -16.4200  -45.7779 C.3       1 UNK         0.1400 
      6 C6          2.7284  -15.6729  -46.9844 C.3       23 UNK        -0.0398 
      7 S7          3.8414  -15.4706  -48.4176 S.3       23 UNK        -0.2404 
      8 C8          2.6396  -15.1857  -49.7647 C.3       23 UNK        -0.0205 
      9 C9          1.8194  -16.4061  -50.1883 C.ar      23 UNK        -0.0193 
     10 C10         0.5704  -16.2058  -50.7861 C.ar      23 UNK        -0.1150 
     11 C11        -0.1888  -17.2881  -51.2407 C.ar      23 UNK        -0.0193 
     12 C12         0.2954  -18.5873  -51.0651 C.ar      23 UNK        -0.1150 
     13 C13         1.5408  -18.8093  -50.4711 C.ar      23 UNK        -0.0193 
     14 C14         2.3029  -17.7137  -50.0520 C.ar      23 UNK        -0.1150 
     15 C15         2.0688  -20.2338  -50.3269 C.3       23 UNK        -0.0205 
     16 S16         2.7647  -20.6010  -48.6793 S.3       23 UNK        -0.2404 
     17 C17         1.3350  -20.3090  -47.5854 C.3       23 UNK        -0.0398 
     18 CA          0.6346  -21.6093  -47.1272 C.3       11 UNK         0.1400 
     19 N          -0.2137  -21.3714  -45.9577 N.am      11 UNK        -0.5000 
     20 C          -0.8982  -22.3106  -45.2895 C.2       10 UNK         0.5000 
     21 O          -0.8295  -23.5165  -45.5290 O.2       10 UNK        -0.5000 
     22 CA         -1.8717  -21.8029  -44.2122 C.3       10 UNK         0.1400 
     23 CB         -1.1356  -21.5069  -42.8966 C.3       10 UNK        -0.1800 
     24 N          -2.5952  -20.6089  -44.6550 N.am      10 UNK        -0.5000 
     25 C          -3.5279  -20.6065  -45.6190 C.2       9 UNK         0.5000 
     26 O          -3.9071  -21.6201  -46.2039 O.2       9 UNK        -0.5000 
     27 CA         -4.1003  -19.2363  -46.0283 C.3       9 UNK         0.1400 
     28 CB         -5.2140  -18.8021  -45.0640 C.3       9 UNK        -0.1800 
     29 N          -3.0755  -18.1927  -46.0915 N.am      9 UNK        -0.5000 
     30 C          -2.0607  -18.1866  -46.9678 C.2       8 UNK         0.5000 
     31 O          -1.9036  -19.0456  -47.8307 O.2       8 UNK        -0.5000 
     32 CA         -1.0045  -17.0803  -46.8098 C.3       8 UNK         0.1400 
     33 CB         -1.3902  -15.8269  -47.6070 C.3       8 UNK        -0.1800 
     34 N          -0.7697  -16.7127  -45.4131 N.am      8 UNK        -0.5000 
     35 C          -0.2641  -17.5245  -44.4745 C.2       7 UNK         0.5000 
     36 O           0.0470  -18.6943  -44.7029 O.2       7 UNK        -0.5000 
     37 CA         -0.1388  -16.9664  -43.0370 C.3       7 UNK         0.1400 
     38 CB          1.2217  -17.2966  -42.3908 C.3       7 UNK        -0.1800 
     39 N          -0.4553  -15.5373  -42.8790 N.am      7 UNK        -0.5000 
     40 C           0.1754  -14.4877  -43.4287 C.2       6 UNK         0.5000 
     41 O           1.1258  -14.5811  -44.2033 O.2       6 UNK        -0.5000 
     42 CA         -0.3319  -13.1047  -43.0139 C.3       6 UNK         0.1400 
     43 CB         -1.8517  -12.9395  -43.2079 C.3       6 UNK        -0.1800 
     44 N           0.0458  -12.8942  -41.6231 N.am      6 UNK        -0.5000 
     45 C           0.2877  -11.7036  -41.0683 C.2       5 UNK         0.5000 
     46 O           0.0709  -10.6277  -41.6285 O.2       5 UNK        -0.5000 
     47 CA          0.9221  -11.7045  -39.6699 C.3       5 UNK         0.1400 
     48 CB          0.8600  -13.0592  -38.9322 C.3       5 UNK        -0.1800 
     49 N           2.3117  -11.2998  -39.8337 N.am      5 UNK        -0.5000 
     50 C           3.0123  -10.5537  -38.9721 C.2       4 UNK         0.5000 
     51 O           2.5665  -10.1580  -37.8940 O.2       4 UNK        -0.5000 
     52 CA          4.4580  -10.1863  -39.3696 C.3       4 UNK         0.1400 
     53 CB          5.4632  -11.0422  -38.5829 C.3       4 UNK        -0.1800 
     54 N           4.7314  -10.3423  -40.8002 N.am      4 UNK        -0.5000 
     55 C           4.2403   -9.5617  -41.7732 C.2       3 UNK         0.5000 
     56 O           3.5494   -8.5646  -41.5623 O.2       3 UNK        -0.5000 
     57 CA          4.5650   -9.9663  -43.2264 C.3       3 UNK         0.1400 
     58 CB          5.6463   -9.0447  -43.8118 C.3       3 UNK        -0.1800 
     59 N           4.9992  -11.3604  -43.3774 N.am      3 UNK        -0.5000 
     60 C           4.2165  -12.4322  -43.1982 C.2       2 UNK         0.5000 
     61 O           3.0400  -12.3686  -42.8402 O.2       2 UNK        -0.5000 
     62 CA          4.8760  -13.8009  -43.3949 C.3       2 UNK         0.1400 
     63 CB          5.1591  -14.4678  -42.0380 C.3       2 UNK        -0.1800 
     64 N           4.0027  -14.6597  -44.1892 N.am      2 UNK        -0.5000 
     65 C           4.4337  -15.5794  -45.0591 C.2       1 UNK         0.5000 
     66 O           5.6284  -15.7740  -45.3039 O.2       1 UNK        -0.5000 
     67 C          -0.1638  -22.2597  -48.2757 C.2       11 UNK         0.5000 
     68 O           0.2488  -23.2947  -48.7979 O.2       11 UNK        -0.5000 
     69 N          -1.3158  -21.6660  -48.6144 N.am      12 UNK        -0.5000 
     70 CA         -2.2310  -22.1503  -49.6418 C.3       12 UNK         0.1400 
     71 CB         -3.3423  -21.1210  -49.8684 C.3       12 UNK        -0.1800 
     72 C          -2.8281  -23.5264  -49.3193 C.2       12 UNK         0.5000 
     73 O          -2.9563  -24.3441  -50.2282 O.2       12 UNK        -0.5000 
     74 N          -3.1640  -23.7754  -48.0468 N.am      13 UNK        -0.5000 
     75 CA         -3.6491  -25.0701  -47.5681 C.3       13 UNK         0.1400 
     76 CB         -4.1357  -24.9424  -46.1173 C.3       13 UNK        -0.1800 
     77 C          -2.5900  -26.1795  -47.7011 C.2       13 UNK         0.5000 
     78 O          -2.9209  -27.2796  -48.1437 O.2       13 UNK        -0.5000 
     79 N          -1.3334  -25.8593  -47.3605 N.am      14 UNK        -0.5000 
     80 CA         -0.1819  -26.7508  -47.5119 C.3       14 UNK         0.1400 
     81 CB          1.0215  -26.1629  -46.7590 C.3       14 UNK        -0.1800 
     82 C           0.1723  -27.0229  -48.9870 C.2       14 UNK         0.5000 
     83 O           0.4870  -28.1607  -49.3376 O.2       14 UNK        -0.5000 
     84 N           0.0964  -25.9808  -49.8253 N.am      15 UNK        -0.5000 
     85 CA          0.3644  -26.0369  -51.2645 C.3       15 UNK         0.1400 
     86 CB          0.6254  -24.6079  -51.7690 C.3       15 UNK        -0.1800 
     87 C          -0.7652  -26.6874  -52.0896 C.2       15 UNK         0.5000 
     88 O          -0.5381  -27.0130  -53.2553 O.2       15 UNK        -0.5000 
     89 N          -1.9586  -26.8262  -51.4920 N.am      16 UNK        -0.5000 
     90 CA         -3.2301  -27.2251  -52.1110 C.3       16 UNK         0.1400 
     91 CB         -3.1662  -28.6643  -52.6628 C.3       16 UNK        -0.1800 
     92 C          -3.7361  -26.1940  -53.1469 C.2       16 UNK         0.5000 
     93 O          -4.4228  -26.5526  -54.1046 O.2       16 UNK        -0.5000 
     94 N          -3.3968  -24.9209  -52.9130 N.am      17 UNK        -0.5000 
     95 CA         -3.7750  -23.7563  -53.7114 C.3       17 UNK         0.1400 
     96 CB         -2.5629  -22.8159  -53.7946 C.3       17 UNK        -0.1800 
     97 C          -4.9876  -23.0173  -53.1135 C.2       17 UNK         0.5000 
     98 O          -5.5095  -22.0978  -53.7481 O.2       17 UNK        -0.5000 
     99 N          -5.4253  -23.4172  -51.9090 N.am      18 UNK        -0.5000 
    100 CA        -6.5790  -22.8604  -51.1954 C.3       18 UNK         0.1400 
    101 CB        -6.6638  -23.4836  -49.7943 C.3       18 UNK        -0.1800 
    102 C         -7.9066  -23.0405  -51.9537 C.2       18 UNK         0.5000 
    103 O         -8.7638  -22.1596  -51.8936 O.2       18 UNK        -0.5000 
    104 N         -8.0216  -24.1408  -52.7110 N.am      19 UNK        -0.5000 
    105 CA        -9.1459  -24.4406  -53.6022 C.3       19 UNK         0.1400 
    106 CB        -8.9959  -25.8793  -54.1198 C.3       19 UNK        -0.1800 
    107 C         -9.2792  -23.4550  -54.7826 C.2       19 UNK         0.5000 
    108 O        -10.3766  -23.3000  -55.3189 O.2       19 UNK        -0.5000 
    109 N         -8.1716  -22.7957  -55.1481 N.am      20 UNK        -0.5000 
    110 CA        -8.1019  -21.7507  -56.1692 C.3       20 UNK         0.1400 
    111 CB        -6.8300  -21.9732  -57.0063 C.3       20 UNK        -0.1800 
    112 C         -8.1349  -20.3339  -55.5554 C.2       20 UNK         0.5000 
    113 O         -7.9338  -19.3647  -56.2879 O.2       20 UNK        -0.5000 
    114 N         -8.3855  -20.2351  -54.2383 N.am      21 UNK        -0.5000 
    115 CA        -8.4118  -19.0184  -53.4202 C.3       21 UNK         0.1400 
    116 CB        -9.5646  -18.0851  -53.8474 C.3       21 UNK        -0.1800 
    117 C         -7.0369  -18.3220  -53.3877 C.2       21 UNK         0.5000 
    118 O         -6.9141  -17.1605  -53.7815 O.2       21 UNK        -0.5000 
    119 N         -6.0256  -19.0677  -52.9222 N.am      22 UNK        -0.5000 
    120 CA        -4.6026  -18.6862  -52.9258 C.3       22 UNK         0.1400 
    121 C         -3.9888  -18.7686  -54.3565 C.2       22 UNK         0.5000 
    122 N         -4.3004  -19.8126  -55.1145 N.am      22 UNK        -0.7600 
    123 O         -3.2410  -17.8991  -54.7947 O.2       22 UNK        -0.5000 
    124 C124       -4.3077  -17.3525  -52.1619 C.3       23 UNK        -0.0398 
    125 S125       -2.9419  -17.4873  -50.9582 S.3       23 UNK        -0.2404 
    126 C126       -1.5009  -17.0589  -51.9779 C.3       23 UNK        -0.0205 
    127 H127        5.7070  -20.2229  -45.2503 H         1 UNK         0.0600 
    128 H128        5.1132  -19.8493  -46.8679 H         1 UNK         0.0600 
    129 H129        4.1212  -20.8100  -45.7631 H         1 UNK         0.0600 
    130 H130        4.0943  -17.8603  -47.1214 H         1 UNK         0.3000 
    131 H131        2.5478  -16.5884  -45.0630 H         1 UNK         0.0600 
    132 H132        2.3633  -14.6896  -46.6827 H         1 UNK         0.0800 
    133 H133        1.8478  -16.2205  -47.3155 H         1 UNK         0.0800 
    134 H134        1.9740  -14.3744  -49.4652 H         1 UNK         0.0800 
    135 H135        3.1858  -14.8280  -50.6382 H         1 UNK         0.0800 
    136 H136        0.1991  -15.1999  -50.9243 H         1 UNK         0.1150 
    137 H137       -0.2940  -19.4244  -51.4128 H         1 UNK         0.1150 
    138 H138        3.2790  -17.8887  -49.6245 H         1 UNK         0.1150 
    139 H139        1.2848  -20.9603  -50.5457 H         1 UNK         0.0800 
    140 H140        2.8467  -20.3906  -51.0748 H         1 UNK         0.0800 
    141 H141        1.7134  -19.7740  -46.7141 H         1 UNK         0.0800 
    142 H142        0.6317  -19.6258  -48.0597 H         1 UNK         0.0800 
    143 H143        1.4022  -22.3207  -46.8150 H         1 UNK         0.0600 
    144 H144       -0.2996  -20.4079  -45.6496 H         1 UNK         0.3000 
    145 H145       -2.6013  -22.5928  -44.0215 H         1 UNK         0.0600 
    146 H146       -1.8307  -21.1924  -42.1181 H         1 UNK         0.0600 
    147 H147       -0.6211  -22.3969  -42.5319 H         1 UNK         0.0600 
    148 H148       -0.3870  -20.7232  -43.0147 H         1 UNK         0.0600 
    149 H149       -2.3071  -19.7287  -44.2559 H         1 UNK         0.3000 
    150 H150       -4.5345  -19.3428  -47.0248 H         1 UNK         0.0600 
    151 H151       -5.9997  -19.5570  -45.0114 H         1 UNK         0.0600 
    152 H152       -5.6796  -17.8729  -45.3929 H         1 UNK         0.0600 
    153 H153       -4.8368  -18.6495  -44.0521 H         1 UNK         0.0600 
    154 H154       -3.1305  -17.4516  -45.4090 H         1 UNK         0.3000 
    155 H155       -0.0706  -17.4688  -47.2183 H         1 UNK         0.0600 
    156 H156       -0.6005  -15.0763  -47.5683 H         1 UNK         0.0600 
    157 H157       -2.3072  -15.3733  -47.2293 H         1 UNK         0.0600 
    158 H158       -1.5525  -16.0695  -48.6573 H         1 UNK         0.0600 
    159 H159       -0.9906  -15.7647  -45.1486 H         1 UNK         0.3000 
    160 H160       -0.8984  -17.5009  -42.4649 H         1 UNK         0.0600 
    161 H161        2.0425  -16.7453  -42.8467 H         1 UNK         0.0600 
    162 H162        1.4561  -18.3584  -42.4766 H         1 UNK         0.0600 
    163 H163        1.2160  -17.0551  -41.3281 H         1 UNK         0.0600 
    164 H164       -1.2401  -15.3425  -42.2726 H         1 UNK         0.3000 
    165 H165        0.1817  -12.3730  -43.6421 H         1 UNK         0.0600 
    166 H166       -2.4250  -13.5741  -42.5317 H         1 UNK         0.0600 
    167 H167       -2.1570  -11.9086  -43.0279 H         1 UNK         0.0600 
    168 H168       -2.1456  -13.1887  -44.2283 H         1 UNK         0.0600 
    169 H169        0.3004  -13.7256  -41.1083 H         1 UNK         0.3000 
    170 H170        0.3821  -10.9606  -39.0803 H         1 UNK         0.0600 
    171 H171       -0.1672  -13.4162  -38.8476 H         1 UNK         0.0600 
    172 H172        1.4467  -13.8286  -39.4359 H         1 UNK         0.0600 
    173 H173        1.2492  -12.9649  -37.9182 H         1 UNK         0.0600 
    174 H174        2.7293  -11.5392  -40.7255 H         1 UNK         0.3000 
    175 H175        4.6153   -9.1391  -39.1027 H         1 UNK         0.0600 
    176 H176        5.3602  -12.1022  -38.8191 H         1 UNK         0.0600 
    177 H177        6.4896  -10.7466  -38.8007 H         1 UNK         0.0600 
    178 H178        5.3159  -10.9299  -37.5079 H         1 UNK         0.0600 
    179 H179        5.3033  -11.1292  -41.0673 H         1 UNK         0.3000 
    180 H180        3.6509   -9.8337  -43.8092 H         1 UNK         0.0600 
    181 H181        5.3449   -7.9981  -43.7491 H         1 UNK         0.0600 
    182 H182        5.8265   -9.2657  -44.8640 H         1 UNK         0.0600 
    183 H183        6.5927   -9.1459  -43.2791 H         1 UNK         0.0600 
    184 H184        5.9608  -11.4977  -43.6547 H         1 UNK         0.3000 
    185 H185        5.8229  -13.6507  -43.9180 H         1 UNK         0.0600 
    186 H186        5.8029  -13.8420  -41.4188 H         1 UNK         0.0600 
    187 H187        4.2390  -14.6486  -41.4804 H         1 UNK         0.0600 
    188 H188        5.6639  -15.4253  -42.1676 H         1 UNK         0.0600 
    189 H189        3.0020  -14.5042  -44.0709 H         1 UNK         0.3000 
    190 H190       -1.5688  -20.7841  -48.1714 H         1 UNK         0.3000 
    191 H191       -1.6585  -22.2427  -50.5656 H         1 UNK         0.0600 
    192 H192       -3.9884  -21.4118  -50.6941 H         1 UNK         0.0600 
    193 H193       -2.9170  -20.1531  -50.1198 H         1 UNK         0.0600 
    194 H194       -3.9662  -20.9931  -48.9834 H         1 UNK         0.0600 
    195 H195       -3.1029  -23.0272  -47.3634 H         1 UNK         0.3000 
    196 H196       -4.5040  -25.3543  -48.1853 H         1 UNK         0.0600 
    197 H197       -4.5138  -25.8958  -45.7465 H         1 UNK         0.0600 
    198 H198       -4.9465  -24.2181  -46.0373 H         1 UNK         0.0600 
    199 H199       -3.3355  -24.6237  -45.4493 H         1 UNK         0.0600 
    200 H200       -1.1499  -24.9387  -46.9737 H         1 UNK         0.3000 
    201 H201       -0.4343  -27.7074  -47.0497 H         1 UNK         0.0600 
    202 H202        0.7988  -26.0367  -45.6993 H         1 UNK         0.0600 
    203 H203        1.3107  -25.1895  -47.1560 H         1 UNK         0.0600 
    204 H204        1.8887  -26.8200  -46.8342 H         1 UNK         0.0600 
    205 H205       -0.0930  -25.0599  -49.4370 H         1 UNK         0.3000 
    206 H206        1.2692  -26.6266  -51.4250 H         1 UNK         0.0600 
    207 H207        1.4610  -24.1484  -51.2405 H         1 UNK         0.0600 
    208 H208        0.8719  -24.6037  -52.8314 H         1 UNK         0.0600 
    209 H209       -0.2482  -23.9699  -51.6326 H         1 UNK         0.0600 
    210 H210       -2.0336  -26.4885  -50.5411 H         1 UNK         0.3000 
    211 H211       -3.9638  -27.2195  -51.3037 H         1 UNK         0.0600 
    212 H212       -2.5196  -28.7381  -53.5373 H         1 UNK         0.0600 
    213 H213       -4.1561  -29.0106  -52.9617 H         1 UNK         0.0600 
    214 H214       -2.7942  -29.3586  -51.9094 H         1 UNK         0.0600 
    215 H215       -2.9042  -24.7270  -52.0448 H         1 UNK         0.3000 
    216 H216       -4.0416  -24.0685  -54.7230 H         1 UNK         0.0600 
    217 H217       -2.7541  -21.9883  -54.4766 H         1 UNK         0.0600 
    218 H218       -1.6824  -23.3403  -54.1665 H         1 UNK         0.0600 
    219 H219       -2.3125  -22.3899  -52.8235 H         1 UNK         0.0600 
    220 H220       -4.9122  -24.1507  -51.4395 H         1 UNK         0.3000 
    221 H221       -6.4164  -21.7872  -51.0796 H         1 UNK         0.0600 
    222 H222       -6.7262  -24.5715  -49.8383 H         1 UNK         0.0600 
    223 H223       -5.7953  -23.2193  -49.1924 H         1 UNK         0.0600 
    224 H224       -7.5434  -23.1248  -49.2580 H         1 UNK         0.0600 
    225 H225       -7.2610  -24.8045  -52.7064 H         1 UNK         0.3000 
    226 H226      -10.0660  -24.3786  -53.0175 H         1 UNK         0.0600 
    227 H227       -8.9821  -26.5952  -53.2978 H         1 UNK         0.0600 
    228 H228       -9.8285  -26.1501  -54.7705 H         1 UNK         0.0600 
    229 H229       -8.0762  -26.0069  -54.6925 H         1 UNK         0.0600 
    230 H230       -7.3172  -22.9534  -54.6293 H         1 UNK         0.3000 
    231 H231       -8.9599  -21.8255  -56.8401 H         1 UNK         0.0600 
    232 H232       -6.7546  -21.2425  -57.8124 H         1 UNK         0.0600 
    233 H233       -6.8320  -22.9611  -57.4671 H         1 UNK         0.0600 
    234 H234       -5.9271  -21.8895  -56.4023 H         1 UNK         0.0600 
    235 H235       -8.5461  -21.0929  -53.7245 H         1 UNK         0.3000 
    236 H236       -8.6190  -19.3395  -52.3983 H         1 UNK         0.0600 
    237 H237      -10.5210  -18.6077  -53.8281 H         1 UNK         0.0600 
    238 H238       -9.6457  -17.2346  -53.1696 H         1 UNK         0.0600 
    239 H239       -9.4206  -17.6868  -54.8519 H         1 UNK         0.0600 
    240 H240       -6.2133  -20.0337  -52.6959 H         1 UNK         0.3000 
    241 H241       -4.1110  -19.4918  -52.3800 H         1 UNK         0.0600 
    242 H242       -4.8799  -20.5600  -54.7481 H         1 UNK         0.3800 
    243 H243       -3.9244  -19.8742  -56.0466 H         1 UNK         0.3800 
    244 H244       -4.1335  -16.5140  -52.8380 H         1 UNK         0.0800 
    245 H245       -5.1779  -17.0585  -51.5742 H         1 UNK         0.0800 
    246 H246       -1.5863  -16.0218  -52.3057 H         1 UNK         0.0800 
    247 H247       -1.4986  -17.6692  -52.8805 H         1 UNK         0.0800 
@<TRIPOS>BOND
     1    1    2 1    
     2    1  127 1    
     3    1  128 1    
     4    1  129 1    
     5    2    3 2    
     6    2    4 am   BACKBONE|DICT|INTERRES
     7    4    5 1    
     8    4  130 1    
     9    5    6 1    
    10    5   65 1    
    11    5  131 1    
    12    6    7 1    
    13    6  132 1    
    14    6  133 1    
    15    7    8 1    
    16    8    9 1    
    17    8  134 1    
    18    8  135 1    
    19    9   10 ar   
    20    9   14 ar   
    21   10   11 ar   
    22   10  136 1    
    23   11   12 ar   
    24   11  126 1    
    25   12   13 ar   
    26   12  137 1    
    27   13   14 ar   
    28   13   15 1    
    29   14  138 1    
    30   15   16 1    
    31   15  139 1    
    32   15  140 1    
    33   16   17 1    
    34   17   18 1    
    35   17  141 1    
    36   17  142 1    
    37   18   19 1    
    38   18   67 1    
    39   18  143 1    
    40   19   20 am   BACKBONE|DICT|INTERRES
    41   19  144 1    
    42   20   21 2    
    43   20   22 1    
    44   22   23 1    
    45   22   24 1    
    46   22  145 1    
    47   23  146 1    
    48   23  147 1    
    49   23  148 1    
    50   24   25 am   BACKBONE|DICT|INTERRES
    51   24  149 1    
    52   25   26 2    
    53   25   27 1    
    54   27   28 1    
    55   27   29 1    
    56   27  150 1    
    57   28  151 1    
    58   28  152 1    
    59   28  153 1    
    60   29   30 am   BACKBONE|DICT|INTERRES
    61   29  154 1    
    62   30   31 2    
    63   30   32 1    
    64   32   33 1    
    65   32   34 1    
    66   32  155 1    
    67   33  156 1    
    68   33  157 1    
    69   33  158 1    
    70   34   35 am   BACKBONE|DICT|INTERRES
    71   34  159 1    
    72   35   36 2    
    73   35   37 1    
    74   37   38 1    
    75   37   39 1    
    76   37  160 1    
    77   38  161 1    
    78   38  162 1    
    79   38  163 1    
    80   39   40 am   BACKBONE|DICT|INTERRES
    81   39  164 1    
    82   40   41 2    
    83   40   42 1    
    84   42   43 1    
    85   42   44 1    
    86   42  165 1    
    87   43  166 1    
    88   43  167 1    
    89   43  168 1    
    90   44   45 am   BACKBONE|DICT|INTERRES
    91   44  169 1    
    92   45   46 2    
    93   45   47 1    
    94   47   48 1    
    95   47   49 1    
    96   47  170 1    
    97   48  171 1    
    98   48  172 1    
    99   48  173 1    
   100   49   50 am   BACKBONE|DICT|INTERRES
   101   49  174 1    
   102   50   51 2    
   103   50   52 1    
   104   52   53 1    
   105   52   54 1    
   106   52  175 1    
   107   53  176 1    
   108   53  177 1    
   109   53  178 1    
   110   54   55 am   BACKBONE|DICT|INTERRES
   111   54  179 1    
   112   55   56 2    
   113   55   57 1    
   114   57   58 1    
   115   57   59 1    
   116   57  180 1    
   117   58  181 1    
   118   58  182 1    
   119   58  183 1    
   120   59   60 am   BACKBONE|DICT|INTERRES
   121   59  184 1    
   122   60   61 2    
   123   60   62 1    
   124   62   63 1    
   125   62   64 1    
   126   62  185 1    
   127   63  186 1    
   128   63  187 1    
   129   63  188 1    
   130   64   65 am   BACKBONE|DICT|INTERRES
   131   64  189 1    
   132   65   66 2    
   133   67   68 2    
   134   67   69 am   BACKBONE|DICT|INTERRES
   135   69   70 1    
   136   69  190 1    
   137   70   71 1    
   138   70   72 1    
   139   70  191 1    
   140   71  192 1    
   141   71  193 1    
   142   71  194 1    
   143   72   73 2    
   144   72   74 am   BACKBONE|DICT|INTERRES
   145   74   75 1    
   146   74  195 1    
   147   75   76 1    
   148   75   77 1    
   149   75  196 1    
   150   76  197 1    
   151   76  198 1    
   152   76  199 1    
   153   77   78 2    
   154   77   79 am   BACKBONE|DICT|INTERRES
   155   79   80 1    
   156   79  200 1    
   157   80   81 1    
   158   80   82 1    
   159   80  201 1    
   160   81  202 1    
   161   81  203 1    
   162   81  204 1    
   163   82   83 2    
   164   82   84 am   BACKBONE|DICT|INTERRES
   165   84   85 1    
   166   84  205 1    
   167   85   86 1    
   168   85   87 1    
   169   85  206 1    
   170   86  207 1    
   171   86  208 1    
   172   86  209 1    
   173   87   88 2    
   174   87   89 am   BACKBONE|DICT|INTERRES
   175   89   90 1    
   176   89  210 1    
   177   90   91 1    
   178   90   92 1    
   179   90  211 1    
   180   91  212 1    
   181   91  213 1    
   182   91  214 1    
   183   92   93 2    
   184   92   94 am   BACKBONE|DICT|INTERRES
   185   94   95 1    
   186   94  215 1    
   187   95   96 1    
   188   95   97 1    
   189   95  216 1    
   190   96  217 1    
   191   96  218 1    
   192   96  219 1    
   193   97   98 2    
   194   97   99 am   BACKBONE|DICT|INTERRES
   195   99  100 1    
   196   99  220 1    
   197  100  101 1    
   198  100  102 1    
   199  100  221 1    
   200  101  222 1    
   201  101  223 1    
   202  101  224 1    
   203  102  103 2    
   204  102  104 am   BACKBONE|DICT|INTERRES
   205  104  105 1    
   206  104  225 1    
   207  105  106 1    
   208  105  107 1    
   209  105  226 1    
   210  106  227 1    
   211  106  228 1    
   212  106  229 1    
   213  107  108 2    
   214  107  109 am   BACKBONE|DICT|INTERRES
   215  109  110 1    
   216  109  230 1    
   217  110  111 1    
   218  110  112 1    
   219  110  231 1    
   220  111  232 1    
   221  111  233 1    
   222  111  234 1    
   223  112  113 2    
   224  112  114 am   BACKBONE|DICT|INTERRES
   225  114  115 1    
   226  114  235 1    
   227  115  116 1    
   228  115  117 1    
   229  115  236 1    
   230  116  237 1    
   231  116  238 1    
   232  116  239 1    
   233  117  118 2    
   234  117  119 am   BACKBONE|DICT|INTERRES
   235  119  120 1    
   236  119  240 1    
   237  120  121 1    
   238  120  124 1    
   239  120  241 1    
   240  121  122 am   BACKBONE|DICT|INTERRES
   241  121  123 2    
   242  122  242 1    
   243  122  243 1    
   244  124  125 1    
   245  124  244 1    
   246  124  245 1    
   247  125  126 1    
   248  126  246 1    
   249  126  247 1    
@<TRIPOS>SUBSTRUCTURE
     1 UNK         1 GROUP             0       ****    0 ROOT    
