@<TRIPOS>MOLECULE
3R540
247   249    1
SMALL
USER_CHARGES


@<TRIPOS>ATOM
      1 CA          1.6872  -15.1921  -52.9688 C.3       0 UNK        -0.1800 
      2 C           2.0343  -13.9795  -52.1165 C.2       0 UNK         0.5000 
      3 O           1.7726  -12.8487  -52.5260 O.2       0 UNK        -0.5000 
      4 N           2.6317  -14.2139  -50.9417 N.am      1 UNK        -0.5000 
      5 CA          3.0017  -13.2026  -49.9451 C.3       1 UNK         0.1400 
      6 C6          3.9550  -13.7714  -48.8560 C.3       23 UNK        -0.0398 
      7 S7          3.4326  -15.3814  -48.1537 S.3       23 UNK        -0.2404 
      8 C8          4.4643  -16.5436  -49.1018 C.3       23 UNK        -0.0205 
      9 C9          3.7744  -17.8870  -49.2857 C.ar      23 UNK        -0.0193 
     10 C10         2.5809  -17.9635  -50.0111 C.ar      23 UNK        -0.1150 
     11 C11         1.9590  -19.1934  -50.2268 C.ar      23 UNK        -0.0193 
     12 C12         2.5441  -20.3562  -49.7238 C.ar      23 UNK        -0.1150 
     13 C13         3.7308  -20.2972  -48.9884 C.ar      23 UNK        -0.0193 
     14 C14         4.3397  -19.0573  -48.7669 C.ar      23 UNK        -0.1150 
     15 C15         4.3632  -21.5776  -48.4603 C.3       23 UNK        -0.0205 
     16 S16         3.7777  -21.9984  -46.7885 S.3       23 UNK        -0.2404 
     17 C17         2.0086  -22.3292  -47.0882 C.3       23 UNK        -0.0398 
     18 CA          1.4069  -23.3895  -46.1390 C.3       11 UNK         0.1400 
     19 N           1.5991  -23.0489  -44.7280 N.am      11 UNK        -0.5000 
     20 C           1.4968  -23.8991  -43.6997 C.2       10 UNK         0.5000 
     21 O           1.2460  -25.0972  -43.8394 O.2       10 UNK        -0.5000 
     22 CA          1.6490  -23.3007  -42.2844 C.3       10 UNK         0.1400 
     23 CB          2.2620  -24.2939  -41.2758 C.3       10 UNK        -0.1800 
     24 N           2.3483  -22.0096  -42.2605 N.am      10 UNK        -0.5000 
     25 C           3.6352  -21.7592  -42.5509 C.2       9 UNK         0.5000 
     26 O           4.4515  -22.6330  -42.8449 O.2       9 UNK        -0.5000 
     27 CA          4.0977  -20.2852  -42.5240 C.3       9 UNK         0.1400 
     28 CB          4.4835  -19.8123  -43.9345 C.3       9 UNK        -0.1800 
     29 N           3.0974  -19.3619  -41.9856 N.am      9 UNK        -0.5000 
     30 C           2.7938  -19.2160  -40.6895 C.2       8 UNK         0.5000 
     31 O           3.3774  -19.8053  -39.7793 O.2       8 UNK        -0.5000 
     32 CA          1.6068  -18.2886  -40.3612 C.3       8 UNK         0.1400 
     33 CB          2.0745  -16.8315  -40.2302 C.3       8 UNK        -0.1800 
     34 N           0.5226  -18.3703  -41.3458 N.am      8 UNK        -0.5000 
     35 C          -0.2006  -19.4726  -41.5905 C.2       7 UNK         0.5000 
     36 O          -0.0441  -20.5370  -40.9927 O.2       7 UNK        -0.5000 
     37 CA         -1.2338  -19.3999  -42.7273 C.3       7 UNK         0.1400 
     38 CB         -2.5203  -18.6973  -42.2710 C.3       7 UNK        -0.1800 
     39 N          -0.7070  -18.7555  -43.9303 N.am      7 UNK        -0.5000 
     40 C           0.2735  -19.2627  -44.6914 C.2       6 UNK         0.5000 
     41 O           0.7792  -20.3670  -44.4965 O.2       6 UNK        -0.5000 
     42 CA          0.8070  -18.3791  -45.8346 C.3       6 UNK         0.1400 
     43 CB         -0.0728  -18.5162  -47.0868 C.3       6 UNK        -0.1800 
     44 N           0.9053  -16.9704  -45.4501 N.am      6 UNK        -0.5000 
     45 C           1.6927  -16.5018  -44.4708 C.2       5 UNK         0.5000 
     46 O           2.4718  -17.2031  -43.8270 O.2       5 UNK        -0.5000 
     47 CA          1.5305  -15.0195  -44.0920 C.3       5 UNK         0.1400 
     48 CB          2.3102  -14.1004  -45.0406 C.3       5 UNK        -0.1800 
     49 N           0.1261  -14.6147  -44.0570 N.am      5 UNK        -0.5000 
     50 C          -0.7487  -15.0123  -43.1232 C.2       4 UNK         0.5000 
     51 O          -0.4518  -15.7372  -42.1743 O.2       4 UNK        -0.5000 
     52 CA         -2.2064  -14.5503  -43.3014 C.3       4 UNK         0.1400 
     53 CB         -2.4055  -13.1473  -42.7091 C.3       4 UNK        -0.1800 
     54 N          -2.6246  -14.5488  -44.7041 N.am      4 UNK        -0.5000 
     55 C          -2.7774  -15.6542  -45.4469 C.2       3 UNK         0.5000 
     56 O          -2.6211  -16.7952  -45.0145 O.2       3 UNK        -0.5000 
     57 CA         -3.0974  -15.4432  -46.9379 C.3       3 UNK         0.1400 
     58 CB         -4.6068  -15.2803  -47.1646 C.3       3 UNK        -0.1800 
     59 N          -2.3814  -14.3012  -47.5161 N.am      3 UNK        -0.5000 
     60 C          -1.0505  -14.2593  -47.6527 C.2       2 UNK         0.5000 
     61 O          -0.3053  -15.1825  -47.3157 O.2       2 UNK        -0.5000 
     62 CA         -0.4408  -12.9650  -48.2049 C.3       2 UNK         0.1400 
     63 CB         -0.3177  -11.9226  -47.0734 C.3       2 UNK        -0.1800 
     64 N           0.8608  -13.3131  -48.7683 N.am      2 UNK        -0.5000 
     65 C           1.7559  -12.5091  -49.3508 C.2       1 UNK         0.5000 
     66 O           1.6183  -11.2910  -49.4723 O.2       1 UNK        -0.5000 
     67 C          -0.0871  -23.5831  -46.4652 C.2       11 UNK         0.5000 
     68 O          -0.4180  -24.3446  -47.3752 O.2       11 UNK        -0.5000 
     69 N          -0.9667  -22.9195  -45.6980 N.am      12 UNK        -0.5000 
     70 CA         -2.4299  -22.9596  -45.8138 C.3       12 UNK         0.1400 
     71 CB         -3.0320  -21.8959  -44.8843 C.3       12 UNK        -0.1800 
     72 C          -3.0689  -24.3432  -45.5532 C.2       12 UNK         0.5000 
     73 O          -4.2722  -24.5045  -45.7552 O.2       12 UNK        -0.5000 
     74 N          -2.2632  -25.3252  -45.1263 N.am      13 UNK        -0.5000 
     75 CA         -2.6244  -26.7414  -45.0932 C.3       13 UNK         0.1400 
     76 CB         -1.5650  -27.5013  -44.2806 C.3       13 UNK        -0.1800 
     77 C          -2.7658  -27.3535  -46.5046 C.2       13 UNK         0.5000 
     78 O          -3.4917  -28.3367  -46.6581 O.2       13 UNK        -0.5000 
     79 N          -2.0791  -26.7703  -47.4984 N.am      14 UNK        -0.5000 
     80 CA         -2.1131  -27.1802  -48.9022 C.3       14 UNK         0.1400 
     81 CB         -0.7027  -27.6134  -49.3337 C.3       14 UNK        -0.1800 
     82 C          -2.6315  -26.0486  -49.8059 C.2       14 UNK         0.5000 
     83 O          -3.4453  -26.3093  -50.6931 O.2       14 UNK        -0.5000 
     84 N          -2.1551  -24.8177  -49.5769 N.am      15 UNK        -0.5000 
     85 CA         -2.5598  -23.6178  -50.3086 C.3       15 UNK         0.1400 
     86 CB         -1.5253  -22.5121  -50.0448 C.3       15 UNK        -0.1800 
     87 C          -3.9578  -23.1288  -49.8921 C.2       15 UNK         0.5000 
     88 O          -4.3554  -23.3199  -48.7423 O.2       15 UNK        -0.5000 
     89 N          -4.6494  -22.4477  -50.8123 N.am      16 UNK        -0.5000 
     90 CA         -5.8544  -21.6751  -50.5085 C.3       16 UNK         0.1400 
     91 CB         -6.8102  -21.7184  -51.7075 C.3       16 UNK        -0.1800 
     92 C          -5.4720  -20.2249  -50.1704 C.2       16 UNK         0.5000 
     93 O          -6.0044  -19.6595  -49.2157 O.2       16 UNK        -0.5000 
     94 N          -4.5415  -19.6652  -50.9592 N.am      17 UNK        -0.5000 
     95 CA         -3.8609  -18.3698  -50.8458 C.3       17 UNK         0.1400 
     96 CB         -3.0245  -18.3067  -49.5552 C.3       17 UNK        -0.1800 
     97 C          -4.7477  -17.1167  -51.0009 C.2       17 UNK         0.5000 
     98 O          -4.2864  -16.1265  -51.5678 O.2       17 UNK        -0.5000 
     99 N          -5.9829  -17.1622  -50.4906 N.am      18 UNK        -0.5000 
    100 CA        -6.9143  -16.0375  -50.4379 C.3       18 UNK         0.1400 
    101 CB        -8.0558  -16.3706  -49.4646 C.3       18 UNK        -0.1800 
    102 C         -7.4645  -15.6203  -51.8128 C.2       18 UNK         0.5000 
    103 O         -7.4171  -14.4344  -52.1436 O.2       18 UNK        -0.5000 
    104 N         -7.9953  -16.5850  -52.5768 N.am      19 UNK        -0.5000 
    105 CA        -8.7053  -16.3299  -53.8353 C.3       19 UNK         0.1400 
    106 CB       -10.1113  -15.7605  -53.5423 C.3       19 UNK        -0.1800 
    107 C         -8.7569  -17.5734  -54.7437 C.2       19 UNK         0.5000 
    108 O         -9.7073  -17.7267  -55.5136 O.2       19 UNK        -0.5000 
    109 N         -7.7465  -18.4452  -54.6499 N.am      20 UNK        -0.5000 
    110 CA        -7.6115  -19.6497  -55.4679 C.3       20 UNK         0.1400 
    111 CB        -8.5495  -20.7684  -54.9602 C.3       20 UNK        -0.1800 
    112 C         -6.1242  -20.0324  -55.5474 C.2       20 UNK         0.5000 
    113 O         -5.2961  -19.1506  -55.7870 O.2       20 UNK        -0.5000 
    114 N         -5.8039  -21.3201  -55.3557 N.am      21 UNK        -0.5000 
    115 CA        -4.4555  -21.8918  -55.3920 C.3       21 UNK         0.1400 
    116 CB        -4.5374  -23.3833  -55.0314 C.3       21 UNK        -0.1800 
    117 C         -3.4814  -21.1662  -54.4468 C.2       21 UNK         0.5000 
    118 O         -3.7406  -21.1113  -53.2415 O.2       21 UNK        -0.5000 
    119 N         -2.3980  -20.6225  -55.0149 N.am      22 UNK        -0.5000 
    120 CA        -1.3975  -19.7710  -54.3457 C.3       22 UNK         0.1400 
    121 C         -1.8426  -18.2882  -54.1422 C.2       22 UNK         0.5000 
    122 N         -3.0115  -17.8617  -54.6047 N.am      22 UNK        -0.7600 
    123 O         -1.1072  -17.4922  -53.5684 O.2       22 UNK        -0.5000 
    124 C124       -0.8451  -20.4212  -53.0461 C.3       23 UNK        -0.0398 
    125 S125        0.8782  -19.9884  -52.6428 S.3       23 UNK        -0.2404 
    126 C126        0.6466  -19.2758  -50.9845 C.3       23 UNK        -0.0205 
    127 H127        0.6072  -15.3386  -52.9884 H         1 UNK         0.0600 
    128 H128        2.1481  -16.1044  -52.5906 H         1 UNK         0.0600 
    129 H129        2.0295  -15.0437  -53.9930 H         1 UNK         0.0600 
    130 H130        2.8122  -15.1655  -50.6615 H         1 UNK         0.3000 
    131 H131        3.5586  -12.4266  -50.4750 H         1 UNK         0.0600 
    132 H132        4.9552  -13.8828  -49.2764 H         1 UNK         0.0800 
    133 H133        4.0711  -13.0597  -48.0366 H         1 UNK         0.0800 
    134 H134        5.4216  -16.6607  -48.5918 H         1 UNK         0.0800 
    135 H135        4.6900  -16.1362  -50.0880 H         1 UNK         0.0800 
    136 H136        2.1292  -17.0648  -50.4019 H         1 UNK         0.1150 
    137 H137        2.0705  -21.3081  -49.9144 H         1 UNK         0.1150 
    138 H138        5.2617  -19.0079  -48.2049 H         1 UNK         0.1150 
    139 H139        4.1612  -22.4084  -49.1382 H         1 UNK         0.0800 
    140 H140        5.4483  -21.4680  -48.4333 H         1 UNK         0.0800 
    141 H141        1.8888  -22.6695  -48.1173 H         1 UNK         0.0800 
    142 H142        1.4739  -21.3817  -47.0081 H         1 UNK         0.0800 
    143 H143        1.9093  -24.3402  -46.3304 H         1 UNK         0.0600 
    144 H144        1.7273  -22.0617  -44.5264 H         1 UNK         0.3000 
    145 H145        0.6335  -23.0878  -41.9486 H         1 UNK         0.0600 
    146 H146        2.3566  -23.8439  -40.2875 H         1 UNK         0.0600 
    147 H147        1.6339  -25.1790  -41.1689 H         1 UNK         0.0600 
    148 H148        3.2498  -24.6337  -41.5875 H         1 UNK         0.0600 
    149 H149        1.7618  -21.2173  -42.0287 H         1 UNK         0.3000 
    150 H150        4.9883  -20.2371  -41.8944 H         1 UNK         0.0600 
    151 H151        5.2471  -20.4559  -44.3729 H         1 UNK         0.0600 
    152 H152        4.8852  -18.7992  -43.9154 H         1 UNK         0.0600 
    153 H153        3.6241  -19.8169  -44.6058 H         1 UNK         0.0600 
    154 H154        2.6190  -18.7741  -42.6627 H         1 UNK         0.3000 
    155 H155        1.2015  -18.6019  -39.3969 H         1 UNK         0.0600 
    156 H156        2.8600  -16.7393  -39.4792 H         1 UNK         0.0600 
    157 H157        1.2551  -16.1802  -39.9258 H         1 UNK         0.0600 
    158 H158        2.4730  -16.4507  -41.1707 H         1 UNK         0.0600 
    159 H159        0.3007  -17.5159  -41.8487 H         1 UNK         0.3000 
    160 H160       -1.4894  -20.4272  -42.9856 H         1 UNK         0.0600 
    161 H161       -2.3442  -17.6517  -42.0205 H         1 UNK         0.0600 
    162 H162       -2.9369  -19.1814  -41.3870 H         1 UNK         0.0600 
    163 H163       -3.2826  -18.7309  -43.0496 H         1 UNK         0.0600 
    164 H164       -1.1295  -17.8728  -44.1983 H         1 UNK         0.3000 
    165 H165        1.8114  -18.7270  -46.0858 H         1 UNK         0.0600 
    166 H166        0.3315  -17.9342  -47.9151 H         1 UNK         0.0600 
    167 H167       -0.1312  -19.5539  -47.4165 H         1 UNK         0.0600 
    168 H168       -1.0908  -18.1720  -46.9040 H         1 UNK         0.0600 
    169 H169        0.3386  -16.3151  -45.9826 H         1 UNK         0.3000 
    170 H170        1.9466  -14.8899  -43.0907 H         1 UNK         0.0600 
    171 H171        3.3549  -14.4059  -45.1111 H         1 UNK         0.0600 
    172 H172        1.8928  -14.1173  -46.0462 H         1 UNK         0.0600 
    173 H173        2.2957  -13.0686  -44.6899 H         1 UNK         0.0600 
    174 H174       -0.2075  -14.0570  -44.8273 H         1 UNK         0.3000 
    175 H175       -2.8464  -15.2460  -42.7547 H         1 UNK         0.0600 
    176 H176       -2.1161  -13.1238  -41.6576 H         1 UNK         0.0600 
    177 H177       -1.8077  -12.3990  -43.2311 H         1 UNK         0.0600 
    178 H178       -3.4502  -12.8410  -42.7641 H         1 UNK         0.0600 
    179 H179       -2.7757  -13.6499  -45.1369 H         1 UNK         0.3000 
    180 H180       -2.7726  -16.3414  -47.4634 H         1 UNK         0.0600 
    181 H181       -4.9967  -14.3875  -46.6744 H         1 UNK         0.0600 
    182 H182       -5.1553  -16.1385  -46.7740 H         1 UNK         0.0600 
    183 H183       -4.8344  -15.2082  -48.2273 H         1 UNK         0.0600 
    184 H184       -2.9387  -13.5108  -47.8073 H         1 UNK         0.3000 
    185 H185       -1.0792  -12.5813  -49.0026 H         1 UNK         0.0600 
    186 H186       -1.2771  -11.7585  -46.5815 H         1 UNK         0.0600 
    187 H187        0.3928  -12.2353  -46.3090 H         1 UNK         0.0600 
    188 H188        0.0072  -10.9540  -47.4516 H         1 UNK         0.0600 
    189 H189        1.0763  -14.3001  -48.6817 H         1 UNK         0.3000 
    190 H190       -0.5905  -22.3124  -44.9824 H         1 UNK         0.3000 
    191 H191       -2.6770  -22.6848  -46.8396 H         1 UNK         0.0600 
    192 H192       -2.8371  -22.1262  -43.8367 H         1 UNK         0.0600 
    193 H193       -4.1139  -21.8357  -45.0090 H         1 UNK         0.0600 
    194 H194       -2.6301  -20.9061  -45.1023 H         1 UNK         0.0600 
    195 H195       -1.2927  -25.1054  -44.9539 H         1 UNK         0.3000 
    196 H196       -3.5863  -26.8426  -44.5863 H         1 UNK         0.0600 
    197 H197       -1.8112  -28.5617  -44.2115 H         1 UNK         0.0600 
    198 H198       -1.4971  -27.1165  -43.2628 H         1 UNK         0.0600 
    199 H199       -0.5762  -27.4216  -44.7347 H         1 UNK         0.0600 
    200 H200       -1.5175  -25.9524  -47.2863 H         1 UNK         0.3000 
    201 H201       -2.7823  -28.0324  -49.0371 H         1 UNK         0.0600 
    202 H202       -0.3580  -28.4652  -48.7473 H         1 UNK         0.0600 
    203 H203        0.0226  -26.8079  -49.2106 H         1 UNK         0.0600 
    204 H204       -0.6888  -27.9130  -50.3824 H         1 UNK         0.0600 
    205 H205       -1.4982  -24.6737  -48.8152 H         1 UNK         0.3000 
    206 H206       -2.5705  -23.8411  -51.3778 H         1 UNK         0.0600 
    207 H207       -0.5469  -22.7769  -50.4461 H         1 UNK         0.0600 
    208 H208       -1.8322  -21.5780  -50.5107 H         1 UNK         0.0600 
    209 H209       -1.4101  -22.3106  -48.9798 H         1 UNK         0.0600 
    210 H210       -4.2400  -22.2857  -51.7266 H         1 UNK         0.3000 
    211 H211       -6.3747  -22.1024  -49.6485 H         1 UNK         0.0600 
    212 H212       -7.7313  -21.1767  -51.4890 H         1 UNK         0.0600 
    213 H213       -7.0846  -22.7433  -51.9571 H         1 UNK         0.0600 
    214 H214       -6.3639  -21.2660  -52.5919 H         1 UNK         0.0600 
    215 H215       -4.2384  -20.2151  -51.7610 H         1 UNK         0.3000 
    216 H216       -3.1594  -18.3456  -51.6770 H         1 UNK         0.0600 
    217 H217       -2.4051  -17.4092  -49.5403 H         1 UNK         0.0600 
    218 H218       -2.3539  -19.1622  -49.4761 H         1 UNK         0.0600 
    219 H219       -3.6541  -18.2926  -48.6650 H         1 UNK         0.0600 
    220 H220       -6.2490  -18.0129  -50.0007 H         1 UNK         0.3000 
    221 H221       -6.3767  -15.1776  -50.0339 H         1 UNK         0.0600 
    222 H222       -8.6055  -17.2604  -49.7739 H         1 UNK         0.0600 
    223 H223       -7.6741  -16.5471  -48.4587 H         1 UNK         0.0600 
    224 H224       -8.7692  -15.5478  -49.4012 H         1 UNK         0.0600 
    225 H225       -8.0044  -17.5363  -52.2367 H         1 UNK         0.3000 
    226 H226       -8.1475  -15.5807  -54.4010 H         1 UNK         0.0600 
    227 H227      -10.0600  -14.8407  -52.9599 H         1 UNK         0.0600 
    228 H228      -10.6423  -15.5192  -54.4639 H         1 UNK         0.0600 
    229 H229      -10.7209  -16.4738  -52.9867 H         1 UNK         0.0600 
    230 H230       -6.9470  -18.2169  -54.0752 H         1 UNK         0.3000 
    231 H231       -7.9027  -19.4074  -56.4921 H         1 UNK         0.0600 
    232 H232       -9.5922  -20.4536  -55.0009 H         1 UNK         0.0600 
    233 H233       -8.3355  -21.0437  -53.9295 H         1 UNK         0.0600 
    234 H234       -8.4738  -21.6661  -55.5747 H         1 UNK         0.0600 
    235 H235       -6.5507  -21.9671  -55.1514 H         1 UNK         0.3000 
    236 H236       -4.0886  -21.8053  -56.4166 H         1 UNK         0.0600 
    237 H237       -3.5497  -23.8457  -55.0519 H         1 UNK         0.0600 
    238 H238       -4.9498  -23.5348  -54.0327 H         1 UNK         0.0600 
    239 H239       -5.1639  -23.9270  -55.7387 H         1 UNK         0.0600 
    240 H240       -2.2844  -20.7078  -56.0150 H         1 UNK         0.3000 
    241 H241       -0.5746  -19.7168  -55.0592 H         1 UNK         0.0600 
    242 H242       -3.6634  -18.4751  -55.0853 H         1 UNK         0.3800 
    243 H243       -3.2609  -16.8968  -54.4605 H         1 UNK         0.3800 
    244 H244       -1.4990  -20.1769  -52.2101 H         1 UNK         0.0800 
    245 H245       -0.8668  -21.5085  -53.1313 H         1 UNK         0.0800 
    246 H246        0.1830  -18.2920  -51.0764 H         1 UNK         0.0800 
    247 H247       -0.0430  -19.8907  -50.4059 H         1 UNK         0.0800 
@<TRIPOS>BOND
     1    1    2 1    
     2    1  127 1    
     3    1  128 1    
     4    1  129 1    
     5    2    3 2    
     6    2    4 am   BACKBONE|DICT|INTERRES
     7    4    5 1    
     8    4  130 1    
     9    5    6 1    
    10    5   65 1    
    11    5  131 1    
    12    6    7 1    
    13    6  132 1    
    14    6  133 1    
    15    7    8 1    
    16    8    9 1    
    17    8  134 1    
    18    8  135 1    
    19    9   10 ar   
    20    9   14 ar   
    21   10   11 ar   
    22   10  136 1    
    23   11   12 ar   
    24   11  126 1    
    25   12   13 ar   
    26   12  137 1    
    27   13   14 ar   
    28   13   15 1    
    29   14  138 1    
    30   15   16 1    
    31   15  139 1    
    32   15  140 1    
    33   16   17 1    
    34   17   18 1    
    35   17  141 1    
    36   17  142 1    
    37   18   19 1    
    38   18   67 1    
    39   18  143 1    
    40   19   20 am   BACKBONE|DICT|INTERRES
    41   19  144 1    
    42   20   21 2    
    43   20   22 1    
    44   22   23 1    
    45   22   24 1    
    46   22  145 1    
    47   23  146 1    
    48   23  147 1    
    49   23  148 1    
    50   24   25 am   BACKBONE|DICT|INTERRES
    51   24  149 1    
    52   25   26 2    
    53   25   27 1    
    54   27   28 1    
    55   27   29 1    
    56   27  150 1    
    57   28  151 1    
    58   28  152 1    
    59   28  153 1    
    60   29   30 am   BACKBONE|DICT|INTERRES
    61   29  154 1    
    62   30   31 2    
    63   30   32 1    
    64   32   33 1    
    65   32   34 1    
    66   32  155 1    
    67   33  156 1    
    68   33  157 1    
    69   33  158 1    
    70   34   35 am   BACKBONE|DICT|INTERRES
    71   34  159 1    
    72   35   36 2    
    73   35   37 1    
    74   37   38 1    
    75   37   39 1    
    76   37  160 1    
    77   38  161 1    
    78   38  162 1    
    79   38  163 1    
    80   39   40 am   BACKBONE|DICT|INTERRES
    81   39  164 1    
    82   40   41 2    
    83   40   42 1    
    84   42   43 1    
    85   42   44 1    
    86   42  165 1    
    87   43  166 1    
    88   43  167 1    
    89   43  168 1    
    90   44   45 am   BACKBONE|DICT|INTERRES
    91   44  169 1    
    92   45   46 2    
    93   45   47 1    
    94   47   48 1    
    95   47   49 1    
    96   47  170 1    
    97   48  171 1    
    98   48  172 1    
    99   48  173 1    
   100   49   50 am   BACKBONE|DICT|INTERRES
   101   49  174 1    
   102   50   51 2    
   103   50   52 1    
   104   52   53 1    
   105   52   54 1    
   106   52  175 1    
   107   53  176 1    
   108   53  177 1    
   109   53  178 1    
   110   54   55 am   BACKBONE|DICT|INTERRES
   111   54  179 1    
   112   55   56 2    
   113   55   57 1    
   114   57   58 1    
   115   57   59 1    
   116   57  180 1    
   117   58  181 1    
   118   58  182 1    
   119   58  183 1    
   120   59   60 am   BACKBONE|DICT|INTERRES
   121   59  184 1    
   122   60   61 2    
   123   60   62 1    
   124   62   63 1    
   125   62   64 1    
   126   62  185 1    
   127   63  186 1    
   128   63  187 1    
   129   63  188 1    
   130   64   65 am   BACKBONE|DICT|INTERRES
   131   64  189 1    
   132   65   66 2    
   133   67   68 2    
   134   67   69 am   BACKBONE|DICT|INTERRES
   135   69   70 1    
   136   69  190 1    
   137   70   71 1    
   138   70   72 1    
   139   70  191 1    
   140   71  192 1    
   141   71  193 1    
   142   71  194 1    
   143   72   73 2    
   144   72   74 am   BACKBONE|DICT|INTERRES
   145   74   75 1    
   146   74  195 1    
   147   75   76 1    
   148   75   77 1    
   149   75  196 1    
   150   76  197 1    
   151   76  198 1    
   152   76  199 1    
   153   77   78 2    
   154   77   79 am   BACKBONE|DICT|INTERRES
   155   79   80 1    
   156   79  200 1    
   157   80   81 1    
   158   80   82 1    
   159   80  201 1    
   160   81  202 1    
   161   81  203 1    
   162   81  204 1    
   163   82   83 2    
   164   82   84 am   BACKBONE|DICT|INTERRES
   165   84   85 1    
   166   84  205 1    
   167   85   86 1    
   168   85   87 1    
   169   85  206 1    
   170   86  207 1    
   171   86  208 1    
   172   86  209 1    
   173   87   88 2    
   174   87   89 am   BACKBONE|DICT|INTERRES
   175   89   90 1    
   176   89  210 1    
   177   90   91 1    
   178   90   92 1    
   179   90  211 1    
   180   91  212 1    
   181   91  213 1    
   182   91  214 1    
   183   92   93 2    
   184   92   94 am   BACKBONE|DICT|INTERRES
   185   94   95 1    
   186   94  215 1    
   187   95   96 1    
   188   95   97 1    
   189   95  216 1    
   190   96  217 1    
   191   96  218 1    
   192   96  219 1    
   193   97   98 2    
   194   97   99 am   BACKBONE|DICT|INTERRES
   195   99  100 1    
   196   99  220 1    
   197  100  101 1    
   198  100  102 1    
   199  100  221 1    
   200  101  222 1    
   201  101  223 1    
   202  101  224 1    
   203  102  103 2    
   204  102  104 am   BACKBONE|DICT|INTERRES
   205  104  105 1    
   206  104  225 1    
   207  105  106 1    
   208  105  107 1    
   209  105  226 1    
   210  106  227 1    
   211  106  228 1    
   212  106  229 1    
   213  107  108 2    
   214  107  109 am   BACKBONE|DICT|INTERRES
   215  109  110 1    
   216  109  230 1    
   217  110  111 1    
   218  110  112 1    
   219  110  231 1    
   220  111  232 1    
   221  111  233 1    
   222  111  234 1    
   223  112  113 2    
   224  112  114 am   BACKBONE|DICT|INTERRES
   225  114  115 1    
   226  114  235 1    
   227  115  116 1    
   228  115  117 1    
   229  115  236 1    
   230  116  237 1    
   231  116  238 1    
   232  116  239 1    
   233  117  118 2    
   234  117  119 am   BACKBONE|DICT|INTERRES
   235  119  120 1    
   236  119  240 1    
   237  120  121 1    
   238  120  124 1    
   239  120  241 1    
   240  121  122 am   BACKBONE|DICT|INTERRES
   241  121  123 2    
   242  122  242 1    
   243  122  243 1    
   244  124  125 1    
   245  124  244 1    
   246  124  245 1    
   247  125  126 1    
   248  126  246 1    
   249  126  247 1    
@<TRIPOS>SUBSTRUCTURE
     1 UNK         1 GROUP             0       ****    0 ROOT    
