@<TRIPOS>MOLECULE
3R540
247   249    1
SMALL
USER_CHARGES


@<TRIPOS>ATOM
      1 CA          3.6398  -10.3630  -48.2213 C.3       0 UNK        -0.1800 
      2 C           2.4859  -10.9785  -47.4441 C.2       0 UNK         0.5000 
      3 O           2.5875  -11.1490  -46.2294 O.2       0 UNK        -0.5000 
      4 N           1.3802  -11.2937  -48.1330 N.am      1 UNK        -0.5000 
      5 CA          0.1825  -11.9456  -47.5794 C.3       1 UNK         0.1400 
      6 C6         -0.8257  -12.3462  -48.6823 C.3       23 UNK        -0.0398 
      7 S7         -0.1234  -13.5642  -49.8450 S.3       23 UNK        -0.2404 
      8 C8         -0.7925  -15.1015  -49.1416 C.3       23 UNK        -0.0205 
      9 C9         -0.2758  -16.3257  -49.8794 C.ar      23 UNK        -0.0193 
     10 C10        -0.8938  -16.7498  -51.0592 C.ar      23 UNK        -0.1150 
     11 C11        -0.4253  -17.8786  -51.7377 C.ar      23 UNK        -0.0193 
     12 C12         0.6622  -18.5909  -51.2242 C.ar      23 UNK        -0.1150 
     13 C13         1.2925  -18.1714  -50.0499 C.ar      23 UNK        -0.0193 
     14 C14         0.8175  -17.0396  -49.3805 C.ar      23 UNK        -0.1150 
     15 C15         2.5158  -18.9079  -49.5276 C.3       23 UNK        -0.0205 
     16 S16         2.1692  -19.8363  -48.0045 S.3       23 UNK        -0.2404 
     17 C17         1.3655  -21.3538  -48.6204 C.3       23 UNK        -0.0398 
     18 CA          0.0261  -21.6968  -47.9220 C.3       11 UNK         0.1400 
     19 N           0.1254  -21.7111  -46.4568 N.am      11 UNK        -0.5000 
     20 C          -0.7034  -22.4011  -45.6602 C.2       10 UNK         0.5000 
     21 O          -1.5852  -23.1493  -46.0813 O.2       10 UNK        -0.5000 
     22 CA         -0.5431  -22.2128  -44.1388 C.3       10 UNK         0.1400 
     23 CB          0.5109  -23.1805  -43.5808 C.3       10 UNK        -0.1800 
     24 N          -0.2089  -20.8438  -43.7386 N.am      10 UNK        -0.5000 
     25 C          -0.9792  -19.7699  -43.9627 C.2       9 UNK         0.5000 
     26 O          -2.0457  -19.8158  -44.5710 O.2       9 UNK        -0.5000 
     27 CA         -0.4646  -18.4129  -43.4581 C.3       9 UNK         0.1400 
     28 CB         -0.8711  -18.1719  -41.9975 C.3       9 UNK        -0.1800 
     29 N           0.9868  -18.3150  -43.5970 N.am      9 UNK        -0.5000 
     30 C           1.6006  -17.9536  -44.7323 C.2       8 UNK         0.5000 
     31 O           1.0025  -17.5315  -45.7210 O.2       8 UNK        -0.5000 
     32 CA          3.1341  -18.0905  -44.7790 C.3       8 UNK         0.1400 
     33 CB          3.8121  -16.7308  -44.5516 C.3       8 UNK        -0.1800 
     34 N           3.6481  -19.0698  -43.8174 N.am      8 UNK        -0.5000 
     35 C           3.5428  -20.3988  -43.9737 C.2       7 UNK         0.5000 
     36 O           3.0099  -20.9321  -44.9458 O.2       7 UNK        -0.5000 
     37 CA          4.0796  -21.2888  -42.8355 C.3       7 UNK         0.1400 
     38 CB          5.5617  -21.6193  -43.0650 C.3       7 UNK        -0.1800 
     39 N           3.9167  -20.7087  -41.5012 N.am      7 UNK        -0.5000 
     40 C           2.7457  -20.3769  -40.9418 C.2       6 UNK         0.5000 
     41 O           1.6614  -20.5225  -41.5085 O.2       6 UNK        -0.5000 
     42 CA          2.7795  -19.7282  -39.5402 C.3       6 UNK         0.1400 
     43 CB          4.1826  -19.6950  -38.8929 C.3       6 UNK        -0.1800 
     44 N           2.1987  -18.3799  -39.5470 N.am      6 UNK        -0.5000 
     45 C           2.5543  -17.3633  -40.3442 C.2       5 UNK         0.5000 
     46 O           3.4326  -17.4371  -41.2094 O.2       5 UNK        -0.5000 
     47 CA          1.8061  -16.0390  -40.1457 C.3       5 UNK         0.1400 
     48 CB          2.4616  -15.1957  -39.0381 C.3       5 UNK        -0.1800 
     49 N           1.8431  -15.3225  -41.4135 N.am      5 UNK        -0.5000 
     50 C           1.0244  -14.3404  -41.7957 C.2       4 UNK         0.5000 
     51 O           0.1243  -13.8767  -41.0919 O.2       4 UNK        -0.5000 
     52 CA          1.2268  -13.8157  -43.2294 C.3       4 UNK         0.1400 
     53 CB          0.1484  -14.3868  -44.1615 C.3       4 UNK        -0.1800 
     54 N           1.2044  -12.3551  -43.3011 N.am      4 UNK        -0.5000 
     55 C           2.1063  -11.5458  -42.7253 C.2       3 UNK         0.5000 
     56 O           3.0736  -11.9617  -42.0845 O.2       3 UNK        -0.5000 
     57 CA          1.9099  -10.0259  -42.9023 C.3       3 UNK         0.1400 
     58 CB          3.2513   -9.2833  -43.0425 C.3       3 UNK        -0.1800 
     59 N           1.0918   -9.7286  -44.0773 N.am      3 UNK        -0.5000 
     60 C          -0.0771   -9.0736  -44.0745 C.2       2 UNK         0.5000 
     61 O          -0.6075   -8.6285  -43.0561 O.2       2 UNK        -0.5000 
     62 CA         -0.7826   -8.8774  -45.4347 C.3       2 UNK         0.1400 
     63 CB         -0.5965   -7.4354  -45.9318 C.3       2 UNK        -0.1800 
     64 N          -0.3195   -9.7965  -46.4773 N.am      2 UNK        -0.5000 
     65 C          -0.5206  -11.1216  -46.4776 C.2       1 UNK         0.5000 
     66 O          -1.1931  -11.7022  -45.6257 O.2       1 UNK        -0.5000 
     67 C          -1.1396  -20.8226  -48.4332 C.2       11 UNK         0.5000 
     68 O          -1.6736  -21.1044  -49.5053 O.2       11 UNK        -0.5000 
     69 N          -1.5291  -19.8000  -47.6599 N.am      12 UNK        -0.5000 
     70 CA         -2.6538  -18.9202  -47.9698 C.3       12 UNK         0.1400 
     71 CB         -2.5012  -17.6086  -47.1835 C.3       12 UNK        -0.1800 
     72 C          -4.0027  -19.5899  -47.6509 C.2       12 UNK         0.5000 
     73 O          -4.9409  -19.4731  -48.4409 O.2       12 UNK        -0.5000 
     74 N          -4.0693  -20.2757  -46.4993 N.am      13 UNK        -0.5000 
     75 CA         -5.2330  -20.9748  -45.9522 C.3       13 UNK         0.1400 
     76 CB         -4.8362  -21.6538  -44.6315 C.3       13 UNK        -0.1800 
     77 C          -5.8236  -21.9946  -46.9406 C.2       13 UNK         0.5000 
     78 O          -5.1872  -23.0110  -47.2280 O.2       13 UNK        -0.5000 
     79 N          -7.0028  -21.6623  -47.4875 N.am      14 UNK        -0.5000 
     80 CA         -7.7340  -22.3934  -48.5313 C.3       14 UNK         0.1400 
     81 CB         -8.2966  -23.7142  -47.9645 C.3       14 UNK        -0.1800 
     82 C          -6.9104  -22.6136  -49.8202 C.2       14 UNK         0.5000 
     83 O          -7.1377  -23.5958  -50.5280 O.2       14 UNK        -0.5000 
     84 N          -5.9312  -21.7304  -50.0737 N.am      15 UNK        -0.5000 
     85 CA         -4.9047  -21.8328  -51.1138 C.3       15 UNK         0.1400 
     86 CB         -5.5259  -21.6026  -52.5066 C.3       15 UNK        -0.1800 
     87 C          -4.0952  -23.1447  -51.0253 C.2       15 UNK         0.5000 
     88 O          -3.8338  -23.7725  -52.0526 O.2       15 UNK        -0.5000 
     89 N          -3.7608  -23.5596  -49.7933 N.am      16 UNK        -0.5000 
     90 CA         -3.0905  -24.8143  -49.4361 C.3       16 UNK         0.1400 
     91 CB         -1.6714  -24.8736  -50.0422 C.3       16 UNK        -0.1800 
     92 C          -3.9473  -26.0434  -49.8049 C.2       16 UNK         0.5000 
     93 O          -3.4234  -27.0271  -50.3272 O.2       16 UNK        -0.5000 
     94 N          -5.2647  -25.9373  -49.5713 N.am      17 UNK        -0.5000 
     95 CA         -6.3157  -26.8587  -50.0226 C.3       17 UNK         0.1400 
     96 CB         -6.2018  -28.2255  -49.3160 C.3       17 UNK        -0.1800 
     97 C          -6.3494  -26.9613  -51.5635 C.2       17 UNK         0.5000 
     98 O          -6.3338  -28.0587  -52.1230 O.2       17 UNK        -0.5000 
     99 N          -6.3513  -25.7858  -52.2071 N.am      18 UNK        -0.5000 
    100 CA        -6.3218  -25.5190  -53.6494 C.3       18 UNK         0.1400 
    101 CB        -7.5588  -26.1211  -54.3461 C.3       18 UNK        -0.1800 
    102 C         -5.0111  -25.8998  -54.3739 C.2       18 UNK         0.5000 
    103 O         -4.9309  -25.7042  -55.5875 O.2       18 UNK        -0.5000 
    104 N         -4.0001  -26.4055  -53.6533 N.am      19 UNK        -0.5000 
    105 CA        -2.7215  -26.8397  -54.2198 C.3       19 UNK         0.1400 
    106 CB        -1.9885  -27.7341  -53.2098 C.3       19 UNK        -0.1800 
    107 C         -1.8140  -25.6776  -54.6654 C.2       19 UNK         0.5000 
    108 O         -1.0578  -25.8454  -55.6233 O.2       19 UNK        -0.5000 
    109 N         -1.8945  -24.5288  -53.9787 N.am      20 UNK        -0.5000 
    110 CA        -1.1196  -23.3271  -54.3014 C.3       20 UNK         0.1400 
    111 CB        -0.8529  -22.5262  -53.0173 C.3       20 UNK        -0.1800 
    112 C         -1.8051  -22.4544  -55.3708 C.2       20 UNK         0.5000 
    113 O         -1.1270  -21.6408  -55.9989 O.2       20 UNK        -0.5000 
    114 N         -3.1183  -22.6576  -55.5726 N.am      21 UNK        -0.5000 
    115 CA        -3.9746  -22.0346  -56.5910 C.3       21 UNK         0.1400 
    116 CB        -3.6168  -22.5793  -57.9890 C.3       21 UNK        -0.1800 
    117 C         -3.9816  -20.4905  -56.5275 C.2       21 UNK         0.5000 
    118 O         -3.8342  -19.8198  -57.5509 O.2       21 UNK        -0.5000 
    119 N         -4.1354  -19.9613  -55.3082 N.am      22 UNK        -0.5000 
    120 CA        -4.0628  -18.5268  -54.9775 C.3       22 UNK         0.1400 
    121 C         -5.2350  -17.6530  -55.5147 C.2       22 UNK         0.5000 
    122 N         -6.3329  -18.2268  -55.9912 N.am      22 UNK        -0.7600 
    123 O         -5.1440  -16.4286  -55.4995 O.2       22 UNK        -0.5000 
    124 C124       -3.8728  -18.2907  -53.4541 C.3       23 UNK        -0.0398 
    125 S125       -2.5579  -19.3204  -52.7187 S.3       23 UNK        -0.2404 
    126 C126       -1.0782  -18.3174  -53.0368 C.3       23 UNK        -0.0205 
    127 H127        4.5279  -10.9882  -48.1296 H         1 UNK         0.0600 
    128 H128        3.8743   -9.3754  -47.8242 H         1 UNK         0.0600 
    129 H129        3.4050  -10.2579  -49.2808 H         1 UNK         0.0600 
    130 H130        1.3621  -11.1362  -49.1309 H         1 UNK         0.3000 
    131 H131        0.5259  -12.8626  -47.0983 H         1 UNK         0.0600 
    132 H132       -1.1381  -11.4683  -49.2503 H         1 UNK         0.0800 
    133 H133       -1.7369  -12.7615  -48.2470 H         1 UNK         0.0800 
    134 H134       -0.5222  -15.1579  -48.0858 H         1 UNK         0.0800 
    135 H135       -1.8825  -15.0798  -49.1835 H         1 UNK         0.0800 
    136 H136       -1.7360  -16.1982  -51.4525 H         1 UNK         0.1150 
    137 H137        1.0264  -19.4631  -51.7485 H         1 UNK         0.1150 
    138 H138        1.3018  -16.7161  -48.4692 H         1 UNK         0.1150 
    139 H139        2.9262  -19.5792  -50.2835 H         1 UNK         0.0800 
    140 H140        3.2987  -18.1784  -49.3157 H         1 UNK         0.0800 
    141 H141        2.0676  -22.1732  -48.4615 H         1 UNK         0.0800 
    142 H142        1.2294  -21.2942  -49.7018 H         1 UNK         0.0800 
    143 H143       -0.2150  -22.7154  -48.2278 H         1 UNK         0.0600 
    144 H144        0.8596  -21.1477  -46.0454 H         1 UNK         0.3000 
    145 H145       -1.5023  -22.4574  -43.6778 H         1 UNK         0.0600 
    146 H146        0.6059  -23.0831  -42.4991 H         1 UNK         0.0600 
    147 H147        0.2391  -24.2153  -43.7923 H         1 UNK         0.0600 
    148 H148        1.4915  -23.0042  -44.0223 H         1 UNK         0.0600 
    149 H149        0.6222  -20.7300  -43.1679 H         1 UNK         0.3000 
    150 H150       -0.9427  -17.6396  -44.0628 H         1 UNK         0.0600 
    151 H151       -1.9504  -18.2691  -41.8739 H         1 UNK         0.0600 
    152 H152       -0.6012  -17.1657  -41.6797 H         1 UNK         0.0600 
    153 H153       -0.3994  -18.8808  -41.3173 H         1 UNK         0.0600 
    154 H154        1.5446  -18.6929  -42.8429 H         1 UNK         0.3000 
    155 H155        3.4032  -18.4243  -45.7821 H         1 UNK         0.0600 
    156 H156        3.4692  -15.9982  -45.2836 H         1 UNK         0.0600 
    157 H157        4.8943  -16.8095  -44.6549 H         1 UNK         0.0600 
    158 H158        3.5996  -16.3284  -43.5631 H         1 UNK         0.0600 
    159 H159        4.0375  -18.7024  -42.9573 H         1 UNK         0.3000 
    160 H160        3.5166  -22.2238  -42.8569 H         1 UNK         0.0600 
    161 H161        5.9295  -22.3240  -42.3190 H         1 UNK         0.0600 
    162 H162        6.1850  -20.7253  -43.0202 H         1 UNK         0.0600 
    163 H163        5.7126  -22.0763  -44.0440 H         1 UNK         0.0600 
    164 H164        4.7632  -20.5271  -40.9818 H         1 UNK         0.3000 
    165 H165        2.1371  -20.3429  -38.9081 H         1 UNK         0.0600 
    166 H166        4.8841  -19.0802  -39.4582 H         1 UNK         0.0600 
    167 H167        4.1324  -19.2871  -37.8833 H         1 UNK         0.0600 
    168 H168        4.6043  -20.6975  -38.8087 H         1 UNK         0.0600 
    169 H169        1.4483  -18.2325  -38.8868 H         1 UNK         0.3000 
    170 H170        0.7691  -16.2538  -39.8805 H         1 UNK         0.0600 
    171 H171        2.4628  -15.7299  -38.0873 H         1 UNK         0.0600 
    172 H172        3.4968  -14.9519  -39.2806 H         1 UNK         0.0600 
    173 H173        1.9261  -14.2591  -38.8823 H         1 UNK         0.0600 
    174 H174        2.5564  -15.6689  -42.0422 H         1 UNK         0.3000 
    175 H175        2.2012  -14.1497  -43.5918 H         1 UNK         0.0600 
    176 H176       -0.8374  -13.9782  -43.9364 H         1 UNK         0.0600 
    177 H177        0.3743  -14.1733  -45.2047 H         1 UNK         0.0600 
    178 H178        0.0800  -15.4690  -44.0648 H         1 UNK         0.0600 
    179 H179        0.4251  -11.9387  -43.7916 H         1 UNK         0.3000 
    180 H180        1.4197   -9.6721  -41.9935 H         1 UNK         0.0600 
    181 H181        3.8151   -9.6378  -43.9064 H         1 UNK         0.0600 
    182 H182        3.8758   -9.4230  -42.1593 H         1 UNK         0.0600 
    183 H183        3.0964   -8.2108  -43.1607 H         1 UNK         0.0600 
    184 H184        1.4540  -10.0935  -44.9536 H         1 UNK         0.3000 
    185 H185       -1.8491   -9.0513  -45.2776 H         1 UNK         0.0600 
    186 H186       -0.9612   -6.7175  -45.1959 H         1 UNK         0.0600 
    187 H187        0.4536   -7.2076  -46.1199 H         1 UNK         0.0600 
    188 H188       -1.1498   -7.2610  -46.8548 H         1 UNK         0.0600 
    189 H189        0.2545   -9.4010  -47.2079 H         1 UNK         0.3000 
    190 H190       -1.0581  -19.6463  -46.7802 H         1 UNK         0.3000 
    191 H191       -2.6260  -18.6834  -49.0362 H         1 UNK         0.0600 
    192 H192       -2.6789  -17.7456  -46.1169 H         1 UNK         0.0600 
    193 H193       -1.4992  -17.1969  -47.2954 H         1 UNK         0.0600 
    194 H194       -3.2094  -16.8596  -47.5389 H         1 UNK         0.0600 
    195 H195       -3.2471  -20.2673  -45.9004 H         1 UNK         0.3000 
    196 H196       -5.9907  -20.2218  -45.7275 H         1 UNK         0.0600 
    197 H197       -4.5128  -20.9208  -43.8923 H         1 UNK         0.0600 
    198 H198       -4.0218  -22.3650  -44.7750 H         1 UNK         0.0600 
    199 H199       -5.6778  -22.1987  -44.2023 H         1 UNK         0.0600 
    200 H200       -7.4171  -20.7817  -47.2143 H         1 UNK         0.3000 
    201 H201       -8.5792  -21.7657  -48.8164 H         1 UNK         0.0600 
    202 H202       -8.9493  -24.2064  -48.6865 H         1 UNK         0.0600 
    203 H203       -8.8878  -23.5364  -47.0662 H         1 UNK         0.0600 
    204 H204       -7.5032  -24.4169  -47.7086 H         1 UNK         0.0600 
    205 H205       -5.8033  -20.9589  -49.4243 H         1 UNK         0.3000 
    206 H206       -4.1929  -21.0290  -50.9241 H         1 UNK         0.0600 
    207 H207       -5.9837  -20.6163  -52.5740 H         1 UNK         0.0600 
    208 H208       -6.2938  -22.3393  -52.7376 H         1 UNK         0.0600 
    209 H209       -4.7672  -21.6690  -53.2838 H         1 UNK         0.0600 
    210 H210       -4.0743  -23.0085  -49.0020 H         1 UNK         0.3000 
    211 H211       -2.9919  -24.8096  -48.3495 H         1 UNK         0.0600 
    212 H212       -1.1257  -23.9483  -49.8704 H         1 UNK         0.0600 
    213 H213       -1.0934  -25.6855  -49.6002 H         1 UNK         0.0600 
    214 H214       -1.6954  -25.0404  -51.1185 H         1 UNK         0.0600 
    215 H215       -5.5925  -25.0713  -49.1662 H         1 UNK         0.3000 
    216 H216       -7.2656  -26.4130  -49.7236 H         1 UNK         0.0600 
    217 H217       -7.0507  -28.8629  -49.5660 H         1 UNK         0.0600 
    218 H218       -5.2973  -28.7617  -49.6039 H         1 UNK         0.0600 
    219 H219       -6.1918  -28.1085  -48.2324 H         1 UNK         0.0600 
    220 H220       -6.3988  -24.9509  -51.6273 H         1 UNK         0.3000 
    221 H221       -6.3971  -24.4360  -53.7430 H         1 UNK         0.0600 
    222 H222       -7.5286  -27.2108  -54.3577 H         1 UNK         0.0600 
    223 H223       -8.4793  -25.8147  -53.8493 H         1 UNK         0.0600 
    224 H224       -7.6258  -25.7880  -55.3825 H         1 UNK         0.0600 
    225 H225       -4.1176  -26.5077  -52.6543 H         1 UNK         0.3000 
    226 H226       -2.9368  -27.4451  -55.1030 H         1 UNK         0.0600 
    227 H227       -2.6185  -28.5607  -52.8805 H         1 UNK         0.0600 
    228 H228       -1.0899  -28.1649  -53.6529 H         1 UNK         0.0600 
    229 H229       -1.6790  -27.1749  -52.3271 H         1 UNK         0.0600 
    230 H230       -2.5689  -24.4438  -53.2199 H         1 UNK         0.3000 
    231 H231       -0.1491  -23.6255  -54.7037 H         1 UNK         0.0600 
    232 H232       -0.2433  -21.6460  -53.2247 H         1 UNK         0.0600 
    233 H233       -0.3176  -23.1250  -52.2808 H         1 UNK         0.0600 
    234 H234       -1.7758  -22.1781  -52.5568 H         1 UNK         0.0600 
    235 H235       -3.5596  -23.3669  -55.0050 H         1 UNK         0.3000 
    236 H236       -4.9943  -22.3524  -56.3686 H         1 UNK         0.0600 
    237 H237       -3.6630  -23.6684  -58.0088 H         1 UNK         0.0600 
    238 H238       -4.3134  -22.2120  -58.7434 H         1 UNK         0.0600 
    239 H239       -2.6136  -22.2809  -58.2950 H         1 UNK         0.0600 
    240 H240       -4.2086  -20.5857  -54.5204 H         1 UNK         0.3000 
    241 H241       -3.1671  -18.1464  -55.4722 H         1 UNK         0.0600 
    242 H242       -6.4178  -19.2299  -56.0173 H         1 UNK         0.3800 
    243 H243       -7.0831  -17.6507  -56.3397 H         1 UNK         0.3800 
    244 H244       -3.6590  -17.2405  -53.2476 H         1 UNK         0.0800 
    245 H245       -4.7977  -18.5144  -52.9208 H         1 UNK         0.0800 
    246 H246       -1.3208  -17.4438  -53.6431 H         1 UNK         0.0800 
    247 H247       -0.3800  -18.9092  -53.6309 H         1 UNK         0.0800 
@<TRIPOS>BOND
     1    1    2 1    
     2    1  127 1    
     3    1  128 1    
     4    1  129 1    
     5    2    3 2    
     6    2    4 am   BACKBONE|DICT|INTERRES
     7    4    5 1    
     8    4  130 1    
     9    5    6 1    
    10    5   65 1    
    11    5  131 1    
    12    6    7 1    
    13    6  132 1    
    14    6  133 1    
    15    7    8 1    
    16    8    9 1    
    17    8  134 1    
    18    8  135 1    
    19    9   10 ar   
    20    9   14 ar   
    21   10   11 ar   
    22   10  136 1    
    23   11   12 ar   
    24   11  126 1    
    25   12   13 ar   
    26   12  137 1    
    27   13   14 ar   
    28   13   15 1    
    29   14  138 1    
    30   15   16 1    
    31   15  139 1    
    32   15  140 1    
    33   16   17 1    
    34   17   18 1    
    35   17  141 1    
    36   17  142 1    
    37   18   19 1    
    38   18   67 1    
    39   18  143 1    
    40   19   20 am   BACKBONE|DICT|INTERRES
    41   19  144 1    
    42   20   21 2    
    43   20   22 1    
    44   22   23 1    
    45   22   24 1    
    46   22  145 1    
    47   23  146 1    
    48   23  147 1    
    49   23  148 1    
    50   24   25 am   BACKBONE|DICT|INTERRES
    51   24  149 1    
    52   25   26 2    
    53   25   27 1    
    54   27   28 1    
    55   27   29 1    
    56   27  150 1    
    57   28  151 1    
    58   28  152 1    
    59   28  153 1    
    60   29   30 am   BACKBONE|DICT|INTERRES
    61   29  154 1    
    62   30   31 2    
    63   30   32 1    
    64   32   33 1    
    65   32   34 1    
    66   32  155 1    
    67   33  156 1    
    68   33  157 1    
    69   33  158 1    
    70   34   35 am   BACKBONE|DICT|INTERRES
    71   34  159 1    
    72   35   36 2    
    73   35   37 1    
    74   37   38 1    
    75   37   39 1    
    76   37  160 1    
    77   38  161 1    
    78   38  162 1    
    79   38  163 1    
    80   39   40 am   BACKBONE|DICT|INTERRES
    81   39  164 1    
    82   40   41 2    
    83   40   42 1    
    84   42   43 1    
    85   42   44 1    
    86   42  165 1    
    87   43  166 1    
    88   43  167 1    
    89   43  168 1    
    90   44   45 am   BACKBONE|DICT|INTERRES
    91   44  169 1    
    92   45   46 2    
    93   45   47 1    
    94   47   48 1    
    95   47   49 1    
    96   47  170 1    
    97   48  171 1    
    98   48  172 1    
    99   48  173 1    
   100   49   50 am   BACKBONE|DICT|INTERRES
   101   49  174 1    
   102   50   51 2    
   103   50   52 1    
   104   52   53 1    
   105   52   54 1    
   106   52  175 1    
   107   53  176 1    
   108   53  177 1    
   109   53  178 1    
   110   54   55 am   BACKBONE|DICT|INTERRES
   111   54  179 1    
   112   55   56 2    
   113   55   57 1    
   114   57   58 1    
   115   57   59 1    
   116   57  180 1    
   117   58  181 1    
   118   58  182 1    
   119   58  183 1    
   120   59   60 am   BACKBONE|DICT|INTERRES
   121   59  184 1    
   122   60   61 2    
   123   60   62 1    
   124   62   63 1    
   125   62   64 1    
   126   62  185 1    
   127   63  186 1    
   128   63  187 1    
   129   63  188 1    
   130   64   65 am   BACKBONE|DICT|INTERRES
   131   64  189 1    
   132   65   66 2    
   133   67   68 2    
   134   67   69 am   BACKBONE|DICT|INTERRES
   135   69   70 1    
   136   69  190 1    
   137   70   71 1    
   138   70   72 1    
   139   70  191 1    
   140   71  192 1    
   141   71  193 1    
   142   71  194 1    
   143   72   73 2    
   144   72   74 am   BACKBONE|DICT|INTERRES
   145   74   75 1    
   146   74  195 1    
   147   75   76 1    
   148   75   77 1    
   149   75  196 1    
   150   76  197 1    
   151   76  198 1    
   152   76  199 1    
   153   77   78 2    
   154   77   79 am   BACKBONE|DICT|INTERRES
   155   79   80 1    
   156   79  200 1    
   157   80   81 1    
   158   80   82 1    
   159   80  201 1    
   160   81  202 1    
   161   81  203 1    
   162   81  204 1    
   163   82   83 2    
   164   82   84 am   BACKBONE|DICT|INTERRES
   165   84   85 1    
   166   84  205 1    
   167   85   86 1    
   168   85   87 1    
   169   85  206 1    
   170   86  207 1    
   171   86  208 1    
   172   86  209 1    
   173   87   88 2    
   174   87   89 am   BACKBONE|DICT|INTERRES
   175   89   90 1    
   176   89  210 1    
   177   90   91 1    
   178   90   92 1    
   179   90  211 1    
   180   91  212 1    
   181   91  213 1    
   182   91  214 1    
   183   92   93 2    
   184   92   94 am   BACKBONE|DICT|INTERRES
   185   94   95 1    
   186   94  215 1    
   187   95   96 1    
   188   95   97 1    
   189   95  216 1    
   190   96  217 1    
   191   96  218 1    
   192   96  219 1    
   193   97   98 2    
   194   97   99 am   BACKBONE|DICT|INTERRES
   195   99  100 1    
   196   99  220 1    
   197  100  101 1    
   198  100  102 1    
   199  100  221 1    
   200  101  222 1    
   201  101  223 1    
   202  101  224 1    
   203  102  103 2    
   204  102  104 am   BACKBONE|DICT|INTERRES
   205  104  105 1    
   206  104  225 1    
   207  105  106 1    
   208  105  107 1    
   209  105  226 1    
   210  106  227 1    
   211  106  228 1    
   212  106  229 1    
   213  107  108 2    
   214  107  109 am   BACKBONE|DICT|INTERRES
   215  109  110 1    
   216  109  230 1    
   217  110  111 1    
   218  110  112 1    
   219  110  231 1    
   220  111  232 1    
   221  111  233 1    
   222  111  234 1    
   223  112  113 2    
   224  112  114 am   BACKBONE|DICT|INTERRES
   225  114  115 1    
   226  114  235 1    
   227  115  116 1    
   228  115  117 1    
   229  115  236 1    
   230  116  237 1    
   231  116  238 1    
   232  116  239 1    
   233  117  118 2    
   234  117  119 am   BACKBONE|DICT|INTERRES
   235  119  120 1    
   236  119  240 1    
   237  120  121 1    
   238  120  124 1    
   239  120  241 1    
   240  121  122 am   BACKBONE|DICT|INTERRES
   241  121  123 2    
   242  122  242 1    
   243  122  243 1    
   244  124  125 1    
   245  124  244 1    
   246  124  245 1    
   247  125  126 1    
   248  126  246 1    
   249  126  247 1    
@<TRIPOS>SUBSTRUCTURE
     1 UNK         1 GROUP             0       ****    0 ROOT    
