@<TRIPOS>MOLECULE
3R540
247   249    1
SMALL
USER_CHARGES


@<TRIPOS>ATOM
      1 CA          1.9318  -12.8411  -48.4458 C.3       0 UNK        -0.1800 
      2 C           0.5158  -13.3920  -48.3613 C.2       0 UNK         0.5000 
      3 O          -0.4423  -12.6212  -48.3962 O.2       0 UNK        -0.5000 
      4 N           0.3863  -14.7190  -48.2196 N.am      1 UNK        -0.5000 
      5 CA         -0.8705  -15.4915  -48.1777 C.3       1 UNK         0.1400 
      6 C6         -1.6991  -15.3982  -49.4904 C.3       23 UNK        -0.0398 
      7 S7         -0.7557  -15.9906  -50.9382 S.3       23 UNK        -0.2404 
      8 C8         -1.1508  -17.7630  -50.8677 C.3       23 UNK        -0.0205 
      9 C9          0.0285  -18.6285  -51.2746 C.ar      23 UNK        -0.0193 
     10 C10         0.0271  -19.2988  -52.5004 C.ar      23 UNK        -0.1150 
     11 C11         1.0904  -20.1338  -52.8529 C.ar      23 UNK        -0.0193 
     12 C12         2.1723  -20.2753  -51.9796 C.ar      23 UNK        -0.1150 
     13 C13         2.1920  -19.5981  -50.7568 C.ar      23 UNK        -0.0193 
     14 C14         1.1126  -18.7832  -50.4051 C.ar      23 UNK        -0.1150 
     15 C15         3.3937  -19.7326  -49.8347 C.3       23 UNK        -0.0205 
     16 S16         3.2952  -21.2203  -48.7923 S.3       23 UNK        -0.2404 
     17 C17         2.2536  -20.6480  -47.4087 C.3       23 UNK        -0.0398 
     18 CA          1.1210  -21.6453  -47.0639 C.3       11 UNK         0.1400 
     19 N           0.7518  -21.5892  -45.6470 N.am      11 UNK        -0.5000 
     20 C          -0.0596  -22.4635  -45.0346 C.2       10 UNK         0.5000 
     21 O          -0.5263  -23.4609  -45.5839 O.2       10 UNK        -0.5000 
     22 CA         -0.4648  -22.1380  -43.5848 C.3       10 UNK         0.1400 
     23 CB          0.5992  -22.6308  -42.5936 C.3       10 UNK        -0.1800 
     24 N          -0.7073  -20.7083  -43.3825 N.am      10 UNK        -0.5000 
     25 C          -1.6880  -20.0137  -43.9767 C.2       9 UNK         0.5000 
     26 O          -2.5409  -20.5303  -44.6967 O.2       9 UNK        -0.5000 
     27 CA         -1.6816  -18.4851  -43.7846 C.3       9 UNK         0.1400 
     28 CB         -2.3769  -18.0866  -42.4748 C.3       9 UNK        -0.1800 
     29 N          -0.3265  -17.9337  -43.8093 N.am      9 UNK        -0.5000 
     30 C           0.4501  -17.8889  -44.9005 C.2       8 UNK         0.5000 
     31 O           0.0820  -18.2481  -46.0195 O.2       8 UNK        -0.5000 
     32 CA          1.8973  -17.4085  -44.6964 C.3       8 UNK         0.1400 
     33 CB          1.9852  -15.8789  -44.7574 C.3       8 UNK        -0.1800 
     34 N           2.4593  -17.8780  -43.4293 N.am      8 UNK        -0.5000 
     35 C           2.8154  -19.1502  -43.2004 C.2       7 UNK         0.5000 
     36 O           2.7138  -20.0436  -44.0400 O.2       7 UNK        -0.5000 
     37 CA          3.3293  -19.4947  -41.7894 C.3       7 UNK         0.1400 
     38 CB          4.8377  -19.2260  -41.6856 C.3       7 UNK        -0.1800 
     39 N           2.6358  -18.7653  -40.7272 N.am      7 UNK        -0.5000 
     40 C           1.3220  -18.8439  -40.4737 C.2       6 UNK         0.5000 
     41 O           0.5546  -19.5796  -41.0920 O.2       6 UNK        -0.5000 
     42 CA          0.7579  -17.9226  -39.3757 C.3       6 UNK         0.1400 
     43 CB          0.5950  -18.6978  -38.0599 C.3       6 UNK        -0.1800 
     44 N           1.5567  -16.7178  -39.1277 N.am      6 UNK        -0.5000 
     45 C           1.7927  -15.7507  -40.0237 C.2       5 UNK         0.5000 
     46 O           1.4259  -15.7973  -41.2001 O.2       5 UNK        -0.5000 
     47 CA          2.6234  -14.5605  -39.5337 C.3       5 UNK         0.1400 
     48 CB          4.1038  -14.7397  -39.9143 C.3       5 UNK        -0.1800 
     49 N           2.1000  -13.3343  -40.1263 N.am      5 UNK        -0.5000 
     50 C           2.2195  -12.1114  -39.5898 C.2       4 UNK         0.5000 
     51 O           2.7865  -11.8978  -38.5166 O.2       4 UNK        -0.5000 
     52 CA          1.6335  -10.9338  -40.3934 C.3       4 UNK         0.1400 
     53 CB          2.3224   -9.5898  -40.0886 C.3       4 UNK        -0.1800 
     54 N           1.7224  -11.2186  -41.8221 N.am      4 UNK        -0.5000 
     55 C           0.8039  -10.9055  -42.7403 C.2       3 UNK         0.5000 
     56 O          -0.1887  -10.2113  -42.5120 O.2       3 UNK        -0.5000 
     57 CA          1.0068  -11.4958  -44.1537 C.3       3 UNK         0.1400 
     58 CB          2.3269  -12.2828  -44.3259 C.3       3 UNK        -0.1800 
     59 N          -0.1192  -12.3377  -44.5714 N.am      3 UNK        -0.5000 
     60 C          -0.6878  -13.3468  -43.8871 C.2       2 UNK         0.5000 
     61 O          -0.3657  -13.6936  -42.7516 O.2       2 UNK        -0.5000 
     62 CA         -1.7487  -14.1491  -44.6481 C.3       2 UNK         0.1400 
     63 CB         -3.0581  -13.3439  -44.7703 C.3       2 UNK        -0.1800 
     64 N          -1.1867  -14.4930  -45.9512 N.am      2 UNK        -0.5000 
     65 C          -1.7356  -15.2344  -46.9175 C.2       1 UNK         0.5000 
     66 O          -2.8552  -15.7385  -46.8318 O.2       1 UNK        -0.5000 
     67 C          -0.1094  -21.4714  -47.9795 C.2       11 UNK         0.5000 
     68 O          -0.2630  -22.2306  -48.9344 O.2       11 UNK        -0.5000 
     69 N          -1.0011  -20.5295  -47.6332 N.am      12 UNK        -0.5000 
     70 CA         -2.2857  -20.3265  -48.3058 C.3       12 UNK         0.1400 
     71 CB         -2.9697  -19.0623  -47.7636 C.3       12 UNK        -0.1800 
     72 C          -3.2195  -21.5416  -48.1841 C.2       12 UNK         0.5000 
     73 O          -3.8297  -21.9354  -49.1775 O.2       12 UNK        -0.5000 
     74 N          -3.2947  -22.1329  -46.9840 N.am      13 UNK        -0.5000 
     75 CA         -4.0593  -23.3496  -46.7103 C.3       13 UNK         0.1400 
     76 CB         -4.0502  -23.6488  -45.2043 C.3       13 UNK        -0.1800 
     77 C          -3.5578  -24.5575  -47.5239 C.2       13 UNK         0.5000 
     78 O          -4.3733  -25.2820  -48.0971 O.2       13 UNK        -0.5000 
     79 N          -2.2285  -24.7159  -47.6031 N.am      14 UNK        -0.5000 
     80 CA         -1.5550  -25.7143  -48.4350 C.3       14 UNK         0.1400 
     81 CB         -0.0535  -25.7265  -48.1116 C.3       14 UNK        -0.1800 
     82 C          -1.7921  -25.4940  -49.9416 C.2       14 UNK         0.5000 
     83 O          -1.9903  -26.4655  -50.6725 O.2       14 UNK        -0.5000 
     84 N          -1.8293  -24.2266  -50.3747 N.am      15 UNK        -0.5000 
     85 CA         -2.1401  -23.7805  -51.7352 C.3       15 UNK         0.1400 
     86 CB         -1.5566  -22.3741  -51.9409 C.3       15 UNK        -0.1800 
     87 C          -3.6491  -23.8490  -52.0653 C.2       15 UNK         0.5000 
     88 O          -4.2192  -22.8792  -52.5751 O.2       15 UNK        -0.5000 
     89 N          -4.2455  -25.0171  -51.7935 N.am      16 UNK        -0.5000 
     90 CA         -5.6283  -25.4179  -52.0485 C.3       16 UNK         0.1400 
     91 CB         -5.9021  -25.4899  -53.5641 C.3       16 UNK        -0.1800 
     92 C          -6.6605  -24.5676  -51.2838 C.2       16 UNK         0.5000 
     93 O          -7.5769  -24.0160  -51.8931 O.2       16 UNK        -0.5000 
     94 N          -6.5067  -24.4989  -49.9531 N.am      17 UNK        -0.5000 
     95 CA         -7.4522  -23.9047  -48.9990 C.3       17 UNK         0.1400 
     96 CB         -8.7423  -24.7487  -48.9251 C.3       17 UNK        -0.1800 
     97 C          -7.7247  -22.4083  -49.2598 C.2       17 UNK         0.5000 
     98 O          -8.8803  -21.9817  -49.2940 O.2       17 UNK        -0.5000 
     99 N          -6.6397  -21.6462  -49.4501 N.am      18 UNK        -0.5000 
    100 CA        -6.5959  -20.2054  -49.7152 C.3       18 UNK         0.1400 
    101 CB        -7.2284  -19.3934  -48.5658 C.3       18 UNK        -0.1800 
    102 C         -7.1149  -19.7994  -51.1092 C.2       18 UNK         0.5000 
    103 O         -7.3837  -18.6180  -51.3325 O.2       18 UNK        -0.5000 
    104 N         -7.1863  -20.7564  -52.0473 N.am      19 UNK        -0.5000 
    105 CA        -7.4146  -20.4882  -53.4710 C.3       19 UNK         0.1400 
    106 CB        -7.8302  -21.7840  -54.1800 C.3       19 UNK        -0.1800 
    107 C         -6.1775  -19.8764  -54.1601 C.2       19 UNK         0.5000 
    108 O         -6.3254  -19.2494  -55.2094 O.2       19 UNK        -0.5000 
    109 N         -4.9961  -20.0657  -53.5502 N.am      20 UNK        -0.5000 
    110 CA        -3.6780  -19.5974  -53.9784 C.3       20 UNK         0.1400 
    111 CB        -3.6121  -18.0562  -54.0216 C.3       20 UNK        -0.1800 
    112 C         -3.2451  -20.2701  -55.2927 C.2       20 UNK         0.5000 
    113 O         -2.9587  -19.5918  -56.2833 O.2       20 UNK        -0.5000 
    114 N         -3.2212  -21.6104  -55.2669 N.am      21 UNK        -0.5000 
    115 CA        -2.9080  -22.5213  -56.3753 C.3       21 UNK         0.1400 
    116 CB        -3.3306  -23.9434  -55.9673 C.3       21 UNK        -0.1800 
    117 C         -1.4500  -22.4632  -56.8988 C.2       21 UNK         0.5000 
    118 O         -0.8150  -23.5007  -57.0957 O.2       21 UNK        -0.5000 
    119 N         -0.9561  -21.2501  -57.1452 N.am      22 UNK        -0.5000 
    120 CA         0.3002  -20.9338  -57.8351 C.3       22 UNK         0.1400 
    121 C          0.2504  -19.5907  -58.6225 C.2       22 UNK         0.5000 
    122 N         -0.8329  -18.8196  -58.5809 N.am      22 UNK        -0.7600 
    123 O          1.2066  -19.2502  -59.3139 O.2       22 UNK        -0.5000 
    124 C124        1.5493  -21.0660  -56.9226 C.3       23 UNK        -0.0398 
    125 S125        1.6130  -19.8619  -55.5488 S.3       23 UNK        -0.2404 
    126 C126        1.0598  -20.8986  -54.1658 C.3       23 UNK        -0.0205 
    127 H127        2.6775  -13.6009  -48.2104 H         1 UNK         0.0600 
    128 H128        2.0573  -12.0147  -47.7464 H         1 UNK         0.0600 
    129 H129        2.1279  -12.4692  -49.4514 H         1 UNK         0.0600 
    130 H130        1.2248  -15.2822  -48.2077 H         1 UNK         0.3000 
    131 H131       -0.5525  -16.5296  -48.0746 H         1 UNK         0.0600 
    132 H132       -2.6213  -15.9779  -49.4199 H         1 UNK         0.0800 
    133 H133       -2.0107  -14.3699  -49.6770 H         1 UNK         0.0800 
    134 H134       -1.4263  -18.0294  -49.8512 H         1 UNK         0.0800 
    135 H135       -2.0243  -17.9666  -51.4873 H         1 UNK         0.0800 
    136 H136       -0.8016  -19.1793  -53.1810 H         1 UNK         0.1150 
    137 H137        3.0015  -20.9136  -52.2508 H         1 UNK         0.1150 
    138 H138        1.1158  -18.2609  -49.4590 H         1 UNK         0.1150 
    139 H139        4.3021  -19.7912  -50.4362 H         1 UNK         0.0800 
    140 H140        3.5061  -18.8442  -49.2113 H         1 UNK         0.0800 
    141 H141        1.8619  -19.6478  -47.5978 H         1 UNK         0.0800 
    142 H142        2.9288  -20.5419  -46.5601 H         1 UNK         0.0800 
    143 H143        1.5007  -22.6561  -47.2296 H         1 UNK         0.0600 
    144 H144        1.1516  -20.8340  -45.1012 H         1 UNK         0.3000 
    145 H145       -1.3958  -22.6671  -43.3721 H         1 UNK         0.0600 
    146 H146        0.2950  -22.4440  -41.5635 H         1 UNK         0.0600 
    147 H147        0.7596  -23.7047  -42.6967 H         1 UNK         0.0600 
    148 H148        1.5586  -22.1395  -42.7530 H         1 UNK         0.0600 
    149 H149       -0.0933  -20.2279  -42.7299 H         1 UNK         0.3000 
    150 H150       -2.2409  -18.0431  -44.6124 H         1 UNK         0.0600 
    151 H151       -3.4073  -18.4438  -42.4589 H         1 UNK         0.0600 
    152 H152       -2.4063  -17.0033  -42.3572 H         1 UNK         0.0600 
    153 H153       -1.8726  -18.5049  -41.6036 H         1 UNK         0.0600 
    154 H154        0.0637  -17.6364  -42.9263 H         1 UNK         0.3000 
    155 H155        2.4988  -17.8130  -45.5136 H         1 UNK         0.0600 
    156 H156        1.4253  -15.4174  -43.9448 H         1 UNK         0.0600 
    157 H157        3.0189  -15.5408  -44.6839 H         1 UNK         0.0600 
    158 H158        1.5859  -15.4988  -45.6969 H         1 UNK         0.0600 
    159 H159        2.5114  -17.2061  -42.6741 H         1 UNK         0.3000 
    160 H160        3.1595  -20.5608  -41.6266 H         1 UNK         0.0600 
    161 H161        5.0679  -18.1666  -41.8061 H         1 UNK         0.0600 
    162 H162        5.3852  -19.7711  -42.4558 H         1 UNK         0.0600 
    163 H163        5.2304  -19.5477  -40.7208 H         1 UNK         0.0600 
    164 H164        3.1917  -18.1357  -40.1683 H         1 UNK         0.3000 
    165 H165       -0.2315  -17.5993  -39.7058 H         1 UNK         0.0600 
    166 H166        0.1054  -18.0884  -37.3000 H         1 UNK         0.0600 
    167 H167       -0.0186  -19.5883  -38.2040 H         1 UNK         0.0600 
    168 H168        1.5574  -19.0232  -37.6628 H         1 UNK         0.0600 
    169 H169        1.9156  -16.6099  -38.1897 H         1 UNK         0.3000 
    170 H170        2.5353  -14.5022  -38.4465 H         1 UNK         0.0600 
    171 H171        4.2366  -14.7872  -40.9961 H         1 UNK         0.0600 
    172 H172        4.7118  -13.9165  -39.5390 H         1 UNK         0.0600 
    173 H173        4.5092  -15.6598  -39.4917 H         1 UNK         0.0600 
    174 H174        1.5532  -13.4699  -40.9698 H         1 UNK         0.3000 
    175 H175        0.5842  -10.8594  -40.1006 H         1 UNK         0.0600 
    176 H176        1.8741   -8.7782  -40.6618 H         1 UNK         0.0600 
    177 H177        3.3857   -9.6223  -40.3286 H         1 UNK         0.0600 
    178 H178        2.2285   -9.3289  -39.0338 H         1 UNK         0.0600 
    179 H179        2.5043  -11.7945  -42.1017 H         1 UNK         0.3000 
    180 H180        1.0337  -10.6472  -44.8388 H         1 UNK         0.0600 
    181 H181        2.3834  -13.1416  -43.6562 H         1 UNK         0.0600 
    182 H182        3.1935  -11.6489  -44.1342 H         1 UNK         0.0600 
    183 H183        2.4285  -12.6573  -45.3441 H         1 UNK         0.0600 
    184 H184       -0.5205  -12.0975  -45.4674 H         1 UNK         0.3000 
    185 H185       -1.9418  -15.0730  -44.0992 H         1 UNK         0.0600 
    186 H186       -3.3909  -12.9914  -43.7932 H         1 UNK         0.0600 
    187 H187       -2.9377  -12.4705  -45.4121 H         1 UNK         0.0600 
    188 H188       -3.8654  -13.9501  -45.1801 H         1 UNK         0.0600 
    189 H189       -0.2536  -14.1436  -46.1166 H         1 UNK         0.3000 
    190 H190       -0.7901  -19.9185  -46.8518 H         1 UNK         0.3000 
    191 H191       -2.0768  -20.1801  -49.3662 H         1 UNK         0.0600 
    192 H192       -2.2749  -18.2269  -47.7097 H         1 UNK         0.0600 
    193 H193       -3.7965  -18.7602  -48.4066 H         1 UNK         0.0600 
    194 H194       -3.3761  -19.2098  -46.7638 H         1 UNK         0.0600 
    195 H195       -2.8143  -21.7033  -46.1982 H         1 UNK         0.3000 
    196 H196       -5.0907  -23.1524  -47.0032 H         1 UNK         0.0600 
    197 H197       -4.6748  -24.5133  -44.9765 H         1 UNK         0.0600 
    198 H198       -4.4387  -22.8060  -44.6323 H         1 UNK         0.0600 
    199 H199       -3.0470  -23.8660  -44.8395 H         1 UNK         0.0600 
    200 H200       -1.6316  -24.0993  -47.0588 H         1 UNK         0.3000 
    201 H201       -1.9652  -26.6924  -48.1757 H         1 UNK         0.0600 
    202 H202        0.1207  -25.9435  -47.0576 H         1 UNK         0.0600 
    203 H203        0.4162  -24.7690  -48.3368 H         1 UNK         0.0600 
    204 H204        0.4645  -26.4908  -48.6921 H         1 UNK         0.0600 
    205 H205       -1.6130  -23.4897  -49.7108 H         1 UNK         0.3000 
    206 H206       -1.6344  -24.4479  -52.4356 H         1 UNK         0.0600 
    207 H207       -0.4906  -22.3536  -51.7142 H         1 UNK         0.0600 
    208 H208       -1.6726  -22.0516  -52.9737 H         1 UNK         0.0600 
    209 H209       -2.0467  -21.6367  -51.3056 H         1 UNK         0.0600 
    210 H210       -3.6563  -25.7297  -51.3735 H         1 UNK         0.3000 
    211 H211       -5.7249  -26.4312  -51.6563 H         1 UNK         0.0600 
    212 H212       -5.8604  -24.5056  -54.0268 H         1 UNK         0.0600 
    213 H213       -6.8922  -25.9014  -53.7631 H         1 UNK         0.0600 
    214 H214       -5.1768  -26.1288  -54.0678 H         1 UNK         0.0600 
    215 H215       -5.6905  -24.9345  -49.5322 H         1 UNK         0.3000 
    216 H216       -6.9798  -23.9629  -48.0191 H         1 UNK         0.0600 
    217 H217       -9.4027  -24.3850  -48.1370 H         1 UNK         0.0600 
    218 H218       -8.5180  -25.7919  -48.7024 H         1 UNK         0.0600 
    219 H219       -9.3023  -24.7183  -49.8603 H         1 UNK         0.0600 
    220 H220       -5.7237  -22.0883  -49.4275 H         1 UNK         0.3000 
    221 H221       -5.5367  -19.9491  -49.7318 H         1 UNK         0.0600 
    222 H222       -8.3109  -19.5152  -48.5276 H         1 UNK         0.0600 
    223 H223       -6.8200  -19.6937  -47.6007 H         1 UNK         0.0600 
    224 H224       -7.0263  -18.3282  -48.6828 H         1 UNK         0.0600 
    225 H225       -6.9938  -21.7164  -51.7899 H         1 UNK         0.3000 
    226 H226       -8.2350  -19.7734  -53.5633 H         1 UNK         0.0600 
    227 H227       -8.7156  -22.2219  -53.7189 H         1 UNK         0.0600 
    228 H228       -8.0666  -21.5981  -55.2283 H         1 UNK         0.0600 
    229 H229       -7.0322  -22.5250  -54.1512 H         1 UNK         0.0600 
    230 H230       -4.9934  -20.6816  -52.7472 H         1 UNK         0.3000 
    231 H231       -2.9814  -19.9324  -53.2101 H         1 UNK         0.0600 
    232 H232       -4.2427  -17.6408  -54.8080 H         1 UNK         0.0600 
    233 H233       -2.5934  -17.7159  -54.2110 H         1 UNK         0.0600 
    234 H234       -3.9307  -17.6206  -53.0747 H         1 UNK         0.0600 
    235 H235       -3.5127  -22.0598  -54.4059 H         1 UNK         0.3000 
    236 H236       -3.5377  -22.2279  -57.2175 H         1 UNK         0.0600 
    237 H237       -4.3917  -23.9776  -55.7254 H         1 UNK         0.0600 
    238 H238       -3.1678  -24.6553  -56.7774 H         1 UNK         0.0600 
    239 H239       -2.7728  -24.2961  -55.0992 H         1 UNK         0.0600 
    240 H240       -1.5501  -20.4585  -56.9138 H         1 UNK         0.3000 
    241 H241        0.4108  -21.6833  -58.6211 H         1 UNK         0.0600 
    242 H242       -1.6408  -19.0504  -58.0207 H         1 UNK         0.3800 
    243 H243       -0.8354  -17.9627  -59.1117 H         1 UNK         0.3800 
    244 H244        1.6076  -22.0791  -56.5230 H         1 UNK         0.0800 
    245 H245        2.4564  -20.9420  -57.5161 H         1 UNK         0.0800 
    246 H246        0.0488  -21.2522  -54.3676 H         1 UNK         0.0800 
    247 H247        1.6904  -21.7864  -54.0978 H         1 UNK         0.0800 
@<TRIPOS>BOND
     1    1    2 1    
     2    1  127 1    
     3    1  128 1    
     4    1  129 1    
     5    2    3 2    
     6    2    4 am   BACKBONE|DICT|INTERRES
     7    4    5 1    
     8    4  130 1    
     9    5    6 1    
    10    5   65 1    
    11    5  131 1    
    12    6    7 1    
    13    6  132 1    
    14    6  133 1    
    15    7    8 1    
    16    8    9 1    
    17    8  134 1    
    18    8  135 1    
    19    9   10 ar   
    20    9   14 ar   
    21   10   11 ar   
    22   10  136 1    
    23   11   12 ar   
    24   11  126 1    
    25   12   13 ar   
    26   12  137 1    
    27   13   14 ar   
    28   13   15 1    
    29   14  138 1    
    30   15   16 1    
    31   15  139 1    
    32   15  140 1    
    33   16   17 1    
    34   17   18 1    
    35   17  141 1    
    36   17  142 1    
    37   18   19 1    
    38   18   67 1    
    39   18  143 1    
    40   19   20 am   BACKBONE|DICT|INTERRES
    41   19  144 1    
    42   20   21 2    
    43   20   22 1    
    44   22   23 1    
    45   22   24 1    
    46   22  145 1    
    47   23  146 1    
    48   23  147 1    
    49   23  148 1    
    50   24   25 am   BACKBONE|DICT|INTERRES
    51   24  149 1    
    52   25   26 2    
    53   25   27 1    
    54   27   28 1    
    55   27   29 1    
    56   27  150 1    
    57   28  151 1    
    58   28  152 1    
    59   28  153 1    
    60   29   30 am   BACKBONE|DICT|INTERRES
    61   29  154 1    
    62   30   31 2    
    63   30   32 1    
    64   32   33 1    
    65   32   34 1    
    66   32  155 1    
    67   33  156 1    
    68   33  157 1    
    69   33  158 1    
    70   34   35 am   BACKBONE|DICT|INTERRES
    71   34  159 1    
    72   35   36 2    
    73   35   37 1    
    74   37   38 1    
    75   37   39 1    
    76   37  160 1    
    77   38  161 1    
    78   38  162 1    
    79   38  163 1    
    80   39   40 am   BACKBONE|DICT|INTERRES
    81   39  164 1    
    82   40   41 2    
    83   40   42 1    
    84   42   43 1    
    85   42   44 1    
    86   42  165 1    
    87   43  166 1    
    88   43  167 1    
    89   43  168 1    
    90   44   45 am   BACKBONE|DICT|INTERRES
    91   44  169 1    
    92   45   46 2    
    93   45   47 1    
    94   47   48 1    
    95   47   49 1    
    96   47  170 1    
    97   48  171 1    
    98   48  172 1    
    99   48  173 1    
   100   49   50 am   BACKBONE|DICT|INTERRES
   101   49  174 1    
   102   50   51 2    
   103   50   52 1    
   104   52   53 1    
   105   52   54 1    
   106   52  175 1    
   107   53  176 1    
   108   53  177 1    
   109   53  178 1    
   110   54   55 am   BACKBONE|DICT|INTERRES
   111   54  179 1    
   112   55   56 2    
   113   55   57 1    
   114   57   58 1    
   115   57   59 1    
   116   57  180 1    
   117   58  181 1    
   118   58  182 1    
   119   58  183 1    
   120   59   60 am   BACKBONE|DICT|INTERRES
   121   59  184 1    
   122   60   61 2    
   123   60   62 1    
   124   62   63 1    
   125   62   64 1    
   126   62  185 1    
   127   63  186 1    
   128   63  187 1    
   129   63  188 1    
   130   64   65 am   BACKBONE|DICT|INTERRES
   131   64  189 1    
   132   65   66 2    
   133   67   68 2    
   134   67   69 am   BACKBONE|DICT|INTERRES
   135   69   70 1    
   136   69  190 1    
   137   70   71 1    
   138   70   72 1    
   139   70  191 1    
   140   71  192 1    
   141   71  193 1    
   142   71  194 1    
   143   72   73 2    
   144   72   74 am   BACKBONE|DICT|INTERRES
   145   74   75 1    
   146   74  195 1    
   147   75   76 1    
   148   75   77 1    
   149   75  196 1    
   150   76  197 1    
   151   76  198 1    
   152   76  199 1    
   153   77   78 2    
   154   77   79 am   BACKBONE|DICT|INTERRES
   155   79   80 1    
   156   79  200 1    
   157   80   81 1    
   158   80   82 1    
   159   80  201 1    
   160   81  202 1    
   161   81  203 1    
   162   81  204 1    
   163   82   83 2    
   164   82   84 am   BACKBONE|DICT|INTERRES
   165   84   85 1    
   166   84  205 1    
   167   85   86 1    
   168   85   87 1    
   169   85  206 1    
   170   86  207 1    
   171   86  208 1    
   172   86  209 1    
   173   87   88 2    
   174   87   89 am   BACKBONE|DICT|INTERRES
   175   89   90 1    
   176   89  210 1    
   177   90   91 1    
   178   90   92 1    
   179   90  211 1    
   180   91  212 1    
   181   91  213 1    
   182   91  214 1    
   183   92   93 2    
   184   92   94 am   BACKBONE|DICT|INTERRES
   185   94   95 1    
   186   94  215 1    
   187   95   96 1    
   188   95   97 1    
   189   95  216 1    
   190   96  217 1    
   191   96  218 1    
   192   96  219 1    
   193   97   98 2    
   194   97   99 am   BACKBONE|DICT|INTERRES
   195   99  100 1    
   196   99  220 1    
   197  100  101 1    
   198  100  102 1    
   199  100  221 1    
   200  101  222 1    
   201  101  223 1    
   202  101  224 1    
   203  102  103 2    
   204  102  104 am   BACKBONE|DICT|INTERRES
   205  104  105 1    
   206  104  225 1    
   207  105  106 1    
   208  105  107 1    
   209  105  226 1    
   210  106  227 1    
   211  106  228 1    
   212  106  229 1    
   213  107  108 2    
   214  107  109 am   BACKBONE|DICT|INTERRES
   215  109  110 1    
   216  109  230 1    
   217  110  111 1    
   218  110  112 1    
   219  110  231 1    
   220  111  232 1    
   221  111  233 1    
   222  111  234 1    
   223  112  113 2    
   224  112  114 am   BACKBONE|DICT|INTERRES
   225  114  115 1    
   226  114  235 1    
   227  115  116 1    
   228  115  117 1    
   229  115  236 1    
   230  116  237 1    
   231  116  238 1    
   232  116  239 1    
   233  117  118 2    
   234  117  119 am   BACKBONE|DICT|INTERRES
   235  119  120 1    
   236  119  240 1    
   237  120  121 1    
   238  120  124 1    
   239  120  241 1    
   240  121  122 am   BACKBONE|DICT|INTERRES
   241  121  123 2    
   242  122  242 1    
   243  122  243 1    
   244  124  125 1    
   245  124  244 1    
   246  124  245 1    
   247  125  126 1    
   248  126  246 1    
   249  126  247 1    
@<TRIPOS>SUBSTRUCTURE
     1 UNK         1 GROUP             0       ****    0 ROOT    
