@<TRIPOS>MOLECULE
3R540
247   249    1
SMALL
USER_CHARGES


@<TRIPOS>ATOM
      1 CA          7.5550  -14.2986  -50.6519 C.3       0 UNK        -0.1800 
      2 C           6.6985  -14.2077  -49.3973 C.2       0 UNK         0.5000 
      3 O           6.9252  -14.9522  -48.4425 O.2       0 UNK        -0.5000 
      4 N           5.7225  -13.2915  -49.3849 N.am      1 UNK        -0.5000 
      5 CA          4.7768  -13.0563  -48.2863 C.3       1 UNK         0.1400 
      6 C6          3.4497  -12.4346  -48.7932 C.3       23 UNK        -0.0398 
      7 S7          2.5135  -13.6165  -49.8205 S.3       23 UNK        -0.2404 
      8 C8          1.3807  -14.2885  -48.5673 C.3       23 UNK        -0.0205 
      9 C9          0.8530  -15.6577  -48.9548 C.ar      23 UNK        -0.0193 
     10 C10        -0.4203  -15.7978  -49.5139 C.ar      23 UNK        -0.1150 
     11 C11        -0.9150  -17.0646  -49.8396 C.ar      23 UNK        -0.0193 
     12 C12        -0.1265  -18.1934  -49.5966 C.ar      23 UNK        -0.1150 
     13 C13         1.1539  -18.0631  -49.0502 C.ar      23 UNK        -0.0193 
     14 C14         1.6373  -16.7922  -48.7311 C.ar      23 UNK        -0.1150 
     15 C15         2.0176  -19.2937  -48.8122 C.3       23 UNK        -0.0205 
     16 S16         2.3178  -19.6185  -47.0425 S.3       23 UNK        -0.2404 
     17 C17         0.6256  -19.7677  -46.3771 C.3       23 UNK        -0.0398 
     18 CA          0.1226  -21.2261  -46.2744 C.3       11 UNK         0.1400 
     19 N          -1.0138  -21.3237  -45.3592 N.am      11 UNK        -0.5000 
     20 C          -1.5999  -22.4598  -44.9609 C.2       10 UNK         0.5000 
     21 O          -1.2002  -23.5827  -45.2643 O.2       10 UNK        -0.5000 
     22 CA         -2.8801  -22.3086  -44.1227 C.3       10 UNK         0.1400 
     23 CB         -2.5429  -22.0935  -42.6402 C.3       10 UNK        -0.1800 
     24 N          -3.7156  -21.2073  -44.6034 N.am      10 UNK        -0.5000 
     25 C          -4.3888  -21.2233  -45.7622 C.2       9 UNK         0.5000 
     26 O          -4.4053  -22.1850  -46.5304 O.2       9 UNK        -0.5000 
     27 CA         -5.1326  -19.9309  -46.1434 C.3       9 UNK         0.1400 
     28 CB         -6.4769  -19.8351  -45.4066 C.3       9 UNK        -0.1800 
     29 N          -4.3462  -18.7245  -45.8804 N.am      9 UNK        -0.5000 
     30 C          -3.2203  -18.4059  -46.5335 C.2       8 UNK         0.5000 
     31 O          -2.7294  -19.0982  -47.4226 O.2       8 UNK        -0.5000 
     32 CA         -2.4989  -17.1187  -46.0952 C.3       8 UNK         0.1400 
     33 CB         -3.1230  -15.9019  -46.7945 C.3       8 UNK        -0.1800 
     34 N          -2.4841  -16.8928  -44.6458 N.am      8 UNK        -0.5000 
     35 C          -2.0332  -17.7570  -43.7223 C.2       7 UNK         0.5000 
     36 O          -1.6714  -18.9051  -43.9832 O.2       7 UNK        -0.5000 
     37 CA         -1.9684  -17.2428  -42.2736 C.3       7 UNK         0.1400 
     38 CB         -1.0552  -18.0954  -41.3736 C.3       7 UNK        -0.1800 
     39 N          -1.4994  -15.8602  -42.2617 N.am      7 UNK        -0.5000 
     40 C          -2.0054  -14.8716  -41.5129 C.2       6 UNK         0.5000 
     41 O          -2.9314  -15.0276  -40.7160 O.2       6 UNK        -0.5000 
     42 CA         -1.3841  -13.4672  -41.6752 C.3       6 UNK         0.1400 
     43 CB         -0.4759  -13.1422  -40.4794 C.3       6 UNK        -0.1800 
     44 N          -0.6132  -13.3031  -42.9094 N.am      6 UNK        -0.5000 
     45 C          -1.1350  -13.2956  -44.1454 C.2       5 UNK         0.5000 
     46 O          -2.3430  -13.3585  -44.3729 O.2       5 UNK        -0.5000 
     47 CA         -0.1454  -13.2571  -45.3282 C.3       5 UNK         0.1400 
     48 CB         -0.0121  -11.8247  -45.8663 C.3       5 UNK        -0.1800 
     49 N           1.1888  -13.7675  -45.0053 N.am      5 UNK        -0.5000 
     50 C           1.4751  -15.0058  -44.5750 C.2       4 UNK         0.5000 
     51 O           0.6316  -15.8897  -44.4336 O.2       4 UNK        -0.5000 
     52 CA          2.9410  -15.2893  -44.1926 C.3       4 UNK         0.1400 
     53 CB          3.6377  -16.0854  -45.3060 C.3       4 UNK        -0.1800 
     54 N           3.7267  -14.0843  -43.9020 N.am      4 UNK        -0.5000 
     55 C           3.4972  -13.2169  -42.9044 C.2       3 UNK         0.5000 
     56 O           2.5529  -13.3301  -42.1218 O.2       3 UNK        -0.5000 
     57 CA          4.4215  -11.9845  -42.7937 C.3       3 UNK         0.1400 
     58 CB          5.0982  -11.8997  -41.4108 C.3       3 UNK        -0.1800 
     59 N           5.3959  -11.8465  -43.8879 N.am      3 UNK        -0.5000 
     60 C           6.4909  -12.5794  -44.1345 C.2       2 UNK         0.5000 
     61 O           6.8568  -13.5287  -43.4408 O.2       2 UNK        -0.5000 
     62 CA          7.2446  -12.2336  -45.4334 C.3       2 UNK         0.1400 
     63 CB          8.6795  -12.7890  -45.4503 C.3       2 UNK        -0.1800 
     64 N           6.5238  -12.7647  -46.5892 N.am      2 UNK        -0.5000 
     65 C           5.4212  -12.2431  -47.1400 C.2       1 UNK         0.5000 
     66 O           4.9176  -11.1836  -46.7619 O.2       1 UNK        -0.5000 
     67 C          -0.2153  -21.8283  -47.6555 C.2       11 UNK         0.5000 
     68 O           0.5488  -22.6492  -48.1624 O.2       11 UNK        -0.5000 
     69 N          -1.3759  -21.4544  -48.2144 N.am      12 UNK        -0.5000 
     70 CA         -1.9178  -22.0058  -49.4556 C.3       12 UNK         0.1400 
     71 CB         -3.1839  -21.2390  -49.8616 C.3       12 UNK        -0.1800 
     72 C          -2.1893  -23.5161  -49.3658 C.2       12 UNK         0.5000 
     73 O          -1.7980  -24.2454  -50.2752 O.2       12 UNK        -0.5000 
     74 N          -2.7964  -23.9667  -48.2583 N.am      13 UNK        -0.5000 
     75 CA         -3.0414  -25.3825  -47.9749 C.3       13 UNK         0.1400 
     76 CB         -3.8684  -25.5235  -46.6884 C.3       13 UNK        -0.1800 
     77 C          -1.7434  -26.2088  -47.8852 C.2       13 UNK         0.5000 
     78 O          -1.6744  -27.2901  -48.4696 O.2       13 UNK        -0.5000 
     79 N          -0.7223  -25.6674  -47.2048 N.am      14 UNK        -0.5000 
     80 CA          0.6178  -26.2524  -47.1001 C.3       14 UNK         0.1400 
     81 CB          1.4405  -25.4680  -46.0670 C.3       14 UNK        -0.1800 
     82 C           1.3570  -26.3178  -48.4515 C.2       14 UNK         0.5000 
     83 O           2.0843  -27.2796  -48.7008 O.2       14 UNK        -0.5000 
     84 N           1.1256  -25.3186  -49.3130 N.am      15 UNK        -0.5000 
     85 CA          1.6158  -25.2548  -50.6921 C.3       15 UNK         0.1400 
     86 CB          1.6051  -23.7869  -51.1514 C.3       15 UNK        -0.1800 
     87 C           0.8214  -26.1442  -51.6757 C.2       15 UNK         0.5000 
     88 O           1.1950  -26.2157  -52.8472 O.2       15 UNK        -0.5000 
     89 N          -0.2504  -26.7944  -51.1962 N.am      16 UNK        -0.5000 
     90 CA         -1.1883  -27.6529  -51.9275 C.3       16 UNK         0.1400 
     91 CB         -0.4764  -28.8879  -52.5193 C.3       16 UNK        -0.1800 
     92 C          -2.0485  -26.8921  -52.9598 C.2       16 UNK         0.5000 
     93 O          -2.5035  -27.4863  -53.9395 O.2       16 UNK        -0.5000 
     94 N          -2.2837  -25.5999  -52.7077 N.am      17 UNK        -0.5000 
     95 CA         -3.2387  -24.7602  -53.4233 C.3       17 UNK         0.1400 
     96 CB         -2.6670  -23.3348  -53.5112 C.3       17 UNK        -0.1800 
     97 C          -4.5908  -24.7653  -52.6860 C.2       17 UNK         0.5000 
     98 O          -4.6832  -25.2382  -51.5494 O.2       17 UNK        -0.5000 
     99 N          -5.6251  -24.2260  -53.3417 N.am      18 UNK        -0.5000 
    100 CA        -6.9497  -24.0251  -52.7573 C.3       18 UNK         0.1400 
    101 CB        -7.9486  -23.6832  -53.8732 C.3       18 UNK        -0.1800 
    102 C         -6.8982  -22.9119  -51.6973 C.2       18 UNK         0.5000 
    103 O         -6.6309  -21.7603  -52.0436 O.2       18 UNK        -0.5000 
    104 N         -7.1481  -23.2690  -50.4315 N.am      19 UNK        -0.5000 
    105 CA        -7.0126  -22.3954  -49.2601 C.3       19 UNK         0.1400 
    106 CB        -7.3394  -23.2067  -47.9983 C.3       19 UNK        -0.1800 
    107 C         -7.8643  -21.1117  -49.3088 C.2       19 UNK         0.5000 
    108 O         -7.4551  -20.0880  -48.7632 O.2       19 UNK        -0.5000 
    109 N         -9.0241  -21.1866  -49.9723 N.am      20 UNK        -0.5000 
    110 CA        -9.9518  -20.0703  -50.1445 C.3       20 UNK         0.1400 
    111 CB       -11.3549  -20.6410  -50.4058 C.3       20 UNK        -0.1800 
    112 C         -9.5542  -19.0977  -51.2738 C.2       20 UNK         0.5000 
    113 O        -10.0796  -17.9837  -51.3002 O.2       20 UNK        -0.5000 
    114 N         -8.6815  -19.5275  -52.1973 N.am      21 UNK        -0.5000 
    115 CA        -8.3577  -18.7941  -53.4255 C.3       21 UNK         0.1400 
    116 CB        -8.7879  -19.6439  -54.6316 C.3       21 UNK        -0.1800 
    117 C         -6.8705  -18.4217  -53.5479 C.2       21 UNK         0.5000 
    118 O         -6.5618  -17.4576  -54.2501 O.2       21 UNK        -0.5000 
    119 N         -5.9804  -19.1766  -52.8896 N.am      22 UNK        -0.5000 
    120 CA        -4.5197  -19.1252  -53.0620 C.3       22 UNK         0.1400 
    121 C         -4.0614  -19.7080  -54.4388 C.2       22 UNK         0.5000 
    122 N         -2.8129  -19.5069  -54.8355 N.am      22 UNK        -0.7600 
    123 O         -4.8115  -20.3845  -55.1401 O.2       22 UNK        -0.5000 
    124 C124       -3.9258  -17.7238  -52.7222 C.3       23 UNK        -0.0398 
    125 S125       -2.1800  -17.7701  -52.1861 S.3       23 UNK        -0.2404 
    126 C126       -2.2969  -17.2164  -50.4576 C.3       23 UNK        -0.0205 
    127 H127        7.2411  -13.5805  -51.4099 H         1 UNK         0.0600 
    128 H128        7.4858  -15.2981  -51.0810 H         1 UNK         0.0600 
    129 H129        8.5990  -14.1021  -50.4082 H         1 UNK         0.0600 
    130 H130        5.5992  -12.6992  -50.1938 H         1 UNK         0.3000 
    131 H131        4.5270  -14.0244  -47.8487 H         1 UNK         0.0600 
    132 H132        3.6450  -11.5343  -49.3779 H         1 UNK         0.0800 
    133 H133        2.8145  -12.1198  -47.9634 H         1 UNK         0.0800 
    134 H134        0.5579  -13.5890  -48.4158 H         1 UNK         0.0800 
    135 H135        1.8996  -14.3724  -47.6131 H         1 UNK         0.0800 
    136 H136       -1.0254  -14.9205  -49.6943 H         1 UNK         0.1150 
    137 H137       -0.5110  -19.1723  -49.8457 H         1 UNK         0.1150 
    138 H138        2.6246  -16.6880  -48.3035 H         1 UNK         0.1150 
    139 H139        1.5715  -20.1759  -49.2729 H         1 UNK         0.0800 
    140 H140        2.9787  -19.1509  -49.3078 H         1 UNK         0.0800 
    141 H141       -0.0715  -19.1482  -46.9389 H         1 UNK         0.0800 
    142 H142        0.6584  -19.3250  -45.3804 H         1 UNK         0.0800 
    143 H143        0.9218  -21.8311  -45.8409 H         1 UNK         0.0600 
    144 H144       -1.3856  -20.4452  -45.0061 H         1 UNK         0.3000 
    145 H145       -3.4513  -23.2351  -44.2102 H         1 UNK         0.0600 
    146 H146       -3.4470  -22.0221  -42.0355 H         1 UNK         0.0600 
    147 H147       -1.9559  -22.9263  -42.2509 H         1 UNK         0.0600 
    148 H148       -1.9621  -21.1842  -42.4859 H         1 UNK         0.0600 
    149 H149       -3.6964  -20.3543  -44.0641 H         1 UNK         0.3000 
    150 H150       -5.3308  -19.9729  -47.2156 H         1 UNK         0.0600 
    151 H151       -7.0868  -20.7205  -45.5878 H         1 UNK         0.0600 
    152 H152       -7.0510  -18.9743  -45.7500 H         1 UNK         0.0600 
    153 H153       -6.3429  -19.7432  -44.3282 H         1 UNK         0.0600 
    154 H154       -4.6785  -18.1046  -45.1568 H         1 UNK         0.3000 
    155 H155       -1.4595  -17.1986  -46.4203 H         1 UNK         0.0600 
    156 H156       -4.1409  -15.7171  -46.4497 H         1 UNK         0.0600 
    157 H157       -3.1645  -16.0477  -47.8740 H         1 UNK         0.0600 
    158 H158       -2.5413  -14.9995  -46.6165 H         1 UNK         0.0600 
    159 H159       -2.7534  -15.9691  -44.3370 H         1 UNK         0.3000 
    160 H160       -2.9866  -17.2991  -41.8842 H         1 UNK         0.0600 
    161 H161       -0.0330  -18.1214  -41.7531 H         1 UNK         0.0600 
    162 H162       -1.4120  -19.1236  -41.3114 H         1 UNK         0.0600 
    163 H163       -1.0258  -17.7027  -40.3571 H         1 UNK         0.0600 
    164 H164       -0.7507  -15.6549  -42.9163 H         1 UNK         0.3000 
    165 H165       -2.2039  -12.7461  -41.6893 H         1 UNK         0.0600 
    166 H166       -0.0686  -12.1337  -40.5543 H         1 UNK         0.0600 
    167 H167       -1.0279  -13.2007  -39.5405 H         1 UNK         0.0600 
    168 H168        0.3618  -13.8375  -40.4118 H         1 UNK         0.0600 
    169 H169        0.3935  -13.2621  -42.8050 H         1 UNK         0.3000 
    170 H170       -0.5535  -13.8877  -46.1193 H         1 UNK         0.0600 
    171 H171       -0.9842  -11.4265  -46.1605 H         1 UNK         0.0600 
    172 H172        0.4044  -11.1514  -45.1160 H         1 UNK         0.0600 
    173 H173        0.6312  -11.7852  -46.7447 H         1 UNK         0.0600 
    174 H174        1.9468  -13.1043  -45.0588 H         1 UNK         0.3000 
    175 H175        2.9262  -15.9023  -43.2893 H         1 UNK         0.0600 
    176 H176        3.6953  -15.5174  -46.2336 H         1 UNK         0.0600 
    177 H177        4.6517  -16.3643  -45.0187 H         1 UNK         0.0600 
    178 H178        3.0974  -17.0082  -45.5217 H         1 UNK         0.0600 
    179 H179        4.5442  -13.9291  -44.4721 H         1 UNK         0.3000 
    180 H180        3.7644  -11.1183  -42.8827 H         1 UNK         0.0600 
    181 H181        5.7143  -12.7743  -41.2018 H         1 UNK         0.0600 
    182 H182        4.3527  -11.8350  -40.6173 H         1 UNK         0.0600 
    183 H183        5.7303  -11.0152  -41.3334 H         1 UNK         0.0600 
    184 H184        5.1548  -11.1510  -44.5856 H         1 UNK         0.3000 
    185 H185        7.3048  -11.1460  -45.5135 H         1 UNK         0.0600 
    186 H186        9.2107  -12.4763  -46.3496 H         1 UNK         0.0600 
    187 H187        9.2489  -12.4261  -44.5937 H         1 UNK         0.0600 
    188 H188        8.6930  -13.8793  -45.4178 H         1 UNK         0.0600 
    189 H189        6.8654  -13.6402  -46.9754 H         1 UNK         0.3000 
    190 H190       -1.9322  -20.7306  -47.7643 H         1 UNK         0.3000 
    191 H191       -1.1715  -21.8563  -50.2384 H         1 UNK         0.0600 
    192 H192       -3.8872  -21.1628  -49.0338 H         1 UNK         0.0600 
    193 H193       -3.6994  -21.7236  -50.6919 H         1 UNK         0.0600 
    194 H194       -2.9366  -20.2273  -50.1772 H         1 UNK         0.0600 
    195 H195       -3.1300  -23.2980  -47.5708 H         1 UNK         0.3000 
    196 H196       -3.6320  -25.7818  -48.8024 H         1 UNK         0.0600 
    197 H197       -4.1098  -26.5690  -46.4937 H         1 UNK         0.0600 
    198 H198       -4.8099  -24.9805  -46.7609 H         1 UNK         0.0600 
    199 H199       -3.3320  -25.1442  -45.8192 H         1 UNK         0.0600 
    200 H200       -0.8743  -24.7923  -46.7094 H         1 UNK         0.3000 
    201 H201        0.5054  -27.2760  -46.7370 H         1 UNK         0.0600 
    202 H202        0.9626  -25.4863  -45.0873 H         1 UNK         0.0600 
    203 H203        1.5641  -24.4247  -46.3583 H         1 UNK         0.0600 
    204 H204        2.4363  -25.8977  -45.9517 H         1 UNK         0.0600 
    205 H205        0.5635  -24.5334  -49.0007 H         1 UNK         0.3000 
    206 H206        2.6501  -25.6041  -50.7066 H         1 UNK         0.0600 
    207 H207        2.1913  -23.1585  -50.4804 H         1 UNK         0.0600 
    208 H208        2.0338  -23.6838  -52.1489 H         1 UNK         0.0600 
    209 H209        0.5932  -23.3839  -51.1874 H         1 UNK         0.0600 
    210 H210       -0.4874  -26.6438  -50.2234 H         1 UNK         0.3000 
    211 H211       -1.8919  -28.0178  -51.1782 H         1 UNK         0.0600 
    212 H212        0.1842  -28.6209  -53.3443 H         1 UNK         0.0600 
    213 H213       -1.1995  -29.6084  -52.9028 H         1 UNK         0.0600 
    214 H214        0.1189  -29.3997  -51.7631 H         1 UNK         0.0600 
    215 H215       -1.9477  -25.2115  -51.8280 H         1 UNK         0.3000 
    216 H216       -3.3918  -25.1396  -54.4356 H         1 UNK         0.0600 
    217 H217       -3.3225  -22.6828  -54.0887 H         1 UNK         0.0600 
    218 H218       -1.6940  -23.3311  -54.0028 H         1 UNK         0.0600 
    219 H219       -2.5429  -22.8851  -52.5265 H         1 UNK         0.0600 
    220 H220       -5.4734  -23.8220  -54.2545 H         1 UNK         0.3000 
    221 H221       -7.2727  -24.9559  -52.2860 H         1 UNK         0.0600 
    222 H222       -7.6261  -22.8156  -54.4487 H         1 UNK         0.0600 
    223 H223       -8.0629  -24.5171  -54.5660 H         1 UNK         0.0600 
    224 H224       -8.9354  -23.4617  -53.4647 H         1 UNK         0.0600 
    225 H225       -7.3457  -24.2400  -50.2370 H         1 UNK         0.3000 
    226 H226       -5.9679  -22.0900  -49.2031 H         1 UNK         0.0600 
    227 H227       -6.6869  -24.0747  -47.9098 H         1 UNK         0.0600 
    228 H228       -7.1992  -22.6066  -47.0992 H         1 UNK         0.0600 
    229 H229       -8.3713  -23.5597  -48.0015 H         1 UNK         0.0600 
    230 H230       -9.2848  -22.0677  -50.3900 H         1 UNK         0.3000 
    231 H231       -9.9888  -19.4958  -49.2163 H         1 UNK         0.0600 
    232 H232      -11.6805  -21.2797  -49.5844 H         1 UNK         0.0600 
    233 H233      -11.3854  -21.2303  -51.3232 H         1 UNK         0.0600 
    234 H234      -12.0911  -19.8421  -50.5045 H         1 UNK         0.0600 
    235 H235       -8.2430  -20.4325  -52.0775 H         1 UNK         0.3000 
    236 H236       -8.9150  -17.8563  -53.4706 H         1 UNK         0.0600 
    237 H237       -8.6070  -19.1142  -55.5679 H         1 UNK         0.0600 
    238 H238       -8.2359  -20.5822  -54.6757 H         1 UNK         0.0600 
    239 H239       -9.8515  -19.8793  -54.5911 H         1 UNK         0.0600 
    240 H240       -6.3149  -20.0138  -52.4196 H         1 UNK         0.3000 
    241 H241       -4.1459  -19.8334  -52.3233 H         1 UNK         0.0600 
    242 H242       -2.1737  -18.9693  -54.2676 H         1 UNK         0.3800 
    243 H243       -2.5043  -19.8906  -55.7146 H         1 UNK         0.3800 
    244 H244       -4.5132  -17.2590  -51.9293 H         1 UNK         0.0800 
    245 H245       -4.0069  -17.0519  -53.5779 H         1 UNK         0.0800 
    246 H246       -2.8829  -17.9287  -49.8770 H         1 UNK         0.0800 
    247 H247       -2.8360  -16.2685  -50.4217 H         1 UNK         0.0800 
@<TRIPOS>BOND
     1    1    2 1    
     2    1  127 1    
     3    1  128 1    
     4    1  129 1    
     5    2    3 2    
     6    2    4 am   BACKBONE|DICT|INTERRES
     7    4    5 1    
     8    4  130 1    
     9    5    6 1    
    10    5   65 1    
    11    5  131 1    
    12    6    7 1    
    13    6  132 1    
    14    6  133 1    
    15    7    8 1    
    16    8    9 1    
    17    8  134 1    
    18    8  135 1    
    19    9   10 ar   
    20    9   14 ar   
    21   10   11 ar   
    22   10  136 1    
    23   11   12 ar   
    24   11  126 1    
    25   12   13 ar   
    26   12  137 1    
    27   13   14 ar   
    28   13   15 1    
    29   14  138 1    
    30   15   16 1    
    31   15  139 1    
    32   15  140 1    
    33   16   17 1    
    34   17   18 1    
    35   17  141 1    
    36   17  142 1    
    37   18   19 1    
    38   18   67 1    
    39   18  143 1    
    40   19   20 am   BACKBONE|DICT|INTERRES
    41   19  144 1    
    42   20   21 2    
    43   20   22 1    
    44   22   23 1    
    45   22   24 1    
    46   22  145 1    
    47   23  146 1    
    48   23  147 1    
    49   23  148 1    
    50   24   25 am   BACKBONE|DICT|INTERRES
    51   24  149 1    
    52   25   26 2    
    53   25   27 1    
    54   27   28 1    
    55   27   29 1    
    56   27  150 1    
    57   28  151 1    
    58   28  152 1    
    59   28  153 1    
    60   29   30 am   BACKBONE|DICT|INTERRES
    61   29  154 1    
    62   30   31 2    
    63   30   32 1    
    64   32   33 1    
    65   32   34 1    
    66   32  155 1    
    67   33  156 1    
    68   33  157 1    
    69   33  158 1    
    70   34   35 am   BACKBONE|DICT|INTERRES
    71   34  159 1    
    72   35   36 2    
    73   35   37 1    
    74   37   38 1    
    75   37   39 1    
    76   37  160 1    
    77   38  161 1    
    78   38  162 1    
    79   38  163 1    
    80   39   40 am   BACKBONE|DICT|INTERRES
    81   39  164 1    
    82   40   41 2    
    83   40   42 1    
    84   42   43 1    
    85   42   44 1    
    86   42  165 1    
    87   43  166 1    
    88   43  167 1    
    89   43  168 1    
    90   44   45 am   BACKBONE|DICT|INTERRES
    91   44  169 1    
    92   45   46 2    
    93   45   47 1    
    94   47   48 1    
    95   47   49 1    
    96   47  170 1    
    97   48  171 1    
    98   48  172 1    
    99   48  173 1    
   100   49   50 am   BACKBONE|DICT|INTERRES
   101   49  174 1    
   102   50   51 2    
   103   50   52 1    
   104   52   53 1    
   105   52   54 1    
   106   52  175 1    
   107   53  176 1    
   108   53  177 1    
   109   53  178 1    
   110   54   55 am   BACKBONE|DICT|INTERRES
   111   54  179 1    
   112   55   56 2    
   113   55   57 1    
   114   57   58 1    
   115   57   59 1    
   116   57  180 1    
   117   58  181 1    
   118   58  182 1    
   119   58  183 1    
   120   59   60 am   BACKBONE|DICT|INTERRES
   121   59  184 1    
   122   60   61 2    
   123   60   62 1    
   124   62   63 1    
   125   62   64 1    
   126   62  185 1    
   127   63  186 1    
   128   63  187 1    
   129   63  188 1    
   130   64   65 am   BACKBONE|DICT|INTERRES
   131   64  189 1    
   132   65   66 2    
   133   67   68 2    
   134   67   69 am   BACKBONE|DICT|INTERRES
   135   69   70 1    
   136   69  190 1    
   137   70   71 1    
   138   70   72 1    
   139   70  191 1    
   140   71  192 1    
   141   71  193 1    
   142   71  194 1    
   143   72   73 2    
   144   72   74 am   BACKBONE|DICT|INTERRES
   145   74   75 1    
   146   74  195 1    
   147   75   76 1    
   148   75   77 1    
   149   75  196 1    
   150   76  197 1    
   151   76  198 1    
   152   76  199 1    
   153   77   78 2    
   154   77   79 am   BACKBONE|DICT|INTERRES
   155   79   80 1    
   156   79  200 1    
   157   80   81 1    
   158   80   82 1    
   159   80  201 1    
   160   81  202 1    
   161   81  203 1    
   162   81  204 1    
   163   82   83 2    
   164   82   84 am   BACKBONE|DICT|INTERRES
   165   84   85 1    
   166   84  205 1    
   167   85   86 1    
   168   85   87 1    
   169   85  206 1    
   170   86  207 1    
   171   86  208 1    
   172   86  209 1    
   173   87   88 2    
   174   87   89 am   BACKBONE|DICT|INTERRES
   175   89   90 1    
   176   89  210 1    
   177   90   91 1    
   178   90   92 1    
   179   90  211 1    
   180   91  212 1    
   181   91  213 1    
   182   91  214 1    
   183   92   93 2    
   184   92   94 am   BACKBONE|DICT|INTERRES
   185   94   95 1    
   186   94  215 1    
   187   95   96 1    
   188   95   97 1    
   189   95  216 1    
   190   96  217 1    
   191   96  218 1    
   192   96  219 1    
   193   97   98 2    
   194   97   99 am   BACKBONE|DICT|INTERRES
   195   99  100 1    
   196   99  220 1    
   197  100  101 1    
   198  100  102 1    
   199  100  221 1    
   200  101  222 1    
   201  101  223 1    
   202  101  224 1    
   203  102  103 2    
   204  102  104 am   BACKBONE|DICT|INTERRES
   205  104  105 1    
   206  104  225 1    
   207  105  106 1    
   208  105  107 1    
   209  105  226 1    
   210  106  227 1    
   211  106  228 1    
   212  106  229 1    
   213  107  108 2    
   214  107  109 am   BACKBONE|DICT|INTERRES
   215  109  110 1    
   216  109  230 1    
   217  110  111 1    
   218  110  112 1    
   219  110  231 1    
   220  111  232 1    
   221  111  233 1    
   222  111  234 1    
   223  112  113 2    
   224  112  114 am   BACKBONE|DICT|INTERRES
   225  114  115 1    
   226  114  235 1    
   227  115  116 1    
   228  115  117 1    
   229  115  236 1    
   230  116  237 1    
   231  116  238 1    
   232  116  239 1    
   233  117  118 2    
   234  117  119 am   BACKBONE|DICT|INTERRES
   235  119  120 1    
   236  119  240 1    
   237  120  121 1    
   238  120  124 1    
   239  120  241 1    
   240  121  122 am   BACKBONE|DICT|INTERRES
   241  121  123 2    
   242  122  242 1    
   243  122  243 1    
   244  124  125 1    
   245  124  244 1    
   246  124  245 1    
   247  125  126 1    
   248  126  246 1    
   249  126  247 1    
@<TRIPOS>SUBSTRUCTURE
     1 UNK         1 GROUP             0       ****    0 ROOT    
