@<TRIPOS>MOLECULE
3R540
247   249    1
SMALL
USER_CHARGES


@<TRIPOS>ATOM
      1 CA          6.6963  -11.9891  -49.5383 C.3       0 UNK        -0.1800 
      2 C           5.4010  -12.4150  -48.8612 C.2       0 UNK         0.5000 
      3 O           5.4194  -12.8001  -47.6921 O.2       0 UNK        -0.5000 
      4 N           4.2810  -12.3557  -49.5927 N.am      1 UNK        -0.5000 
      5 CA          2.9369  -12.6555  -49.0920 C.3       1 UNK         0.1400 
      6 C6          1.9533  -12.9484  -50.2662 C.3       23 UNK        -0.0398 
      7 S7          0.1624  -12.7583  -49.9402 S.3       23 UNK        -0.2404 
      8 C8         -0.2049  -14.2326  -48.9377 C.3       23 UNK        -0.0205 
      9 C9         -0.4487  -15.4758  -49.7804 C.ar      23 UNK        -0.0193 
     10 C10        -1.5575  -15.5313  -50.6302 C.ar      23 UNK        -0.1150 
     11 C11        -1.8263  -16.6817  -51.3752 C.ar      23 UNK        -0.0193 
     12 C12        -0.9815  -17.7877  -51.2587 C.ar      23 UNK        -0.1150 
     13 C13         0.1140  -17.7584  -50.3908 C.ar      23 UNK        -0.0193 
     14 C14         0.3890  -16.5912  -49.6687 C.ar      23 UNK        -0.1150 
     15 C15         0.9555  -19.0153  -50.1972 C.3       23 UNK        -0.0205 
     16 S16         0.8638  -19.6819  -48.4977 S.3       23 UNK        -0.2404 
     17 C17        -0.9106  -19.5398  -48.0917 C.3       23 UNK        -0.0398 
     18 CA         -1.5332  -20.7894  -47.4311 C.3       11 UNK         0.1400 
     19 N          -0.7999  -21.2698  -46.2568 N.am      11 UNK        -0.5000 
     20 C          -0.9501  -22.4872  -45.7189 C.2       10 UNK         0.5000 
     21 O          -1.5881  -23.3894  -46.2663 O.2       10 UNK        -0.5000 
     22 CA         -0.3310  -22.7017  -44.3220 C.3       10 UNK         0.1400 
     23 CB         -0.1380  -24.1908  -43.9646 C.3       10 UNK        -0.1800 
     24 N           0.8932  -21.9187  -44.1195 N.am      10 UNK        -0.5000 
     25 C           2.0897  -22.1166  -44.6929 C.2       9 UNK         0.5000 
     26 O           2.3571  -23.0735  -45.4173 O.2       9 UNK        -0.5000 
     27 CA          3.1817  -21.0634  -44.4312 C.3       9 UNK         0.1400 
     28 CB          3.3951  -20.2054  -45.6878 C.3       9 UNK        -0.1800 
     29 N           2.8924  -20.1826  -43.2980 N.am      9 UNK        -0.5000 
     30 C           3.0286  -20.5249  -42.0104 C.2       8 UNK         0.5000 
     31 O           3.4058  -21.6354  -41.6345 O.2       8 UNK        -0.5000 
     32 CA          2.6767  -19.4485  -40.9664 C.3       8 UNK         0.1400 
     33 CB          3.8410  -18.4612  -40.7929 C.3       8 UNK        -0.1800 
     34 N           1.4551  -18.7071  -41.2857 N.am      8 UNK        -0.5000 
     35 C           0.2237  -19.2371  -41.3028 C.2       7 UNK         0.5000 
     36 O          -0.0171  -20.4213  -41.0680 O.2       7 UNK        -0.5000 
     37 CA         -0.9318  -18.2917  -41.6771 C.3       7 UNK         0.1400 
     38 CB         -1.3069  -17.3759  -40.5026 C.3       7 UNK        -0.1800 
     39 N          -0.6201  -17.4828  -42.8532 N.am      7 UNK        -0.5000 
     40 C          -0.4799  -17.9790  -44.0890 C.2       6 UNK         0.5000 
     41 O          -0.6916  -19.1560  -44.3842 O.2       6 UNK        -0.5000 
     42 CA         -0.0112  -17.0052  -45.1809 C.3       6 UNK         0.1400 
     43 CB         -1.2139  -16.2536  -45.7683 C.3       6 UNK        -0.1800 
     44 N           0.9866  -16.0477  -44.7059 N.am      6 UNK        -0.5000 
     45 C           2.2004  -16.3750  -44.2406 C.2       5 UNK         0.5000 
     46 O           2.6236  -17.5269  -44.1860 O.2       5 UNK        -0.5000 
     47 CA          3.0639  -15.2326  -43.6836 C.3       5 UNK         0.1400 
     48 CB          3.7527  -14.4561  -44.8154 C.3       5 UNK        -0.1800 
     49 N           2.2842  -14.3193  -42.8492 N.am      5 UNK        -0.5000 
     50 C           1.7445  -14.6521  -41.6676 C.2       4 UNK         0.5000 
     51 O           1.8737  -15.7581  -41.1426 O.2       4 UNK        -0.5000 
     52 CA          0.8820  -13.5792  -40.9796 C.3       4 UNK         0.1400 
     53 CB          1.7615  -12.6083  -40.1779 C.3       4 UNK        -0.1800 
     54 N           0.0678  -12.8241  -41.9335 N.am      4 UNK        -0.5000 
     55 C          -0.9612  -13.3404  -42.6202 C.2       3 UNK         0.5000 
     56 O          -1.3513  -14.5021  -42.4984 O.2       3 UNK        -0.5000 
     57 CA         -1.6272  -12.4118  -43.6546 C.3       3 UNK         0.1400 
     58 CB         -2.6328  -11.4713  -42.9738 C.3       3 UNK        -0.1800 
     59 N          -0.6619  -11.6214  -44.4293 N.am      3 UNK        -0.5000 
     60 C           0.2639  -12.1575  -45.2337 C.2       2 UNK         0.5000 
     61 O           0.4084  -13.3749  -45.3814 O.2       2 UNK        -0.5000 
     62 CA          1.2051  -11.1966  -45.9759 C.3       2 UNK         0.1400 
     63 CB          2.2625  -10.6082  -45.0245 C.3       2 UNK        -0.1800 
     64 N           1.8504  -11.9814  -47.0180 N.am      2 UNK        -0.5000 
     65 C           2.4700  -11.5475  -48.1168 C.2       1 UNK         0.5000 
     66 O           2.6546  -10.3579  -48.3870 O.2       1 UNK        -0.5000 
     67 C          -2.9883  -20.4697  -47.0391 C.2       11 UNK         0.5000 
     68 O          -3.9013  -20.7466  -47.8137 O.2       11 UNK        -0.5000 
     69 N          -3.1788  -19.9307  -45.8232 N.am      12 UNK        -0.5000 
     70 CA         -4.4827  -19.6004  -45.2383 C.3       12 UNK         0.1400 
     71 CB         -4.2604  -18.7985  -43.9475 C.3       12 UNK        -0.1800 
     72 C          -5.3543  -20.8419  -44.9601 C.2       12 UNK         0.5000 
     73 O          -6.5809  -20.7415  -44.9618 O.2       12 UNK        -0.5000 
     74 N          -4.7001  -21.9951  -44.7668 N.am      13 UNK        -0.5000 
     75 CA         -5.3177  -23.3174  -44.6547 C.3       13 UNK         0.1400 
     76 CB         -4.3736  -24.2204  -43.8435 C.3       13 UNK        -0.1800 
     77 C          -5.6245  -23.9534  -46.0290 C.2       13 UNK         0.5000 
     78 O          -6.1209  -25.0786  -46.0681 O.2       13 UNK        -0.5000 
     79 N          -5.2833  -23.2506  -47.1213 N.am      14 UNK        -0.5000 
     80 CA         -5.3720  -23.6239  -48.5379 C.3       14 UNK         0.1400 
     81 CB         -6.7994  -24.0527  -48.9325 C.3       14 UNK        -0.1800 
     82 C          -4.3212  -24.6546  -48.9933 C.2       14 UNK         0.5000 
     83 O          -4.2135  -24.8907  -50.1960 O.2       14 UNK        -0.5000 
     84 N          -3.5549  -25.2301  -48.0569 N.am      15 UNK        -0.5000 
     85 CA         -2.5912  -26.3040  -48.2882 C.3       15 UNK         0.1400 
     86 CB         -2.1074  -26.8593  -46.9385 C.3       15 UNK        -0.1800 
     87 C          -1.4127  -25.8652  -49.1701 C.2       15 UNK         0.5000 
     88 O          -1.1993  -26.4475  -50.2340 O.2       15 UNK        -0.5000 
     89 N          -0.6956  -24.8170  -48.7428 N.am      16 UNK        -0.5000 
     90 CA          0.4546  -24.2742  -49.4765 C.3       16 UNK         0.1400 
     91 CB          1.3344  -23.4558  -48.5272 C.3       16 UNK        -0.1800 
     92 C           0.0528  -23.4489  -50.7132 C.2       16 UNK         0.5000 
     93 O           0.8796  -23.2465  -51.6023 O.2       16 UNK        -0.5000 
     94 N          -1.2156  -23.0219  -50.7664 N.am      17 UNK        -0.5000 
     95 CA         -1.8321  -22.3894  -51.9317 C.3       17 UNK         0.1400 
     96 CB         -2.9735  -21.4787  -51.4501 C.3       17 UNK        -0.1800 
     97 C          -2.3555  -23.4177  -52.9573 C.2       17 UNK         0.5000 
     98 O          -2.8386  -23.0108  -54.0154 O.2       17 UNK        -0.5000 
     99 N          -2.3148  -24.7177  -52.6169 N.am      18 UNK        -0.5000 
    100 CA        -2.8166  -25.8651  -53.3875 C.3       18 UNK         0.1400 
    101 CB        -1.9302  -26.0945  -54.6286 C.3       18 UNK        -0.1800 
    102 C         -4.3170  -25.7655  -53.7491 C.2       18 UNK         0.5000 
    103 O         -4.7519  -26.3581  -54.7380 O.2       18 UNK        -0.5000 
    104 N         -5.0647  -24.9788  -52.9595 N.am      19 UNK        -0.5000 
    105 CA        -6.4429  -24.5282  -53.1711 C.3       19 UNK         0.1400 
    106 CB        -7.4238  -25.6906  -52.9171 C.3       19 UNK        -0.1800 
    107 C         -6.6750  -23.8301  -54.5337 C.2       19 UNK         0.5000 
    108 O         -7.7904  -23.8843  -55.0561 O.2       19 UNK        -0.5000 
    109 N         -5.6293  -23.2029  -55.0957 N.am      20 UNK        -0.5000 
    110 CA        -5.6369  -22.6647  -56.4573 C.3       20 UNK         0.1400 
    111 CB        -5.0207  -23.6998  -57.4131 C.3       20 UNK        -0.1800 
    112 C         -4.9126  -21.3168  -56.5849 C.2       20 UNK         0.5000 
    113 O         -5.3865  -20.4589  -57.3318 O.2       20 UNK        -0.5000 
    114 N         -3.7899  -21.1334  -55.8724 N.am      21 UNK        -0.5000 
    115 CA        -2.9047  -19.9673  -56.0003 C.3       21 UNK         0.1400 
    116 CB        -1.6508  -20.1775  -55.1379 C.3       21 UNK        -0.1800 
    117 C         -3.5684  -18.6252  -55.6426 C.2       21 UNK         0.5000 
    118 O         -3.1989  -17.5951  -56.2074 O.2       21 UNK        -0.5000 
    119 N         -4.5371  -18.6684  -54.7216 N.am      22 UNK        -0.5000 
    120 CA        -5.3504  -17.5173  -54.3031 C.3       22 UNK         0.1400 
    121 C         -6.6087  -17.2815  -55.1922 C.2       22 UNK         0.5000 
    122 N         -6.8568  -18.0655  -56.2360 N.am      22 UNK        -0.7600 
    123 O         -7.3744  -16.3557  -54.9384 O.2       22 UNK        -0.5000 
    124 C124       -5.7237  -17.5979  -52.7976 C.3       23 UNK        -0.0398 
    125 S125       -4.3273  -17.8345  -51.6357 S.3       23 UNK        -0.2404 
    126 C126       -3.0314  -16.7376  -52.2991 C.3       23 UNK        -0.0205 
    127 H127        6.5326  -11.6831  -50.5719 H         1 UNK         0.0600 
    128 H128        7.1414  -11.1510  -49.0021 H         1 UNK         0.0600 
    129 H129        7.4093  -12.8136  -49.5368 H         1 UNK         0.0600 
    130 H130        4.3298  -11.9994  -50.5363 H         1 UNK         0.3000 
    131 H131        3.0128  -13.5798  -48.5142 H         1 UNK         0.0600 
    132 H132        2.1329  -13.9516  -50.6556 H         1 UNK         0.0800 
    133 H133        2.1701  -12.2733  -51.0954 H         1 UNK         0.0800 
    134 H134       -1.1038  -14.0279  -48.3547 H         1 UNK         0.0800 
    135 H135        0.5923  -14.4012  -48.2133 H         1 UNK         0.0800 
    136 H136       -2.2139  -14.6756  -50.7055 H         1 UNK         0.1150 
    137 H137       -1.2035  -18.6847  -51.8200 H         1 UNK         0.1150 
    138 H138        1.2305  -16.5706  -48.9904 H         1 UNK         0.1150 
    139 H139        0.6443  -19.7986  -50.8905 H         1 UNK         0.0800 
    140 H140        1.9961  -18.7917  -50.4351 H         1 UNK         0.0800 
    141 H141       -1.4726  -19.3215  -48.9997 H         1 UNK         0.0800 
    142 H142       -1.0245  -18.6630  -47.4561 H         1 UNK         0.0800 
    143 H143       -1.5538  -21.5877  -48.1757 H         1 UNK         0.0600 
    144 H144       -0.3079  -20.5676  -45.7154 H         1 UNK         0.3000 
    145 H145       -1.0543  -22.2942  -43.6143 H         1 UNK         0.0600 
    146 H146        0.3372  -24.3048  -42.9904 H         1 UNK         0.0600 
    147 H147       -1.0959  -24.7087  -43.9194 H         1 UNK         0.0600 
    148 H148        0.4724  -24.7130  -44.7015 H         1 UNK         0.0600 
    149 H149        0.7899  -21.0961  -43.5402 H         1 UNK         0.3000 
    150 H150        4.1103  -21.5999  -44.2259 H         1 UNK         0.0600 
    151 H151        3.6330  -20.8243  -46.5541 H         1 UNK         0.0600 
    152 H152        4.2186  -19.5042  -45.5525 H         1 UNK         0.0600 
    153 H153        2.5022  -19.6294  -45.9328 H         1 UNK         0.0600 
    154 H154        2.6362  -19.2239  -43.5291 H         1 UNK         0.3000 
    155 H155        2.5188  -19.9542  -40.0116 H         1 UNK         0.0600 
    156 H156        4.0262  -17.8933  -41.7052 H         1 UNK         0.0600 
    157 H157        4.7634  -18.9840  -40.5369 H         1 UNK         0.0600 
    158 H158        3.6375  -17.7494  -39.9927 H         1 UNK         0.0600 
    159 H159        1.5631  -17.7129  -41.4619 H         1 UNK         0.3000 
    160 H160       -1.8007  -18.9092  -41.9102 H         1 UNK         0.0600 
    161 H161       -2.1676  -16.7540  -40.7495 H         1 UNK         0.0600 
    162 H162       -0.4867  -16.7136  -40.2256 H         1 UNK         0.0600 
    163 H163       -1.5694  -17.9608  -39.6203 H         1 UNK         0.0600 
    164 H164       -0.4901  -16.4886  -42.7071 H         1 UNK         0.3000 
    165 H165        0.4532  -17.5950  -45.9732 H         1 UNK         0.0600 
    166 H166       -0.9170  -15.6575  -46.6279 H         1 UNK         0.0600 
    167 H167       -1.9913  -16.9416  -46.1025 H         1 UNK         0.0600 
    168 H168       -1.6651  -15.5821  -45.0374 H         1 UNK         0.0600 
    169 H169        0.7290  -15.0646  -44.7558 H         1 UNK         0.3000 
    170 H170        3.8419  -15.6768  -43.0590 H         1 UNK         0.0600 
    171 H171        4.3839  -15.1163  -45.4115 H         1 UNK         0.0600 
    172 H172        3.0328  -13.9997  -45.4922 H         1 UNK         0.0600 
    173 H173        4.3918  -13.6652  -44.4228 H         1 UNK         0.0600 
    174 H174        2.0937  -13.4045  -43.2268 H         1 UNK         0.3000 
    175 H175        0.2112  -14.0872  -40.2832 H         1 UNK         0.0600 
    176 H176        1.1541  -11.8891  -39.6280 H         1 UNK         0.0600 
    177 H177        2.3685  -13.1450  -39.4476 H         1 UNK         0.0600 
    178 H178        2.4411  -12.0504  -40.8234 H         1 UNK         0.0600 
    179 H179        0.3228  -11.8611  -42.0947 H         1 UNK         0.3000 
    180 H180       -2.1766  -13.0447  -44.3550 H         1 UNK         0.0600 
    181 H181       -2.1410  -10.7832  -42.2851 H         1 UNK         0.0600 
    182 H182       -3.3705  -12.0365  -42.4025 H         1 UNK         0.0600 
    183 H183       -3.1780  -10.8787  -43.7086 H         1 UNK         0.0600 
    184 H184       -0.7274  -10.6169  -44.3482 H         1 UNK         0.3000 
    185 H185        0.6146  -10.3994  -46.4313 H         1 UNK         0.0600 
    186 H186        2.8653  -11.3893  -44.5599 H         1 UNK         0.0600 
    187 H187        2.9398   -9.9373  -45.5530 H         1 UNK         0.0600 
    188 H188        1.7966  -10.0307  -44.2254 H         1 UNK         0.0600 
    189 H189        1.6987  -12.9739  -46.8862 H         1 UNK         0.3000 
    190 H190       -2.3645  -19.7346  -45.2492 H         1 UNK         0.3000 
    191 H191       -5.0212  -18.9698  -45.9488 H         1 UNK         0.0600 
    192 H192       -3.6833  -17.8930  -44.1359 H         1 UNK         0.0600 
    193 H193       -3.7298  -19.3873  -43.1991 H         1 UNK         0.0600 
    194 H194       -5.2110  -18.4917  -43.5096 H         1 UNK         0.0600 
    195 H195       -3.6923  -21.9740  -44.7872 H         1 UNK         0.3000 
    196 H196       -6.2615  -23.2291  -44.1128 H         1 UNK         0.0600 
    197 H197       -4.8271  -25.1945  -43.6558 H         1 UNK         0.0600 
    198 H198       -4.1404  -23.7813  -42.8733 H         1 UNK         0.0600 
    199 H199       -3.4349  -24.3937  -44.3700 H         1 UNK         0.0600 
    200 H200       -4.8704  -22.3363  -46.9766 H         1 UNK         0.3000 
    201 H201       -5.1516  -22.7119  -49.0926 H         1 UNK         0.0600 
    202 H202       -7.5352  -23.3115  -48.6209 H         1 UNK         0.0600 
    203 H203       -7.0765  -25.0104  -48.4919 H         1 UNK         0.0600 
    204 H204       -6.8876  -24.1618  -50.0133 H         1 UNK         0.0600 
    205 H205       -3.6766  -24.9351  -47.0997 H         1 UNK         0.3000 
    206 H206       -3.1126  -27.1075  -48.8129 H         1 UNK         0.0600 
    207 H207       -2.9390  -27.2598  -46.3584 H         1 UNK         0.0600 
    208 H208       -1.3929  -27.6705  -47.0839 H         1 UNK         0.0600 
    209 H209       -1.6177  -26.0958  -46.3334 H         1 UNK         0.0600 
    210 H210       -0.9479  -24.3711  -47.8648 H         1 UNK         0.3000 
    211 H211        1.0564  -25.1114  -49.8371 H         1 UNK         0.0600 
    212 H212        0.7924  -22.6189  -48.0933 H         1 UNK         0.0600 
    213 H213        2.2039  -23.0486  -49.0448 H         1 UNK         0.0600 
    214 H214        1.7036  -24.0792  -47.7141 H         1 UNK         0.0600 
    215 H215       -1.8281  -23.2607  -50.0011 H         1 UNK         0.3000 
    216 H216       -1.0904  -21.7688  -52.4379 H         1 UNK         0.0600 
    217 H217       -3.4329  -20.9459  -52.2835 H         1 UNK         0.0600 
    218 H218       -2.6119  -20.7261  -50.7494 H         1 UNK         0.0600 
    219 H219       -3.7604  -22.0468  -50.9546 H         1 UNK         0.0600 
    220 H220       -1.9392  -24.9586  -51.7085 H         1 UNK         0.3000 
    221 H221       -2.7176  -26.7358  -52.7379 H         1 UNK         0.0600 
    222 H222       -2.0330  -25.2853  -55.3526 H         1 UNK         0.0600 
    223 H223       -0.8781  -26.1665  -54.3529 H         1 UNK         0.0600 
    224 H224       -2.1952  -27.0230  -55.1355 H         1 UNK         0.0600 
    225 H225       -4.6214  -24.6398  -52.1110 H         1 UNK         0.3000 
    226 H226       -6.6298  -23.7660  -52.4140 H         1 UNK         0.0600 
    227 H227       -7.2497  -26.1451  -51.9417 H         1 UNK         0.0600 
    228 H228       -7.3274  -26.4706  -53.6729 H         1 UNK         0.0600 
    229 H229       -8.4579  -25.3446  -52.9312 H         1 UNK         0.0600 
    230 H230       -4.7393  -23.2001  -54.6082 H         1 UNK         0.3000 
    231 H231       -6.6648  -22.4827  -56.7779 H         1 UNK         0.0600 
    232 H232       -5.5971  -24.6252  -57.4146 H         1 UNK         0.0600 
    233 H233       -3.9967  -23.9466  -57.1293 H         1 UNK         0.0600 
    234 H234       -5.0002  -23.3269  -58.4380 H         1 UNK         0.0600 
    235 H235       -3.4526  -21.8783  -55.2665 H         1 UNK         0.3000 
    236 H236       -2.5923  -19.9093  -57.0449 H         1 UNK         0.0600 
    237 H237       -0.9331  -19.3703  -55.2900 H         1 UNK         0.0600 
    238 H238       -1.8967  -20.1972  -54.0767 H         1 UNK         0.0600 
    239 H239       -1.1473  -21.1117  -55.3873 H         1 UNK         0.0600 
    240 H240       -4.7796  -19.5611  -54.3191 H         1 UNK         0.3000 
    241 H241       -4.7577  -16.6116  -54.4376 H         1 UNK         0.0600 
    242 H242       -7.6737  -17.8882  -56.7989 H         1 UNK         0.3800 
    243 H243       -6.2318  -18.8213  -56.4934 H         1 UNK         0.3800 
    244 H244       -6.2444  -16.6886  -52.4926 H         1 UNK         0.0800 
    245 H245       -6.4284  -18.4145  -52.6324 H         1 UNK         0.0800 
    246 H246       -3.4451  -15.7395  -52.4511 H         1 UNK         0.0800 
    247 H247       -2.7006  -17.0932  -53.2743 H         1 UNK         0.0800 
@<TRIPOS>BOND
     1    1    2 1    
     2    1  127 1    
     3    1  128 1    
     4    1  129 1    
     5    2    3 2    
     6    2    4 am   BACKBONE|DICT|INTERRES
     7    4    5 1    
     8    4  130 1    
     9    5    6 1    
    10    5   65 1    
    11    5  131 1    
    12    6    7 1    
    13    6  132 1    
    14    6  133 1    
    15    7    8 1    
    16    8    9 1    
    17    8  134 1    
    18    8  135 1    
    19    9   10 ar   
    20    9   14 ar   
    21   10   11 ar   
    22   10  136 1    
    23   11   12 ar   
    24   11  126 1    
    25   12   13 ar   
    26   12  137 1    
    27   13   14 ar   
    28   13   15 1    
    29   14  138 1    
    30   15   16 1    
    31   15  139 1    
    32   15  140 1    
    33   16   17 1    
    34   17   18 1    
    35   17  141 1    
    36   17  142 1    
    37   18   19 1    
    38   18   67 1    
    39   18  143 1    
    40   19   20 am   BACKBONE|DICT|INTERRES
    41   19  144 1    
    42   20   21 2    
    43   20   22 1    
    44   22   23 1    
    45   22   24 1    
    46   22  145 1    
    47   23  146 1    
    48   23  147 1    
    49   23  148 1    
    50   24   25 am   BACKBONE|DICT|INTERRES
    51   24  149 1    
    52   25   26 2    
    53   25   27 1    
    54   27   28 1    
    55   27   29 1    
    56   27  150 1    
    57   28  151 1    
    58   28  152 1    
    59   28  153 1    
    60   29   30 am   BACKBONE|DICT|INTERRES
    61   29  154 1    
    62   30   31 2    
    63   30   32 1    
    64   32   33 1    
    65   32   34 1    
    66   32  155 1    
    67   33  156 1    
    68   33  157 1    
    69   33  158 1    
    70   34   35 am   BACKBONE|DICT|INTERRES
    71   34  159 1    
    72   35   36 2    
    73   35   37 1    
    74   37   38 1    
    75   37   39 1    
    76   37  160 1    
    77   38  161 1    
    78   38  162 1    
    79   38  163 1    
    80   39   40 am   BACKBONE|DICT|INTERRES
    81   39  164 1    
    82   40   41 2    
    83   40   42 1    
    84   42   43 1    
    85   42   44 1    
    86   42  165 1    
    87   43  166 1    
    88   43  167 1    
    89   43  168 1    
    90   44   45 am   BACKBONE|DICT|INTERRES
    91   44  169 1    
    92   45   46 2    
    93   45   47 1    
    94   47   48 1    
    95   47   49 1    
    96   47  170 1    
    97   48  171 1    
    98   48  172 1    
    99   48  173 1    
   100   49   50 am   BACKBONE|DICT|INTERRES
   101   49  174 1    
   102   50   51 2    
   103   50   52 1    
   104   52   53 1    
   105   52   54 1    
   106   52  175 1    
   107   53  176 1    
   108   53  177 1    
   109   53  178 1    
   110   54   55 am   BACKBONE|DICT|INTERRES
   111   54  179 1    
   112   55   56 2    
   113   55   57 1    
   114   57   58 1    
   115   57   59 1    
   116   57  180 1    
   117   58  181 1    
   118   58  182 1    
   119   58  183 1    
   120   59   60 am   BACKBONE|DICT|INTERRES
   121   59  184 1    
   122   60   61 2    
   123   60   62 1    
   124   62   63 1    
   125   62   64 1    
   126   62  185 1    
   127   63  186 1    
   128   63  187 1    
   129   63  188 1    
   130   64   65 am   BACKBONE|DICT|INTERRES
   131   64  189 1    
   132   65   66 2    
   133   67   68 2    
   134   67   69 am   BACKBONE|DICT|INTERRES
   135   69   70 1    
   136   69  190 1    
   137   70   71 1    
   138   70   72 1    
   139   70  191 1    
   140   71  192 1    
   141   71  193 1    
   142   71  194 1    
   143   72   73 2    
   144   72   74 am   BACKBONE|DICT|INTERRES
   145   74   75 1    
   146   74  195 1    
   147   75   76 1    
   148   75   77 1    
   149   75  196 1    
   150   76  197 1    
   151   76  198 1    
   152   76  199 1    
   153   77   78 2    
   154   77   79 am   BACKBONE|DICT|INTERRES
   155   79   80 1    
   156   79  200 1    
   157   80   81 1    
   158   80   82 1    
   159   80  201 1    
   160   81  202 1    
   161   81  203 1    
   162   81  204 1    
   163   82   83 2    
   164   82   84 am   BACKBONE|DICT|INTERRES
   165   84   85 1    
   166   84  205 1    
   167   85   86 1    
   168   85   87 1    
   169   85  206 1    
   170   86  207 1    
   171   86  208 1    
   172   86  209 1    
   173   87   88 2    
   174   87   89 am   BACKBONE|DICT|INTERRES
   175   89   90 1    
   176   89  210 1    
   177   90   91 1    
   178   90   92 1    
   179   90  211 1    
   180   91  212 1    
   181   91  213 1    
   182   91  214 1    
   183   92   93 2    
   184   92   94 am   BACKBONE|DICT|INTERRES
   185   94   95 1    
   186   94  215 1    
   187   95   96 1    
   188   95   97 1    
   189   95  216 1    
   190   96  217 1    
   191   96  218 1    
   192   96  219 1    
   193   97   98 2    
   194   97   99 am   BACKBONE|DICT|INTERRES
   195   99  100 1    
   196   99  220 1    
   197  100  101 1    
   198  100  102 1    
   199  100  221 1    
   200  101  222 1    
   201  101  223 1    
   202  101  224 1    
   203  102  103 2    
   204  102  104 am   BACKBONE|DICT|INTERRES
   205  104  105 1    
   206  104  225 1    
   207  105  106 1    
   208  105  107 1    
   209  105  226 1    
   210  106  227 1    
   211  106  228 1    
   212  106  229 1    
   213  107  108 2    
   214  107  109 am   BACKBONE|DICT|INTERRES
   215  109  110 1    
   216  109  230 1    
   217  110  111 1    
   218  110  112 1    
   219  110  231 1    
   220  111  232 1    
   221  111  233 1    
   222  111  234 1    
   223  112  113 2    
   224  112  114 am   BACKBONE|DICT|INTERRES
   225  114  115 1    
   226  114  235 1    
   227  115  116 1    
   228  115  117 1    
   229  115  236 1    
   230  116  237 1    
   231  116  238 1    
   232  116  239 1    
   233  117  118 2    
   234  117  119 am   BACKBONE|DICT|INTERRES
   235  119  120 1    
   236  119  240 1    
   237  120  121 1    
   238  120  124 1    
   239  120  241 1    
   240  121  122 am   BACKBONE|DICT|INTERRES
   241  121  123 2    
   242  122  242 1    
   243  122  243 1    
   244  124  125 1    
   245  124  244 1    
   246  124  245 1    
   247  125  126 1    
   248  126  246 1    
   249  126  247 1    
@<TRIPOS>SUBSTRUCTURE
     1 UNK         1 GROUP             0       ****    0 ROOT    
