@<TRIPOS>MOLECULE
3R540
247   249    1
SMALL
USER_CHARGES


@<TRIPOS>ATOM
      1 CA         -2.0713  -12.3629  -46.8382 C.3       0 UNK        -0.1800 
      2 C          -0.7206  -11.9340  -47.3931 C.2       0 UNK         0.5000 
      3 O          -0.6610  -11.0368  -48.2348 O.2       0 UNK        -0.5000 
      4 N           0.3593  -12.5795  -46.9374 N.am      1 UNK        -0.5000 
      5 CA          1.7380  -12.2927  -47.3487 C.3       1 UNK         0.1400 
      6 C6          2.7020  -13.4799  -47.0787 C.3       23 UNK        -0.0398 
      7 S7          2.0322  -15.0913  -47.5957 S.3       23 UNK        -0.2404 
      8 C8          2.6655  -15.2515  -49.2850 C.3       23 UNK        -0.0205 
      9 C9          2.0043  -16.4366  -49.9652 C.ar      23 UNK        -0.0193 
     10 C10         0.8220  -16.2577  -50.6872 C.ar      23 UNK        -0.1150 
     11 C11         0.1922  -17.3455  -51.2965 C.ar      23 UNK        -0.0193 
     12 C12         0.7484  -18.6226  -51.1720 C.ar      23 UNK        -0.1150 
     13 C13         1.9308  -18.8134  -50.4498 C.ar      23 UNK        -0.0193 
     14 C14         2.5559  -17.7154  -49.8516 C.ar      23 UNK        -0.1150 
     15 C15         2.5457  -20.1992  -50.3224 C.3       23 UNK        -0.0205 
     16 S16         2.2060  -20.9481  -48.6980 S.3       23 UNK        -0.2404 
     17 C17         0.4414  -21.3705  -48.8627 C.3       23 UNK        -0.0398 
     18 CA          0.0231  -22.5053  -47.8974 C.3       11 UNK         0.1400 
     19 N           0.0394  -22.0923  -46.4876 N.am      11 UNK        -0.5000 
     20 C          -0.1630  -22.9204  -45.4511 C.2       10 UNK         0.5000 
     21 O          -0.3215  -24.1348  -45.5683 O.2       10 UNK        -0.5000 
     22 CA         -0.2642  -22.2892  -44.0512 C.3       10 UNK         0.1400 
     23 CB          1.1276  -21.9962  -43.4719 C.3       10 UNK        -0.1800 
     24 N          -1.0820  -21.0763  -44.0421 N.am      10 UNK        -0.5000 
     25 C          -2.3942  -21.0478  -44.3173 C.2       9 UNK         0.5000 
     26 O          -3.0629  -22.0552  -44.5436 O.2       9 UNK        -0.5000 
     27 CA         -3.0665  -19.6642  -44.4016 C.3       9 UNK         0.1400 
     28 CB         -3.4674  -19.1620  -43.0074 C.3       9 UNK        -0.1800 
     29 N          -2.2249  -18.6679  -45.0644 N.am      9 UNK        -0.5000 
     30 C          -1.8219  -18.7454  -46.3417 C.2       8 UNK         0.5000 
     31 O          -2.1705  -19.6366  -47.1149 O.2       8 UNK        -0.5000 
     32 CA         -0.8200  -17.6775  -46.8129 C.3       8 UNK         0.1400 
     33 CB         -1.5511  -16.3928  -47.2329 C.3       8 UNK        -0.1800 
     34 N           0.1739  -17.3786  -45.7791 N.am      8 UNK        -0.5000 
     35 C           1.1159  -18.2441  -45.3770 C.2       7 UNK         0.5000 
     36 O           1.2542  -19.3690  -45.8557 O.2       7 UNK        -0.5000 
     37 CA          2.0029  -17.8128  -44.1935 C.3       7 UNK         0.1400 
     38 CB          3.1567  -16.9059  -44.6443 C.3       7 UNK        -0.1800 
     39 N           1.2381  -17.1426  -43.1424 N.am      7 UNK        -0.5000 
     40 C           0.3447  -17.7620  -42.3576 C.2       6 UNK         0.5000 
     41 O           0.1119  -18.9681  -42.4148 O.2       6 UNK        -0.5000 
     42 CA         -0.4494  -16.8898  -41.3666 C.3       6 UNK         0.1400 
     43 CB          0.2726  -16.8259  -40.0126 C.3       6 UNK        -0.1800 
     44 N          -0.6874  -15.5279  -41.8447 N.am      6 UNK        -0.5000 
     45 C          -1.3516  -15.1962  -42.9614 C.2       5 UNK         0.5000 
     46 O          -1.8757  -16.0185  -43.7133 O.2       5 UNK        -0.5000 
     47 CA         -1.3969  -13.6974  -43.3201 C.3       5 UNK         0.1400 
     48 CB         -2.7453  -13.0831  -42.9193 C.3       5 UNK        -0.1800 
     49 N          -0.3085  -12.9239  -42.7117 N.am      5 UNK        -0.5000 
     50 C           0.9798  -13.0446  -43.0561 C.2       4 UNK         0.5000 
     51 O           1.3742  -13.7769  -43.9676 O.2       4 UNK        -0.5000 
     52 CA          1.9950  -12.2893  -42.1879 C.3       4 UNK         0.1400 
     53 CB          2.2650  -13.0904  -40.8967 C.3       4 UNK        -0.1800 
     54 N           3.2241  -12.1135  -42.9549 N.am      4 UNK        -0.5000 
     55 C           4.2928  -11.3916  -42.5965 C.2       3 UNK         0.5000 
     56 O           4.3799  -10.7630  -41.5410 O.2       3 UNK        -0.5000 
     57 CA          5.4545  -11.3485  -43.6065 C.3       3 UNK         0.1400 
     58 CB          6.1090  -12.7316  -43.7623 C.3       3 UNK        -0.1800 
     59 N           5.0140  -10.8672  -44.9152 N.am      3 UNK        -0.5000 
     60 C           4.6578   -9.6020  -45.1838 C.2       2 UNK         0.5000 
     61 O           4.7577   -8.6754  -44.3787 O.2       2 UNK        -0.5000 
     62 CA          4.0779   -9.3257  -46.5871 C.3       2 UNK         0.1400 
     63 CB          5.1879   -8.8772  -47.5502 C.3       2 UNK        -0.1800 
     64 N           3.3747  -10.4758  -47.1660 N.am      2 UNK        -0.5000 
     65 C           2.2604  -11.0174  -46.6541 C.2       1 UNK         0.5000 
     66 O           1.6911  -10.5763  -45.6517 O.2       1 UNK        -0.5000 
     67 C          -1.3436  -23.0936  -48.3033 C.2       11 UNK         0.5000 
     68 O          -1.3838  -24.1720  -48.8983 O.2       11 UNK        -0.5000 
     69 N          -2.4314  -22.4064  -47.9269 N.am      12 UNK        -0.5000 
     70 CA         -3.8118  -22.8391  -48.1409 C.3       12 UNK         0.1400 
     71 CB         -4.7698  -21.7474  -47.6379 C.3       12 UNK        -0.1800 
     72 C          -4.1214  -24.1906  -47.4710 C.2       12 UNK         0.5000 
     73 O          -4.6693  -25.0828  -48.1193 O.2       12 UNK        -0.5000 
     74 N          -3.7261  -24.3314  -46.1979 N.am      13 UNK        -0.5000 
     75 CA         -3.8798  -25.5515  -45.4061 C.3       13 UNK         0.1400 
     76 CB         -3.5021  -25.2667  -43.9448 C.3       13 UNK        -0.1800 
     77 C          -3.0676  -26.7381  -45.9553 C.2       13 UNK         0.5000 
     78 O          -3.5818  -27.8565  -45.9810 O.2       13 UNK        -0.5000 
     79 N          -1.8295  -26.4760  -46.3980 N.am      14 UNK        -0.5000 
     80 CA         -0.9345  -27.4685  -46.9948 C.3       14 UNK         0.1400 
     81 CB          0.4754  -26.8751  -47.1382 C.3       14 UNK        -0.1800 
     82 C          -1.4436  -27.9928  -48.3489 C.2       14 UNK         0.5000 
     83 O          -1.3752  -29.1975  -48.5970 O.2       14 UNK        -0.5000 
     84 N          -1.9556  -27.0863  -49.1920 N.am      15 UNK        -0.5000 
     85 CA         -2.5411  -27.4169  -50.4921 C.3       15 UNK         0.1400 
     86 CB         -2.6107  -26.1425  -51.3424 C.3       15 UNK        -0.1800 
     87 C          -3.9427  -28.0442  -50.3854 C.2       15 UNK         0.5000 
     88 O          -4.3401  -28.7786  -51.2907 O.2       15 UNK        -0.5000 
     89 N          -4.6663  -27.7137  -49.3052 N.am      16 UNK        -0.5000 
     90 CA         -6.0877  -27.9800  -49.0667 C.3       16 UNK         0.1400 
     91 CB         -6.3645  -29.4924  -48.9380 C.3       16 UNK        -0.1800 
     92 C          -6.9662  -27.2733  -50.1206 C.2       16 UNK         0.5000 
     93 O          -7.8591  -27.8869  -50.7088 O.2       16 UNK        -0.5000 
     94 N          -6.6636  -25.9922  -50.3584 N.am      17 UNK        -0.5000 
     95 CA         -7.2837  -25.1392  -51.3668 C.3       17 UNK         0.1400 
     96 CB         -6.5106  -25.2808  -52.6902 C.3       17 UNK        -0.1800 
     97 C          -7.2637  -23.6857  -50.8767 C.2       17 UNK         0.5000 
     98 O          -6.4931  -23.3564  -49.9748 O.2       17 UNK        -0.5000 
     99 N          -8.0965  -22.8315  -51.4831 N.am      18 UNK        -0.5000 
    100 CA        -8.1553  -21.3982  -51.1944 C.3       18 UNK         0.1400 
    101 CB        -9.3879  -20.7916  -51.8836 C.3       18 UNK        -0.1800 
    102 C         -6.8633  -20.6913  -51.6452 C.2       18 UNK         0.5000 
    103 O         -6.5590  -20.6961  -52.8399 O.2       18 UNK        -0.5000 
    104 N         -6.1206  -20.1326  -50.6792 N.am      19 UNK        -0.5000 
    105 CA        -4.8432  -19.4075  -50.7857 C.3       19 UNK         0.1400 
    106 CB        -4.9957  -18.1396  -51.6469 C.3       19 UNK        -0.1800 
    107 C         -3.6364  -20.2493  -51.2560 C.2       19 UNK         0.5000 
    108 O         -2.5503  -20.0803  -50.7045 O.2       19 UNK        -0.5000 
    109 N         -3.8599  -21.1290  -52.2414 N.am      20 UNK        -0.5000 
    110 CA        -2.9117  -21.9589  -52.9872 C.3       20 UNK         0.1400 
    111 CB        -1.9800  -22.7616  -52.0629 C.3       20 UNK        -0.1800 
    112 C         -2.1160  -21.1233  -54.0042 C.2       20 UNK         0.5000 
    113 O         -1.3578  -20.2349  -53.6172 O.2       20 UNK        -0.5000 
    114 N         -2.3097  -21.4240  -55.2955 N.am      21 UNK        -0.5000 
    115 CA        -1.6741  -20.8353  -56.4860 C.3       21 UNK         0.1400 
    116 CB        -0.1447  -21.0248  -56.4583 C.3       21 UNK        -0.1800 
    117 C         -2.0438  -19.3653  -56.7802 C.2       21 UNK         0.5000 
    118 O         -2.2074  -19.0168  -57.9505 O.2       21 UNK        -0.5000 
    119 N         -2.1689  -18.5352  -55.7396 N.am      22 UNK        -0.5000 
    120 CA        -2.5758  -17.1238  -55.8068 C.3       22 UNK         0.1400 
    121 C         -4.0131  -16.9334  -56.3688 C.2       22 UNK         0.5000 
    122 N         -4.2392  -15.9068  -57.1774 N.am      22 UNK        -0.7600 
    123 O         -4.9335  -17.6792  -56.0419 O.2       22 UNK        -0.5000 
    124 C124       -2.4520  -16.4237  -54.4302 C.3       23 UNK        -0.0398 
    125 S125       -0.7616  -16.4843  -53.7438 S.3       23 UNK        -0.2404 
    126 C126       -1.0935  -17.1358  -52.0783 C.3       23 UNK        -0.0205 
    127 H127       -2.8597  -12.1753  -47.5673 H         1 UNK         0.0600 
    128 H128       -2.3027  -11.8016  -45.9330 H         1 UNK         0.0600 
    129 H129       -2.0829  -13.4269  -46.6045 H         1 UNK         0.0600 
    130 H130        0.2695  -13.2826  -46.2181 H         1 UNK         0.3000 
    131 H131        1.7340  -12.1068  -48.4250 H         1 UNK         0.0600 
    132 H132        3.6595  -13.3215  -47.5774 H         1 UNK         0.0800 
    133 H133        2.9308  -13.5599  -46.0158 H         1 UNK         0.0800 
    134 H134        2.4645  -14.3361  -49.8436 H         1 UNK         0.0800 
    135 H135        3.7489  -15.3783  -49.2629 H         1 UNK         0.0800 
    136 H136        0.3883  -15.2711  -50.7725 H         1 UNK         0.1150 
    137 H137        0.2568  -19.4668  -51.6357 H         1 UNK         0.1150 
    138 H138        3.4645  -17.8597  -49.2839 H         1 UNK         0.1150 
    139 H139        2.1899  -20.8567  -51.1172 H         1 UNK         0.0800 
    140 H140        3.6262  -20.1250  -50.4535 H         1 UNK         0.0800 
    141 H141        0.2684  -21.6705  -49.8967 H         1 UNK         0.0800 
    142 H142       -0.1581  -20.4732  -48.7020 H         1 UNK         0.0800 
    143 H143        0.7492  -23.3148  -47.9999 H         1 UNK         0.0600 
    144 H144        0.2153  -21.1096  -46.3046 H         1 UNK         0.3000 
    145 H145       -0.7491  -23.0169  -43.3972 H         1 UNK         0.0600 
    146 H146        1.0580  -21.6217  -42.4505 H         1 UNK         0.0600 
    147 H147        1.7360  -22.9009  -43.4455 H         1 UNK         0.0600 
    148 H148        1.6670  -21.2568  -44.0629 H         1 UNK         0.0600 
    149 H149       -0.6116  -20.2116  -43.7961 H         1 UNK         0.3000 
    150 H150       -3.9762  -19.7715  -44.9955 H         1 UNK         0.0600 
    151 H151       -4.1766  -19.8455  -42.5390 H         1 UNK         0.0600 
    152 H152       -3.9433  -18.1825  -43.0600 H         1 UNK         0.0600 
    153 H153       -2.6065  -19.0827  -42.3451 H         1 UNK         0.0600 
    154 H154       -1.9303  -17.8697  -44.5110 H         1 UNK         0.3000 
    155 H155       -0.2943  -18.0690  -47.6872 H         1 UNK         0.0600 
    156 H156       -2.0887  -15.9409  -46.3994 H         1 UNK         0.0600 
    157 H157       -0.8582  -15.6516  -47.6292 H         1 UNK         0.0600 
    158 H158       -2.2791  -16.6023  -48.0176 H         1 UNK         0.0600 
    159 H159        0.0977  -16.4875  -45.3123 H         1 UNK         0.3000 
    160 H160        2.4410  -18.7198  -43.7709 H         1 UNK         0.0600 
    161 H161        2.8017  -15.9168  -44.9295 H         1 UNK         0.0600 
    162 H162        3.6815  -17.3303  -45.5013 H         1 UNK         0.0600 
    163 H163        3.8869  -16.7757  -43.8455 H         1 UNK         0.0600 
    164 H164        1.3545  -16.1423  -43.0599 H         1 UNK         0.3000 
    165 H165       -1.4218  -17.3609  -41.2140 H         1 UNK         0.0600 
    166 H166       -0.3188  -16.2837  -39.2746 H         1 UNK         0.0600 
    167 H167        0.4466  -17.8269  -39.6154 H         1 UNK         0.0600 
    168 H168        1.2419  -16.3324  -40.0957 H         1 UNK         0.0600 
    169 H169       -0.2999  -14.7825  -41.2872 H         1 UNK         0.3000 
    170 H170       -1.2960  -13.6272  -44.4028 H         1 UNK         0.0600 
    171 H171       -3.5727  -13.6210  -43.3843 H         1 UNK         0.0600 
    172 H172       -2.8978  -13.1147  -41.8398 H         1 UNK         0.0600 
    173 H173       -2.8155  -12.0433  -43.2393 H         1 UNK         0.0600 
    174 H174       -0.5623  -12.3054  -41.9544 H         1 UNK         0.3000 
    175 H175        1.5888  -11.3061  -41.9429 H         1 UNK         0.0600 
    176 H176        2.7071  -14.0635  -41.1149 H         1 UNK         0.0600 
    177 H177        2.9406  -12.5614  -40.2254 H         1 UNK         0.0600 
    178 H178        1.3440  -13.2656  -40.3396 H         1 UNK         0.0600 
    179 H179        3.2118  -12.5886  -43.8472 H         1 UNK         0.3000 
    180 H180        6.2099  -10.6599  -43.2215 H         1 UNK         0.0600 
    181 H181        5.4234  -13.4638  -44.1906 H         1 UNK         0.0600 
    182 H182        6.4387  -13.1170  -42.7965 H         1 UNK         0.0600 
    183 H183        6.9870  -12.6798  -44.4064 H         1 UNK         0.0600 
    184 H184        4.9201  -11.5544  -45.6465 H         1 UNK         0.3000 
    185 H185        3.3601   -8.5085  -46.4897 H         1 UNK         0.0600 
    186 H186        5.7149   -8.0055  -47.1596 H         1 UNK         0.0600 
    187 H187        5.9269   -9.6636  -47.7081 H         1 UNK         0.0600 
    188 H188        4.7792   -8.5987  -48.5218 H         1 UNK         0.0600 
    189 H189        3.7846  -10.8757  -47.9980 H         1 UNK         0.3000 
    190 H190       -2.3060  -21.5006  -47.4817 H         1 UNK         0.3000 
    191 H191       -3.9547  -22.9550  -49.2167 H         1 UNK         0.0600 
    192 H192       -4.6761  -21.5879  -46.5649 H         1 UNK         0.0600 
    193 H193       -5.8083  -22.0135  -47.8339 H         1 UNK         0.0600 
    194 H194       -4.5746  -20.7964  -48.1299 H         1 UNK         0.0600 
    195 H195       -3.3138  -23.5325  -45.7226 H         1 UNK         0.3000 
    196 H196       -4.9345  -25.8325  -45.4347 H         1 UNK         0.0600 
    197 H197       -3.6203  -26.1586  -43.3283 H         1 UNK         0.0600 
    198 H198       -4.1372  -24.4900  -43.5184 H         1 UNK         0.0600 
    199 H199       -2.4663  -24.9380  -43.8543 H         1 UNK         0.0600 
    200 H200       -1.4573  -25.5361  -46.2919 H         1 UNK         0.3000 
    201 H201       -0.8745  -28.3185  -46.3119 H         1 UNK         0.0600 
    202 H202        0.8842  -26.5941  -46.1675 H         1 UNK         0.0600 
    203 H203        0.4760  -25.9868  -47.7707 H         1 UNK         0.0600 
    204 H204        1.1613  -27.5972  -47.5828 H         1 UNK         0.0600 
    205 H205       -1.9276  -26.1028  -48.9374 H         1 UNK         0.3000 
    206 H206       -1.8890  -28.1316  -50.9986 H         1 UNK         0.0600 
    207 H207       -1.6243  -25.6929  -51.4543 H         1 UNK         0.0600 
    208 H208       -2.9902  -26.3555  -52.3425 H         1 UNK         0.0600 
    209 H209       -3.2729  -25.4034  -50.8896 H         1 UNK         0.0600 
    210 H210       -4.2547  -27.0434  -48.6658 H         1 UNK         0.3000 
    211 H211       -6.3267  -27.5195  -48.1069 H         1 UNK         0.0600 
    212 H212       -6.2075  -30.0200  -49.8789 H         1 UNK         0.0600 
    213 H213       -7.3957  -29.6728  -48.6325 H         1 UNK         0.0600 
    214 H214       -5.7187  -29.9466  -48.1864 H         1 UNK         0.0600 
    215 H215       -5.9726  -25.5273  -49.7749 H         1 UNK         0.3000 
    216 H216       -8.3246  -25.4351  -51.5128 H         1 UNK         0.0600 
    217 H217       -5.4684  -24.9782  -52.5785 H         1 UNK         0.0600 
    218 H218       -6.9510  -24.6625  -53.4732 H         1 UNK         0.0600 
    219 H219       -6.5220  -26.3113  -53.0458 H         1 UNK         0.0600 
    220 H220       -8.6777  -23.1615  -52.2397 H         1 UNK         0.3000 
    221 H221       -8.2758  -21.2707  -50.1163 H         1 UNK         0.0600 
    222 H222       -9.3488  -20.9172  -52.9665 H         1 UNK         0.0600 
    223 H223      -10.3078  -21.2539  -51.5252 H         1 UNK         0.0600 
    224 H224       -9.4610  -19.7225  -51.6800 H         1 UNK         0.0600 
    225 H225       -6.4509  -20.2469  -49.7315 H         1 UNK         0.3000 
    226 H226       -4.6113  -19.0763  -49.7723 H         1 UNK         0.0600 
    227 H227       -5.8327  -17.5293  -51.3081 H         1 UNK         0.0600 
    228 H228       -4.0999  -17.5223  -51.5828 H         1 UNK         0.0600 
    229 H229       -5.1560  -18.3764  -52.6995 H         1 UNK         0.0600 
    230 H230       -4.8082  -21.1265  -52.6117 H         1 UNK         0.3000 
    231 H231       -3.5247  -22.6791  -53.5313 H         1 UNK         0.0600 
    232 H232       -1.2198  -22.1308  -51.6046 H         1 UNK         0.0600 
    233 H233       -1.4580  -23.5388  -52.6211 H         1 UNK         0.0600 
    234 H234       -2.5395  -23.2411  -51.2621 H         1 UNK         0.0600 
    235 H235       -2.9842  -22.1465  -55.5059 H         1 UNK         0.3000 
    236 H236       -2.0529  -21.4169  -57.3280 H         1 UNK         0.0600 
    237 H237        0.3033  -20.6980  -57.3975 H         1 UNK         0.0600 
    238 H238        0.3243  -20.4496  -55.6596 H         1 UNK         0.0600 
    239 H239        0.1210  -22.0726  -56.3188 H         1 UNK         0.0600 
    240 H240       -1.9605  -18.9080  -54.8179 H         1 UNK         0.3000 
    241 H241       -1.8830  -16.6336  -56.4936 H         1 UNK         0.0600 
    242 H242       -5.1705  -15.7628  -57.5363 H         1 UNK         0.3800 
    243 H243       -3.5016  -15.2769  -57.4542 H         1 UNK         0.3800 
    244 H244       -2.7316  -15.3719  -54.5129 H         1 UNK         0.0800 
    245 H245       -3.1533  -16.8672  -53.7225 H         1 UNK         0.0800 
    246 H246       -1.6396  -18.0745  -52.1611 H         1 UNK         0.0800 
    247 H247       -1.7425  -16.4453  -51.5379 H         1 UNK         0.0800 
@<TRIPOS>BOND
     1    1    2 1    
     2    1  127 1    
     3    1  128 1    
     4    1  129 1    
     5    2    3 2    
     6    2    4 am   BACKBONE|DICT|INTERRES
     7    4    5 1    
     8    4  130 1    
     9    5    6 1    
    10    5   65 1    
    11    5  131 1    
    12    6    7 1    
    13    6  132 1    
    14    6  133 1    
    15    7    8 1    
    16    8    9 1    
    17    8  134 1    
    18    8  135 1    
    19    9   10 ar   
    20    9   14 ar   
    21   10   11 ar   
    22   10  136 1    
    23   11   12 ar   
    24   11  126 1    
    25   12   13 ar   
    26   12  137 1    
    27   13   14 ar   
    28   13   15 1    
    29   14  138 1    
    30   15   16 1    
    31   15  139 1    
    32   15  140 1    
    33   16   17 1    
    34   17   18 1    
    35   17  141 1    
    36   17  142 1    
    37   18   19 1    
    38   18   67 1    
    39   18  143 1    
    40   19   20 am   BACKBONE|DICT|INTERRES
    41   19  144 1    
    42   20   21 2    
    43   20   22 1    
    44   22   23 1    
    45   22   24 1    
    46   22  145 1    
    47   23  146 1    
    48   23  147 1    
    49   23  148 1    
    50   24   25 am   BACKBONE|DICT|INTERRES
    51   24  149 1    
    52   25   26 2    
    53   25   27 1    
    54   27   28 1    
    55   27   29 1    
    56   27  150 1    
    57   28  151 1    
    58   28  152 1    
    59   28  153 1    
    60   29   30 am   BACKBONE|DICT|INTERRES
    61   29  154 1    
    62   30   31 2    
    63   30   32 1    
    64   32   33 1    
    65   32   34 1    
    66   32  155 1    
    67   33  156 1    
    68   33  157 1    
    69   33  158 1    
    70   34   35 am   BACKBONE|DICT|INTERRES
    71   34  159 1    
    72   35   36 2    
    73   35   37 1    
    74   37   38 1    
    75   37   39 1    
    76   37  160 1    
    77   38  161 1    
    78   38  162 1    
    79   38  163 1    
    80   39   40 am   BACKBONE|DICT|INTERRES
    81   39  164 1    
    82   40   41 2    
    83   40   42 1    
    84   42   43 1    
    85   42   44 1    
    86   42  165 1    
    87   43  166 1    
    88   43  167 1    
    89   43  168 1    
    90   44   45 am   BACKBONE|DICT|INTERRES
    91   44  169 1    
    92   45   46 2    
    93   45   47 1    
    94   47   48 1    
    95   47   49 1    
    96   47  170 1    
    97   48  171 1    
    98   48  172 1    
    99   48  173 1    
   100   49   50 am   BACKBONE|DICT|INTERRES
   101   49  174 1    
   102   50   51 2    
   103   50   52 1    
   104   52   53 1    
   105   52   54 1    
   106   52  175 1    
   107   53  176 1    
   108   53  177 1    
   109   53  178 1    
   110   54   55 am   BACKBONE|DICT|INTERRES
   111   54  179 1    
   112   55   56 2    
   113   55   57 1    
   114   57   58 1    
   115   57   59 1    
   116   57  180 1    
   117   58  181 1    
   118   58  182 1    
   119   58  183 1    
   120   59   60 am   BACKBONE|DICT|INTERRES
   121   59  184 1    
   122   60   61 2    
   123   60   62 1    
   124   62   63 1    
   125   62   64 1    
   126   62  185 1    
   127   63  186 1    
   128   63  187 1    
   129   63  188 1    
   130   64   65 am   BACKBONE|DICT|INTERRES
   131   64  189 1    
   132   65   66 2    
   133   67   68 2    
   134   67   69 am   BACKBONE|DICT|INTERRES
   135   69   70 1    
   136   69  190 1    
   137   70   71 1    
   138   70   72 1    
   139   70  191 1    
   140   71  192 1    
   141   71  193 1    
   142   71  194 1    
   143   72   73 2    
   144   72   74 am   BACKBONE|DICT|INTERRES
   145   74   75 1    
   146   74  195 1    
   147   75   76 1    
   148   75   77 1    
   149   75  196 1    
   150   76  197 1    
   151   76  198 1    
   152   76  199 1    
   153   77   78 2    
   154   77   79 am   BACKBONE|DICT|INTERRES
   155   79   80 1    
   156   79  200 1    
   157   80   81 1    
   158   80   82 1    
   159   80  201 1    
   160   81  202 1    
   161   81  203 1    
   162   81  204 1    
   163   82   83 2    
   164   82   84 am   BACKBONE|DICT|INTERRES
   165   84   85 1    
   166   84  205 1    
   167   85   86 1    
   168   85   87 1    
   169   85  206 1    
   170   86  207 1    
   171   86  208 1    
   172   86  209 1    
   173   87   88 2    
   174   87   89 am   BACKBONE|DICT|INTERRES
   175   89   90 1    
   176   89  210 1    
   177   90   91 1    
   178   90   92 1    
   179   90  211 1    
   180   91  212 1    
   181   91  213 1    
   182   91  214 1    
   183   92   93 2    
   184   92   94 am   BACKBONE|DICT|INTERRES
   185   94   95 1    
   186   94  215 1    
   187   95   96 1    
   188   95   97 1    
   189   95  216 1    
   190   96  217 1    
   191   96  218 1    
   192   96  219 1    
   193   97   98 2    
   194   97   99 am   BACKBONE|DICT|INTERRES
   195   99  100 1    
   196   99  220 1    
   197  100  101 1    
   198  100  102 1    
   199  100  221 1    
   200  101  222 1    
   201  101  223 1    
   202  101  224 1    
   203  102  103 2    
   204  102  104 am   BACKBONE|DICT|INTERRES
   205  104  105 1    
   206  104  225 1    
   207  105  106 1    
   208  105  107 1    
   209  105  226 1    
   210  106  227 1    
   211  106  228 1    
   212  106  229 1    
   213  107  108 2    
   214  107  109 am   BACKBONE|DICT|INTERRES
   215  109  110 1    
   216  109  230 1    
   217  110  111 1    
   218  110  112 1    
   219  110  231 1    
   220  111  232 1    
   221  111  233 1    
   222  111  234 1    
   223  112  113 2    
   224  112  114 am   BACKBONE|DICT|INTERRES
   225  114  115 1    
   226  114  235 1    
   227  115  116 1    
   228  115  117 1    
   229  115  236 1    
   230  116  237 1    
   231  116  238 1    
   232  116  239 1    
   233  117  118 2    
   234  117  119 am   BACKBONE|DICT|INTERRES
   235  119  120 1    
   236  119  240 1    
   237  120  121 1    
   238  120  124 1    
   239  120  241 1    
   240  121  122 am   BACKBONE|DICT|INTERRES
   241  121  123 2    
   242  122  242 1    
   243  122  243 1    
   244  124  125 1    
   245  124  244 1    
   246  124  245 1    
   247  125  126 1    
   248  126  246 1    
   249  126  247 1    
@<TRIPOS>SUBSTRUCTURE
     1 UNK         1 GROUP             0       ****    0 ROOT    
