@<TRIPOS>MOLECULE
3R540
247   249    1
SMALL
USER_CHARGES


@<TRIPOS>ATOM
      1 CA          3.0378  -10.9161  -44.5821 C.3       0 UNK        -0.1800 
      2 C           2.5319  -11.5902  -45.8488 C.2       0 UNK         0.5000 
      3 O           1.8422  -10.9572  -46.6485 O.2       0 UNK        -0.5000 
      4 N           2.8969  -12.8628  -46.0552 N.am      1 UNK        -0.5000 
      5 CA          2.4664  -13.7085  -47.1792 C.3       1 UNK         0.1400 
      6 C6          2.5891  -15.2184  -46.8670 C.3       23 UNK        -0.0398 
      7 S7          4.2560  -15.7851  -46.3888 S.3       23 UNK        -0.2404 
      8 C8          4.8800  -16.4946  -47.9463 C.3       23 UNK        -0.0205 
      9 C9          4.1214  -17.7386  -48.3937 C.ar      23 UNK        -0.0193 
     10 C10         3.3239  -17.7032  -49.5427 C.ar      23 UNK        -0.1150 
     11 C11         2.7091  -18.8660  -50.0177 C.ar      23 UNK        -0.0193 
     12 C12         2.8673  -20.0634  -49.3149 C.ar      23 UNK        -0.1150 
     13 C13         3.6534  -20.1110  -48.1598 C.ar      23 UNK        -0.0193 
     14 C14         4.2779  -18.9452  -47.7049 C.ar      23 UNK        -0.1150 
     15 C15         3.8869  -21.4341  -47.4437 C.3       23 UNK        -0.0205 
     16 S16         3.0365  -21.5203  -45.8388 S.3       23 UNK        -0.2404 
     17 C17         1.2962  -21.6981  -46.3510 C.3       23 UNK        -0.0398 
     18 CA          0.7879  -23.1551  -46.3276 C.3       11 UNK         0.1400 
     19 N           1.0105  -23.7932  -45.0270 N.am      11 UNK        -0.5000 
     20 C           0.8342  -25.0907  -44.7499 C.2       10 UNK         0.5000 
     21 O           0.4469  -25.9185  -45.5738 O.2       10 UNK        -0.5000 
     22 CA          1.0762  -25.5095  -43.2891 C.3       10 UNK         0.1400 
     23 CB          2.5799  -25.6209  -42.9965 C.3       10 UNK        -0.1800 
     24 N           0.4625  -24.5666  -42.3513 N.am      10 UNK        -0.5000 
     25 C          -0.8611  -24.4300  -42.1862 C.2       9 UNK         0.5000 
     26 O          -1.6912  -25.1577  -42.7304 O.2       9 UNK        -0.5000 
     27 CA         -1.3432  -23.2684  -41.2927 C.3       9 UNK         0.1400 
     28 CB         -1.5308  -23.7474  -39.8455 C.3       9 UNK        -0.1800 
     29 N          -0.4641  -22.0927  -41.3007 N.am      9 UNK        -0.5000 
     30 C          -0.1755  -21.3545  -42.3813 C.2       8 UNK         0.5000 
     31 O          -0.5837  -21.6236  -43.5122 O.2       8 UNK        -0.5000 
     32 CA          0.7720  -20.1577  -42.1570 C.3       8 UNK         0.1400 
     33 CB          2.2103  -20.6551  -41.9376 C.3       8 UNK        -0.1800 
     34 N           0.7824  -19.1979  -43.2653 N.am      8 UNK        -0.5000 
     35 C          -0.2535  -18.4423  -43.6529 C.2       7 UNK         0.5000 
     36 O          -1.3560  -18.4551  -43.0970 O.2       7 UNK        -0.5000 
     37 CA         -0.0189  -17.4982  -44.8491 C.3       7 UNK         0.1400 
     38 CB          0.7948  -18.1568  -45.9837 C.3       7 UNK        -0.1800 
     39 N          -1.3229  -17.0470  -45.3281 N.am      7 UNK        -0.5000 
     40 C          -1.5614  -16.0575  -46.1934 C.2       6 UNK         0.5000 
     41 O          -0.6836  -15.4024  -46.7615 O.2       6 UNK        -0.5000 
     42 CA         -3.0383  -15.7362  -46.4560 C.3       6 UNK         0.1400 
     43 CB         -3.6455  -14.9093  -45.3080 C.3       6 UNK        -0.1800 
     44 N          -3.1351  -15.0071  -47.7124 N.am      6 UNK        -0.5000 
     45 C          -4.2210  -14.8957  -48.4867 C.2       5 UNK         0.5000 
     46 O          -5.3289  -15.3331  -48.1746 O.2       5 UNK        -0.5000 
     47 CA         -4.0531  -14.1582  -49.8315 C.3       5 UNK         0.1400 
     48 CB         -4.8262  -12.8297  -49.8235 C.3       5 UNK        -0.1800 
     49 N          -2.6515  -13.8751  -50.1357 N.am      5 UNK        -0.5000 
     50 C          -1.7967  -14.6916  -50.7597 C.2       4 UNK         0.5000 
     51 O          -2.1345  -15.7616  -51.2717 O.2       4 UNK        -0.5000 
     52 CA         -0.3150  -14.2427  -50.7976 C.3       4 UNK         0.1400 
     53 CB          0.4663  -14.8947  -51.9489 C.3       4 UNK        -0.1800 
     54 N          -0.0875  -12.7927  -50.8606 N.am      4 UNK        -0.5000 
     55 C          -0.2762  -11.9077  -49.8744 C.2       3 UNK         0.5000 
     56 O          -0.8391  -12.1809  -48.8134 O.2       3 UNK        -0.5000 
     57 CA          0.3453  -10.5167  -50.0876 C.3       3 UNK         0.1400 
     58 CB         -0.3268   -9.4319  -49.2284 C.3       3 UNK        -0.1800 
     59 N           1.7500  -10.6217  -49.7095 N.am      3 UNK        -0.5000 
     60 C           2.7428  -10.9738  -50.5407 C.2       2 UNK         0.5000 
     61 O           2.6354  -10.9893  -51.7673 O.2       2 UNK        -0.5000 
     62 CA          4.0470  -11.4725  -49.8806 C.3       2 UNK         0.1400 
     63 CB          4.9983  -10.3012  -49.5954 C.3       2 UNK        -0.1800 
     64 N           3.7752  -12.1913  -48.6332 N.am      2 UNK        -0.5000 
     65 C           3.0646  -13.3265  -48.5541 C.2       1 UNK         0.5000 
     66 O           2.8235  -14.0310  -49.5339 O.2       1 UNK        -0.5000 
     67 C          -0.6978  -23.1968  -46.7377 C.2       11 UNK         0.5000 
     68 O          -1.0025  -23.3449  -47.9208 O.2       11 UNK        -0.5000 
     69 N          -1.5990  -23.1006  -45.7515 N.am      12 UNK        -0.5000 
     70 CA         -3.0466  -23.2426  -45.9066 C.3       12 UNK         0.1400 
     71 CB         -3.7325  -22.8974  -44.5785 C.3       12 UNK        -0.1800 
     72 C          -3.4872  -24.6349  -46.3982 C.2       12 UNK         0.5000 
     73 O          -4.5623  -24.7418  -46.9859 O.2       12 UNK        -0.5000 
     74 N          -2.6546  -25.6594  -46.1742 N.am      13 UNK        -0.5000 
     75 CA         -2.8408  -27.0056  -46.7067 C.3       13 UNK         0.1400 
     76 CB         -2.4207  -28.0356  -45.6455 C.3       13 UNK        -0.1800 
     77 C          -2.0396  -27.1969  -48.0059 C.2       13 UNK         0.5000 
     78 O          -2.5957  -27.6745  -48.9948 O.2       13 UNK        -0.5000 
     79 N          -0.7487  -26.8353  -47.9792 N.am      14 UNK        -0.5000 
     80 CA          0.2120  -27.1066  -49.0501 C.3       14 UNK         0.1400 
     81 CB          1.6374  -26.9161  -48.5080 C.3       14 UNK        -0.1800 
     82 C           0.0045  -26.2593  -50.3177 C.2       14 UNK         0.5000 
     83 O           0.1211  -26.7916  -51.4225 O.2       14 UNK        -0.5000 
     84 N          -0.2784  -24.9635  -50.1396 N.am      15 UNK        -0.5000 
     85 CA         -0.4309  -23.9825  -51.2179 C.3       15 UNK         0.1400 
     86 CB          0.5352  -22.8133  -50.9528 C.3       15 UNK        -0.1800 
     87 C          -1.8749  -23.4633  -51.3364 C.2       15 UNK         0.5000 
     88 O          -2.1550  -22.6974  -52.2570 O.2       15 UNK        -0.5000 
     89 N          -2.7500  -23.8619  -50.3992 N.am      16 UNK        -0.5000 
     90 CA         -4.1243  -23.3828  -50.2021 C.3       16 UNK         0.1400 
     91 CB         -5.0148  -23.6945  -51.4236 C.3       16 UNK        -0.1800 
     92 C          -4.1899  -21.8979  -49.7814 C.2       16 UNK         0.5000 
     93 O          -5.2127  -21.2505  -50.0047 O.2       16 UNK        -0.5000 
     94 N          -3.1073  -21.3923  -49.1679 N.am      17 UNK        -0.5000 
     95 CA         -2.8538  -19.9781  -48.8841 C.3       17 UNK         0.1400 
     96 CB         -1.5197  -19.8369  -48.1424 C.3       17 UNK        -0.1800 
     97 C          -3.9885  -19.2658  -48.1281 C.2       17 UNK         0.5000 
     98 O          -4.6344  -18.3901  -48.6951 O.2       17 UNK        -0.5000 
     99 N          -4.2460  -19.6695  -46.8775 N.am      18 UNK        -0.5000 
    100 CA        -5.3307  -19.1079  -46.0637 C.3       18 UNK         0.1400 
    101 CB        -5.0435  -19.3787  -44.5791 C.3       18 UNK        -0.1800 
    102 C         -6.7272  -19.6288  -46.4594 C.2       18 UNK         0.5000 
    103 O         -7.7254  -19.0618  -46.0138 O.2       18 UNK        -0.5000 
    104 N         -6.7811  -20.6979  -47.2656 N.am      19 UNK        -0.5000 
    105 CA        -8.0190  -21.3098  -47.7376 C.3       19 UNK         0.1400 
    106 CB        -7.7590  -22.7757  -48.1220 C.3       19 UNK        -0.1800 
    107 C         -8.6441  -20.5282  -48.9060 C.2       19 UNK         0.5000 
    108 O         -9.8417  -20.2427  -48.8601 O.2       19 UNK        -0.5000 
    109 N         -7.8424  -20.2077  -49.9323 N.am      20 UNK        -0.5000 
    110 CA        -8.3245  -19.6254  -51.1880 C.3       20 UNK         0.1400 
    111 CB        -8.9708  -20.7312  -52.0517 C.3       20 UNK        -0.1800 
    112 C         -7.2393  -18.8485  -51.9614 C.2       20 UNK         0.5000 
    113 O         -7.3832  -18.6870  -53.1748 O.2       20 UNK        -0.5000 
    114 N         -6.1946  -18.3707  -51.2653 N.am      21 UNK        -0.5000 
    115 CA        -4.9803  -17.7241  -51.7896 C.3       21 UNK         0.1400 
    116 CB        -5.3071  -16.5213  -52.7013 C.3       21 UNK        -0.1800 
    117 C         -4.0299  -18.7189  -52.4856 C.2       21 UNK         0.5000 
    118 O         -4.4495  -19.7883  -52.9327 O.2       21 UNK        -0.5000 
    119 N         -2.7500  -18.3378  -52.5802 N.am      22 UNK        -0.5000 
    120 CA        -1.7101  -19.1253  -53.2685 C.3       22 UNK         0.1400 
    121 C         -1.8773  -19.2156  -54.8173 C.2       22 UNK         0.5000 
    122 N         -2.6932  -18.3831  -55.4537 N.am      22 UNK        -0.7600 
    123 O         -1.2480  -20.0549  -55.4557 O.2       22 UNK        -0.5000 
    124 C124       -0.2841  -18.6306  -52.9280 C.3       23 UNK        -0.0398 
    125 S125        0.1586  -18.7639  -51.1612 S.3       23 UNK        -0.2404 
    126 C126        1.9660  -18.8533  -51.3448 C.3       23 UNK        -0.0205 
    127 H127        2.1964  -10.5879  -43.9718 H         1 UNK         0.0600 
    128 H128        3.6376  -10.0421  -44.8359 H         1 UNK         0.0600 
    129 H129        3.6517  -11.5884  -43.9823 H         1 UNK         0.0600 
    130 H130        3.4982  -13.3206  -45.3841 H         1 UNK         0.3000 
    131 H131        1.3963  -13.5229  -47.2999 H         1 UNK         0.0600 
    132 H132        1.9323  -15.4457  -46.0285 H         1 UNK         0.0800 
    133 H133        2.2084  -15.8152  -47.6963 H         1 UNK         0.0800 
    134 H134        4.8636  -15.7311  -48.7248 H         1 UNK         0.0800 
    135 H135        5.9300  -16.7564  -47.8092 H         1 UNK         0.0800 
    136 H136        3.2174  -16.7782  -50.0928 H         1 UNK         0.1150 
    137 H137        2.4077  -20.9656  -49.6911 H         1 UNK         0.1150 
    138 H138        4.9049  -18.9819  -46.8250 H         1 UNK         0.1150 
    139 H139        3.5748  -22.2756  -48.0642 H         1 UNK         0.0800 
    140 H140        4.9574  -21.5616  -47.2776 H         1 UNK         0.0800 
    141 H141        0.7060  -21.1013  -45.6586 H         1 UNK         0.0800 
    142 H142        1.1580  -21.2544  -47.3376 H         1 UNK         0.0800 
    143 H143        1.3470  -23.7218  -47.0744 H         1 UNK         0.0600 
    144 H144        1.2904  -23.1745  -44.2811 H         1 UNK         0.3000 
    145 H145        0.6245  -26.4929  -43.1415 H         1 UNK         0.0600 
    146 H146        2.7578  -25.9803  -41.9828 H         1 UNK         0.0600 
    147 H147        3.0580  -26.3252  -43.6787 H         1 UNK         0.0600 
    148 H148        3.0876  -24.6616  -43.1063 H         1 UNK         0.0600 
    149 H149        1.0786  -23.9409  -41.8542 H         1 UNK         0.3000 
    150 H150       -2.3161  -22.9508  -41.6735 H         1 UNK         0.0600 
    151 H151       -2.2013  -24.6069  -39.8019 H         1 UNK         0.0600 
    152 H152       -1.9679  -22.9655  -39.2240 H         1 UNK         0.0600 
    153 H153       -0.5839  -24.0465  -39.3944 H         1 UNK         0.0600 
    154 H154       -0.0794  -21.8196  -40.4078 H         1 UNK         0.3000 
    155 H155        0.4410  -19.6296  -41.2605 H         1 UNK         0.0600 
    156 H156        2.8898  -19.8245  -41.7453 H         1 UNK         0.0600 
    157 H157        2.5851  -21.1990  -42.8054 H         1 UNK         0.0600 
    158 H158        2.2740  -21.3246  -41.0790 H         1 UNK         0.0600 
    159 H159        1.6409  -19.1442  -43.7927 H         1 UNK         0.3000 
    160 H160        0.5250  -16.6298  -44.4736 H         1 UNK         0.0600 
    161 H161        0.3261  -19.0769  -46.3121 H         1 UNK         0.0600 
    162 H162        1.8133  -18.3908  -45.6717 H         1 UNK         0.0600 
    163 H163        0.8744  -17.5194  -46.8616 H         1 UNK         0.0600 
    164 H164       -2.0926  -17.4944  -44.8448 H         1 UNK         0.3000 
    165 H165       -3.5748  -16.6791  -46.5566 H         1 UNK         0.0600 
    166 H166       -3.1370  -13.9506  -45.1943 H         1 UNK         0.0600 
    167 H167       -4.7033  -14.7091  -45.4788 H         1 UNK         0.0600 
    168 H168       -3.5679  -15.4387  -44.3574 H         1 UNK         0.0600 
    169 H169       -2.2520  -14.6272  -48.0322 H         1 UNK         0.3000 
    170 H170       -4.4731  -14.7945  -50.6109 H         1 UNK         0.0600 
    171 H171       -5.8871  -12.9947  -49.6307 H         1 UNK         0.0600 
    172 H172       -4.4528  -12.1520  -49.0541 H         1 UNK         0.0600 
    173 H173       -4.7472  -12.3222  -50.7854 H         1 UNK         0.0600 
    174 H174       -2.2518  -13.0526  -49.6929 H         1 UNK         0.3000 
    175 H175        0.1276  -14.5973  -49.8643 H         1 UNK         0.0600 
    176 H176        0.0032  -14.6982  -52.9164 H         1 UNK         0.0600 
    177 H177        1.4954  -14.5364  -51.9859 H         1 UNK         0.0600 
    178 H178        0.5173  -15.9717  -51.8111 H         1 UNK         0.0600 
    179 H179        0.3906  -12.4698  -51.6902 H         1 UNK         0.3000 
    180 H180        0.2433  -10.2361  -51.1381 H         1 UNK         0.0600 
    181 H181       -0.2365   -9.6430  -48.1619 H         1 UNK         0.0600 
    182 H182       -1.3897   -9.3548  -49.4605 H         1 UNK         0.0600 
    183 H183        0.1194   -8.4546  -49.4124 H         1 UNK         0.0600 
    184 H184        1.9178  -10.6799  -48.7099 H         1 UNK         0.3000 
    185 H185        4.5371  -12.1594  -50.5738 H         1 UNK         0.0600 
    186 H186        5.9416  -10.6525  -49.1767 H         1 UNK         0.0600 
    187 H187        5.2321   -9.7577  -50.5117 H         1 UNK         0.0600 
    188 H188        4.5627   -9.5894  -48.8929 H         1 UNK         0.0600 
    189 H189        3.9312  -11.6809  -47.7765 H         1 UNK         0.3000 
    190 H190       -1.2600  -22.8820  -44.8186 H         1 UNK         0.3000 
    191 H191       -3.3698  -22.5175  -46.6532 H         1 UNK         0.0600 
    192 H192       -4.8131  -22.8255  -44.7075 H         1 UNK         0.0600 
    193 H193       -3.3787  -21.9450  -44.1836 H         1 UNK         0.0600 
    194 H194       -3.5482  -23.6585  -43.8214 H         1 UNK         0.0600 
    195 H195       -1.7916  -25.4844  -45.6767 H         1 UNK         0.3000 
    196 H196       -3.8950  -27.1781  -46.9340 H         1 UNK         0.0600 
    197 H197       -2.5553  -29.0530  -46.0148 H         1 UNK         0.0600 
    198 H198       -3.0234  -27.9347  -44.7426 H         1 UNK         0.0600 
    199 H199       -1.3744  -27.9260  -45.3592 H         1 UNK         0.0600 
    200 H200       -0.3584  -26.4727  -47.1119 H         1 UNK         0.3000 
    201 H201        0.1031  -28.1550  -49.3365 H         1 UNK         0.0600 
    202 H202        1.8285  -27.5764  -47.6618 H         1 UNK         0.0600 
    203 H203        1.8093  -25.8916  -48.1765 H         1 UNK         0.0600 
    204 H204        2.3814  -27.1436  -49.2725 H         1 UNK         0.0600 
    205 H205       -0.3858  -24.5989  -49.1977 H         1 UNK         0.3000 
    206 H206       -0.1711  -24.4234  -52.1822 H         1 UNK         0.0600 
    207 H207        1.5661  -23.1611  -50.8871 H         1 UNK         0.0600 
    208 H208        0.4924  -22.0772  -51.7568 H         1 UNK         0.0600 
    209 H209        0.2966  -22.2934  -50.0248 H         1 UNK         0.0600 
    210 H210       -2.4021  -24.4905  -49.6894 H         1 UNK         0.3000 
    211 H211       -4.5273  -23.9521  -49.3677 H         1 UNK         0.0600 
    212 H212       -4.7587  -23.0736  -52.2826 H         1 UNK         0.0600 
    213 H213       -6.0657  -23.5110  -51.1977 H         1 UNK         0.0600 
    214 H214       -4.9255  -24.7388  -51.7223 H         1 UNK         0.0600 
    215 H215       -2.3338  -22.0239  -48.9985 H         1 UNK         0.3000 
    216 H216       -2.7456  -19.4806  -49.8492 H         1 UNK         0.0600 
    217 H217       -1.5470  -20.3021  -47.1571 H         1 UNK         0.0600 
    218 H218       -1.2701  -18.7834  -48.0107 H         1 UNK         0.0600 
    219 H219       -0.7047  -20.2925  -48.7043 H         1 UNK         0.0600 
    220 H220       -3.6835  -20.3936  -46.4588 H         1 UNK         0.3000 
    221 H221       -5.3522  -18.0260  -46.2040 H         1 UNK         0.0600 
    222 H222       -5.7317  -18.8184  -43.9456 H         1 UNK         0.0600 
    223 H223       -5.1667  -20.4313  -44.3307 H         1 UNK         0.0600 
    224 H224       -4.0328  -19.0787  -44.3027 H         1 UNK         0.0600 
    225 H225       -5.9191  -21.0683  -47.6357 H         1 UNK         0.3000 
    226 H226       -8.7390  -21.3123  -46.9161 H         1 UNK         0.0600 
    227 H227       -7.3489  -23.3376  -47.2824 H         1 UNK         0.0600 
    228 H228       -8.6853  -23.2676  -48.4209 H         1 UNK         0.0600 
    229 H229       -7.0620  -22.8647  -48.9541 H         1 UNK         0.0600 
    230 H230       -6.8678  -20.5088  -49.9216 H         1 UNK         0.3000 
    231 H231       -9.0929  -18.8860  -50.9538 H         1 UNK         0.0600 
    232 H232       -9.3932  -20.3241  -52.9710 H         1 UNK         0.0600 
    233 H233       -9.7851  -21.2289  -51.5254 H         1 UNK         0.0600 
    234 H234       -8.2398  -21.4908  -52.3315 H         1 UNK         0.0600 
    235 H235       -6.1505  -18.5683  -50.2728 H         1 UNK         0.3000 
    236 H236       -4.4499  -17.3266  -50.9256 H         1 UNK         0.0600 
    237 H237       -6.0450  -15.8638  -52.2419 H         1 UNK         0.0600 
    238 H238       -4.4141  -15.9248  -52.8901 H         1 UNK         0.0600 
    239 H239       -5.6909  -16.8321  -53.6729 H         1 UNK         0.0600 
    240 H240       -2.4586  -17.4506  -52.1764 H         1 UNK         0.3000 
    241 H241       -1.7917  -20.1494  -52.9015 H         1 UNK         0.0600 
    242 H242       -3.2181  -17.6910  -54.9448 H         1 UNK         0.3800 
    243 H243       -2.7924  -18.4539  -56.4542 H         1 UNK         0.3800 
    244 H244        0.4495  -19.2072  -53.4949 H         1 UNK         0.0800 
    245 H245       -0.1621  -17.5958  -53.2483 H         1 UNK         0.0800 
    246 H246        2.3034  -18.0100  -51.9498 H         1 UNK         0.0800 
    247 H247        2.2234  -19.7523  -51.9070 H         1 UNK         0.0800 
@<TRIPOS>BOND
     1    1    2 1    
     2    1  127 1    
     3    1  128 1    
     4    1  129 1    
     5    2    3 2    
     6    2    4 am   BACKBONE|DICT|INTERRES
     7    4    5 1    
     8    4  130 1    
     9    5    6 1    
    10    5   65 1    
    11    5  131 1    
    12    6    7 1    
    13    6  132 1    
    14    6  133 1    
    15    7    8 1    
    16    8    9 1    
    17    8  134 1    
    18    8  135 1    
    19    9   10 ar   
    20    9   14 ar   
    21   10   11 ar   
    22   10  136 1    
    23   11   12 ar   
    24   11  126 1    
    25   12   13 ar   
    26   12  137 1    
    27   13   14 ar   
    28   13   15 1    
    29   14  138 1    
    30   15   16 1    
    31   15  139 1    
    32   15  140 1    
    33   16   17 1    
    34   17   18 1    
    35   17  141 1    
    36   17  142 1    
    37   18   19 1    
    38   18   67 1    
    39   18  143 1    
    40   19   20 am   BACKBONE|DICT|INTERRES
    41   19  144 1    
    42   20   21 2    
    43   20   22 1    
    44   22   23 1    
    45   22   24 1    
    46   22  145 1    
    47   23  146 1    
    48   23  147 1    
    49   23  148 1    
    50   24   25 am   BACKBONE|DICT|INTERRES
    51   24  149 1    
    52   25   26 2    
    53   25   27 1    
    54   27   28 1    
    55   27   29 1    
    56   27  150 1    
    57   28  151 1    
    58   28  152 1    
    59   28  153 1    
    60   29   30 am   BACKBONE|DICT|INTERRES
    61   29  154 1    
    62   30   31 2    
    63   30   32 1    
    64   32   33 1    
    65   32   34 1    
    66   32  155 1    
    67   33  156 1    
    68   33  157 1    
    69   33  158 1    
    70   34   35 am   BACKBONE|DICT|INTERRES
    71   34  159 1    
    72   35   36 2    
    73   35   37 1    
    74   37   38 1    
    75   37   39 1    
    76   37  160 1    
    77   38  161 1    
    78   38  162 1    
    79   38  163 1    
    80   39   40 am   BACKBONE|DICT|INTERRES
    81   39  164 1    
    82   40   41 2    
    83   40   42 1    
    84   42   43 1    
    85   42   44 1    
    86   42  165 1    
    87   43  166 1    
    88   43  167 1    
    89   43  168 1    
    90   44   45 am   BACKBONE|DICT|INTERRES
    91   44  169 1    
    92   45   46 2    
    93   45   47 1    
    94   47   48 1    
    95   47   49 1    
    96   47  170 1    
    97   48  171 1    
    98   48  172 1    
    99   48  173 1    
   100   49   50 am   BACKBONE|DICT|INTERRES
   101   49  174 1    
   102   50   51 2    
   103   50   52 1    
   104   52   53 1    
   105   52   54 1    
   106   52  175 1    
   107   53  176 1    
   108   53  177 1    
   109   53  178 1    
   110   54   55 am   BACKBONE|DICT|INTERRES
   111   54  179 1    
   112   55   56 2    
   113   55   57 1    
   114   57   58 1    
   115   57   59 1    
   116   57  180 1    
   117   58  181 1    
   118   58  182 1    
   119   58  183 1    
   120   59   60 am   BACKBONE|DICT|INTERRES
   121   59  184 1    
   122   60   61 2    
   123   60   62 1    
   124   62   63 1    
   125   62   64 1    
   126   62  185 1    
   127   63  186 1    
   128   63  187 1    
   129   63  188 1    
   130   64   65 am   BACKBONE|DICT|INTERRES
   131   64  189 1    
   132   65   66 2    
   133   67   68 2    
   134   67   69 am   BACKBONE|DICT|INTERRES
   135   69   70 1    
   136   69  190 1    
   137   70   71 1    
   138   70   72 1    
   139   70  191 1    
   140   71  192 1    
   141   71  193 1    
   142   71  194 1    
   143   72   73 2    
   144   72   74 am   BACKBONE|DICT|INTERRES
   145   74   75 1    
   146   74  195 1    
   147   75   76 1    
   148   75   77 1    
   149   75  196 1    
   150   76  197 1    
   151   76  198 1    
   152   76  199 1    
   153   77   78 2    
   154   77   79 am   BACKBONE|DICT|INTERRES
   155   79   80 1    
   156   79  200 1    
   157   80   81 1    
   158   80   82 1    
   159   80  201 1    
   160   81  202 1    
   161   81  203 1    
   162   81  204 1    
   163   82   83 2    
   164   82   84 am   BACKBONE|DICT|INTERRES
   165   84   85 1    
   166   84  205 1    
   167   85   86 1    
   168   85   87 1    
   169   85  206 1    
   170   86  207 1    
   171   86  208 1    
   172   86  209 1    
   173   87   88 2    
   174   87   89 am   BACKBONE|DICT|INTERRES
   175   89   90 1    
   176   89  210 1    
   177   90   91 1    
   178   90   92 1    
   179   90  211 1    
   180   91  212 1    
   181   91  213 1    
   182   91  214 1    
   183   92   93 2    
   184   92   94 am   BACKBONE|DICT|INTERRES
   185   94   95 1    
   186   94  215 1    
   187   95   96 1    
   188   95   97 1    
   189   95  216 1    
   190   96  217 1    
   191   96  218 1    
   192   96  219 1    
   193   97   98 2    
   194   97   99 am   BACKBONE|DICT|INTERRES
   195   99  100 1    
   196   99  220 1    
   197  100  101 1    
   198  100  102 1    
   199  100  221 1    
   200  101  222 1    
   201  101  223 1    
   202  101  224 1    
   203  102  103 2    
   204  102  104 am   BACKBONE|DICT|INTERRES
   205  104  105 1    
   206  104  225 1    
   207  105  106 1    
   208  105  107 1    
   209  105  226 1    
   210  106  227 1    
   211  106  228 1    
   212  106  229 1    
   213  107  108 2    
   214  107  109 am   BACKBONE|DICT|INTERRES
   215  109  110 1    
   216  109  230 1    
   217  110  111 1    
   218  110  112 1    
   219  110  231 1    
   220  111  232 1    
   221  111  233 1    
   222  111  234 1    
   223  112  113 2    
   224  112  114 am   BACKBONE|DICT|INTERRES
   225  114  115 1    
   226  114  235 1    
   227  115  116 1    
   228  115  117 1    
   229  115  236 1    
   230  116  237 1    
   231  116  238 1    
   232  116  239 1    
   233  117  118 2    
   234  117  119 am   BACKBONE|DICT|INTERRES
   235  119  120 1    
   236  119  240 1    
   237  120  121 1    
   238  120  124 1    
   239  120  241 1    
   240  121  122 am   BACKBONE|DICT|INTERRES
   241  121  123 2    
   242  122  242 1    
   243  122  243 1    
   244  124  125 1    
   245  124  244 1    
   246  124  245 1    
   247  125  126 1    
   248  126  246 1    
   249  126  247 1    
@<TRIPOS>SUBSTRUCTURE
     1 UNK         1 GROUP             0       ****    0 ROOT    
