@<TRIPOS>MOLECULE
3R540
247   249    1
SMALL
USER_CHARGES


@<TRIPOS>ATOM
      1 CA          0.2160  -11.9304  -45.8505 C.3       0 UNK        -0.1800 
      2 C           1.4358  -11.6253  -46.7019 C.2       0 UNK         0.5000 
      3 O           1.4545  -10.6182  -47.4094 O.2       0 UNK        -0.5000 
      4 N           2.4428  -12.5054  -46.6483 N.am      1 UNK        -0.5000 
      5 CA          3.6541  -12.4438  -47.4755 C.3       1 UNK         0.1400 
      6 C6          4.4603  -13.7663  -47.4511 C.3       23 UNK        -0.0398 
      7 S7          3.4309  -15.2348  -47.7730 S.3       23 UNK        -0.2404 
      8 C8          3.3854  -15.2441  -49.5871 C.3       23 UNK        -0.0205 
      9 C9          2.4678  -16.3435  -50.0922 C.ar      23 UNK        -0.0193 
     10 C10         1.1437  -16.0590  -50.4373 C.ar      23 UNK        -0.1150 
     11 C11         0.2986  -17.0690  -50.9101 C.ar      23 UNK        -0.0193 
     12 C12         0.7904  -18.3725  -51.0296 C.ar      23 UNK        -0.1150 
     13 C13         2.1044  -18.6740  -50.6567 C.ar      23 UNK        -0.0193 
     14 C14         2.9405  -17.6529  -50.1994 C.ar      23 UNK        -0.1150 
     15 C15         2.6251  -20.1012  -50.7292 C.3       23 UNK        -0.0205 
     16 S16         2.3041  -21.0079  -49.1813 S.3       23 UNK        -0.2404 
     17 C17         0.5401  -21.4016  -49.3970 C.3       23 UNK        -0.0398 
     18 CA          0.0047  -22.3961  -48.3446 C.3       11 UNK         0.1400 
     19 N           0.0167  -21.8444  -46.9868 N.am      11 UNK        -0.5000 
     20 C          -0.2034  -22.5649  -45.8780 C.2       10 UNK         0.5000 
     21 O          -0.4075  -23.7787  -45.8815 O.2       10 UNK        -0.5000 
     22 CA         -0.2538  -21.7974  -44.5439 C.3       10 UNK         0.1400 
     23 CB          1.1633  -21.5982  -43.9866 C.3       10 UNK        -0.1800 
     24 N          -0.9323  -20.5031  -44.6421 N.am      10 UNK        -0.5000 
     25 C          -2.2017  -20.3329  -45.0409 C.2       9 UNK         0.5000 
     26 O          -2.9524  -21.2619  -45.3328 O.2       9 UNK        -0.5000 
     27 CA         -2.7187  -18.8902  -45.1782 C.3       9 UNK         0.1400 
     28 CB         -3.4004  -18.4387  -43.8798 C.3       9 UNK        -0.1800 
     29 N          -1.6807  -17.9279  -45.5488 N.am      9 UNK        -0.5000 
     30 C          -0.9966  -17.9455  -46.7027 C.2       8 UNK         0.5000 
     31 O          -1.1582  -18.7951  -47.5804 O.2       8 UNK        -0.5000 
     32 CA          0.0640  -16.8471  -46.8839 C.3       8 UNK         0.1400 
     33 CB         -0.5783  -15.5210  -47.3200 C.3       8 UNK        -0.1800 
     34 N           0.8167  -16.6278  -45.6513 N.am      8 UNK        -0.5000 
     35 C           1.8156  -17.4133  -45.2279 C.2       7 UNK         0.5000 
     36 O           2.2299  -18.3957  -45.8427 O.2       7 UNK        -0.5000 
     37 CA          2.4340  -17.0512  -43.8651 C.3       7 UNK         0.1400 
     38 CB          3.4884  -15.9435  -44.0220 C.3       7 UNK        -0.1800 
     39 N           1.4293  -16.6303  -42.8867 N.am      7 UNK        -0.5000 
     40 C           0.4826  -17.4378  -42.3841 C.2       6 UNK         0.5000 
     41 O           0.3629  -18.6227  -42.6915 O.2       6 UNK        -0.5000 
     42 CA         -0.5230  -16.8165  -41.3966 C.3       6 UNK         0.1400 
     43 CB         -0.0018  -16.9406  -39.9572 C.3       6 UNK        -0.1800 
     44 N          -0.8363  -15.4142  -41.6686 N.am      6 UNK        -0.5000 
     45 C          -1.3239  -14.9194  -42.8156 C.2       5 UNK         0.5000 
     46 O          -1.5825  -15.6030  -43.8066 O.2       5 UNK        -0.5000 
     47 CA         -1.4999  -13.3903  -42.8760 C.3       5 UNK         0.1400 
     48 CB         -2.9202  -13.0002  -42.4421 C.3       5 UNK        -0.1800 
     49 N          -0.5262  -12.6565  -42.0577 N.am      5 UNK        -0.5000 
     50 C           0.8069  -12.7185  -42.1873 C.2       4 UNK         0.5000 
     51 O           1.3884  -13.3729  -43.0588 O.2       4 UNK        -0.5000 
     52 CA          1.6199  -11.9804  -41.1168 C.3       4 UNK         0.1400 
     53 CB          1.5455  -12.7493  -39.7800 C.3       4 UNK        -0.1800 
     54 N           3.0049  -11.8740  -41.5645 N.am      4 UNK        -0.5000 
     55 C           3.9615  -11.1416  -40.9836 C.2       3 UNK         0.5000 
     56 O           3.7732  -10.4077  -40.0124 O.2       3 UNK        -0.5000 
     57 CA          5.3708  -11.2515  -41.5899 C.3       3 UNK         0.1400 
     58 CB          6.0098  -12.6059  -41.2416 C.3       3 UNK        -0.1800 
     59 N           5.3951  -11.0644  -43.0414 N.am      3 UNK        -0.5000 
     60 C           5.1838   -9.8930  -43.6599 C.2       2 UNK         0.5000 
     61 O           4.8486   -8.8575  -43.0846 O.2       2 UNK        -0.5000 
     62 CA          5.4001   -9.8820  -45.1785 C.3       2 UNK         0.1400 
     63 CB          6.9103   -9.9492  -45.4945 C.3       2 UNK        -0.1800 
     64 N           4.6600  -10.9872  -45.7863 N.am      2 UNK        -0.5000 
     65 C           4.5615  -11.2574  -47.0945 C.2       1 UNK         0.5000 
     66 O           5.1269  -10.6170  -47.9817 O.2       1 UNK        -0.5000 
     67 C          -1.4061  -22.8686  -48.7417 C.2       11 UNK         0.5000 
     68 O          -1.5502  -23.9709  -49.2700 O.2       11 UNK        -0.5000 
     69 N          -2.4212  -22.0412  -48.4530 N.am      12 UNK        -0.5000 
     70 CA         -3.8288  -22.3499  -48.7058 C.3       12 UNK         0.1400 
     71 CB         -4.6875  -21.1020  -48.4552 C.3       12 UNK        -0.1800 
     72 C          -4.3239  -23.5434  -47.8709 C.2       12 UNK         0.5000 
     73 O          -5.0281  -24.3997  -48.4034 O.2       12 UNK        -0.5000 
     74 N          -3.9109  -23.6025  -46.5973 N.am      13 UNK        -0.5000 
     75 CA         -4.1840  -24.7040  -45.6758 C.3       13 UNK         0.1400 
     76 CB         -3.7221  -24.3229  -44.2615 C.3       13 UNK        -0.1800 
     77 C          -3.5385  -26.0257  -46.1268 C.2       13 UNK         0.5000 
     78 O          -4.2134  -27.0553  -46.1231 O.2       13 UNK        -0.5000 
     79 N          -2.2678  -25.9719  -46.5544 N.am      14 UNK        -0.5000 
     80 CA         -1.5279  -27.1116  -47.1066 C.3       14 UNK         0.1400 
     81 CB         -0.0579  -26.7190  -47.3166 C.3       14 UNK        -0.1800 
     82 C          -2.1395  -27.6481  -48.4152 C.2       14 UNK         0.5000 
     83 O          -2.1591  -28.8606  -48.6283 O.2       14 UNK        -0.5000 
     84 N          -2.6653  -26.7374  -49.2436 N.am      15 UNK        -0.5000 
     85 CA         -3.4018  -27.0364  -50.4713 C.3       15 UNK         0.1400 
     86 CB         -3.3159  -25.8137  -51.3961 C.3       15 UNK        -0.1800 
     87 C          -4.8757  -27.4292  -50.2320 C.2       15 UNK         0.5000 
     88 O          -5.5830  -27.6970  -51.2039 O.2       15 UNK        -0.5000 
     89 N          -5.3337  -27.4184  -48.9694 N.am      16 UNK        -0.5000 
     90 CA         -6.7007  -27.7007  -48.5102 C.3       16 UNK         0.1400 
     91 CB         -7.0210  -29.1999  -48.6799 C.3       16 UNK        -0.1800 
     92 C          -7.7667  -26.7855  -49.1549 C.2       16 UNK         0.5000 
     93 O          -8.8988  -27.2166  -49.3789 O.2       16 UNK        -0.5000 
     94 N          -7.3626  -25.5466  -49.4737 N.am      17 UNK        -0.5000 
     95 CA         -8.0954  -24.5028  -50.1980 C.3       17 UNK         0.1400 
     96 CB         -9.3157  -24.0287  -49.3829 C.3       17 UNK        -0.1800 
     97 C          -8.4675  -24.8631  -51.6559 C.2       17 UNK         0.5000 
     98 O          -9.2322  -24.1246  -52.2788 O.2       17 UNK        -0.5000 
     99 N          -7.9217  -25.9642  -52.1929 N.am      18 UNK        -0.5000 
    100 CA        -8.1720  -26.4359  -53.5573 C.3       18 UNK         0.1400 
    101 CB        -8.0597  -27.9686  -53.5796 C.3       18 UNK        -0.1800 
    102 C         -7.2129  -25.8089  -54.5872 C.2       18 UNK         0.5000 
    103 O         -7.4622  -25.9162  -55.7889 O.2       18 UNK        -0.5000 
    104 N         -6.1384  -25.1738  -54.1088 N.am      19 UNK        -0.5000 
    105 CA        -5.1066  -24.5039  -54.8906 C.3       19 UNK         0.1400 
    106 CB        -4.1279  -25.5449  -55.4756 C.3       19 UNK        -0.1800 
    107 C         -4.4093  -23.4626  -53.9965 C.2       19 UNK         0.5000 
    108 O         -4.8981  -23.1718  -52.9011 O.2       19 UNK        -0.5000 
    109 N         -3.2817  -22.9249  -54.4836 N.am      20 UNK        -0.5000 
    110 CA        -2.4204  -21.9269  -53.8342 C.3       20 UNK         0.1400 
    111 CB        -1.8099  -22.4746  -52.5283 C.3       20 UNK        -0.1800 
    112 C         -3.0905  -20.5482  -53.6529 C.2       20 UNK         0.5000 
    113 O         -2.7360  -19.8024  -52.7386 O.2       20 UNK        -0.5000 
    114 N         -4.0287  -20.2186  -54.5501 N.am      21 UNK        -0.5000 
    115 CA        -4.6731  -18.9126  -54.6506 C.3       21 UNK         0.1400 
    116 CB        -6.0116  -19.0735  -55.3920 C.3       21 UNK        -0.1800 
    117 C         -3.7255  -17.9285  -55.3609 C.2       21 UNK         0.5000 
    118 O         -3.7379  -17.8394  -56.5902 O.2       21 UNK        -0.5000 
    119 N         -2.8813  -17.2538  -54.5737 N.am      22 UNK        -0.5000 
    120 CA        -1.8494  -16.3139  -55.0433 C.3       22 UNK         0.1400 
    121 C         -2.3739  -14.9606  -55.6143 C.2       22 UNK         0.5000 
    122 N         -3.6464  -14.6164  -55.4570 N.am      22 UNK        -0.7600 
    123 O         -1.6120  -14.2154  -56.2247 O.2       22 UNK        -0.5000 
    124 C124       -0.7432  -16.1077  -53.9753 C.3       23 UNK        -0.0398 
    125 S125       -1.3540  -15.3819  -52.4117 S.3       23 UNK        -0.2404 
    126 C126       -1.1574  -16.7697  -51.2473 C.3       23 UNK        -0.0205 
    127 H127       -0.6978  -11.7642  -46.4209 H         1 UNK         0.0600 
    128 H128        0.2235  -12.9697  -45.5229 H         1 UNK         0.0600 
    129 H129        0.1976  -11.2862  -44.9717 H         1 UNK         0.0600 
    130 H130        2.3557  -13.3221  -46.0609 H         1 UNK         0.3000 
    131 H131        3.3297  -12.2763  -48.5048 H         1 UNK         0.0600 
    132 H132        5.2734  -13.7353  -48.1787 H         1 UNK         0.0800 
    133 H133        4.9311  -13.9104  -46.4768 H         1 UNK         0.0800 
    134 H134        3.0451  -14.2740  -49.9518 H         1 UNK         0.0800 
    135 H135        4.3933  -15.3897  -49.9786 H         1 UNK         0.0800 
    136 H136        0.7672  -15.0512  -50.3326 H         1 UNK         0.1150 
    137 H137        0.1407  -19.1591  -51.3871 H         1 UNK         0.1150 
    138 H138        3.9568  -17.8796  -49.9089 H         1 UNK         0.1150 
    139 H139        2.1808  -20.6275  -51.5753 H         1 UNK         0.0800 
    140 H140        3.7008  -20.0923  -50.9118 H         1 UNK         0.0800 
    141 H141        0.4253  -21.8194  -50.3976 H         1 UNK         0.0800 
    142 H142       -0.0362  -20.4761  -49.3738 H         1 UNK         0.0800 
    143 H143        0.6518  -23.2761  -48.3511 H         1 UNK         0.0600 
    144 H144        0.1525  -20.8459  -46.9051 H         1 UNK         0.3000 
    145 H145       -0.8146  -22.4092  -43.8347 H         1 UNK         0.0600 
    146 H146        1.1356  -21.1892  -42.9768 H         1 UNK         0.0600 
    147 H147        1.7017  -22.5455  -43.9354 H         1 UNK         0.0600 
    148 H148        1.7484  -20.9194  -44.6082 H         1 UNK         0.0600 
    149 H149       -0.4016  -19.6908  -44.3486 H         1 UNK         0.3000 
    150 H150       -3.4672  -18.8850  -45.9730 H         1 UNK         0.0600 
    151 H151       -4.2341  -19.0958  -43.6291 H         1 UNK         0.0600 
    152 H152       -3.7977  -17.4275  -43.9696 H         1 UNK         0.0600 
    153 H153       -2.7070  -18.4563  -43.0404 H         1 UNK         0.0600 
    154 H154       -1.5151  -17.1674  -44.8949 H         1 UNK         0.3000 
    155 H155        0.7509  -17.1695  -47.6698 H         1 UNK         0.0600 
    156 H156        0.1828  -14.7725  -47.5413 H         1 UNK         0.0600 
    157 H157       -1.2358  -15.1151  -46.5505 H         1 UNK         0.0600 
    158 H158       -1.1740  -15.6524  -48.2224 H         1 UNK         0.0600 
    159 H159        0.5007  -15.8807  -45.0499 H         1 UNK         0.3000 
    160 H160        2.9306  -17.9427  -43.4763 H         1 UNK         0.0600 
    161 H161        3.0535  -15.0253  -44.4173 H         1 UNK         0.0600 
    162 H162        4.2767  -16.2525  -44.7096 H         1 UNK         0.0600 
    163 H163        3.9610  -15.7079  -43.0684 H         1 UNK         0.0600 
    164 H164        1.4334  -15.6539  -42.6219 H         1 UNK         0.3000 
    165 H165       -1.4532  -17.3807  -41.4685 H         1 UNK         0.0600 
    166 H166        0.9119  -16.3635  -39.8086 H         1 UNK         0.0600 
    167 H167       -0.7416  -16.5904  -39.2372 H         1 UNK         0.0600 
    168 H168        0.2221  -17.9795  -39.7110 H         1 UNK         0.0600 
    169 H169       -0.6567  -14.7644  -40.9183 H         1 UNK         0.3000 
    170 H170       -1.3747  -13.0865  -43.9139 H         1 UNK         0.0600 
    171 H171       -3.6684  -13.5168  -43.0451 H         1 UNK         0.0600 
    172 H172       -3.1076  -13.2542  -41.3980 H         1 UNK         0.0600 
    173 H173       -3.0901  -11.9302  -42.5640 H         1 UNK         0.0600 
    174 H174       -0.9124  -12.0943  -41.3128 H         1 UNK         0.3000 
    175 H175        1.2068  -10.9771  -40.9959 H         1 UNK         0.0600 
    176 H176        2.0783  -12.2286  -38.9847 H         1 UNK         0.0600 
    177 H177        0.5149  -12.8643  -39.4429 H         1 UNK         0.0600 
    178 H178        1.9755  -13.7479  -39.8690 H         1 UNK         0.0600 
    179 H179        3.2171  -12.4359  -42.3789 H         1 UNK         0.3000 
    180 H180        5.9847  -10.4683  -41.1395 H         1 UNK         0.0600 
    181 H181        5.4744  -13.4381  -41.7005 H         1 UNK         0.0600 
    182 H182        6.0106  -12.7712  -40.1634 H         1 UNK         0.0600 
    183 H183        7.0466  -12.6495  -41.5757 H         1 UNK         0.0600 
    184 H184        5.6995  -11.8545  -43.5909 H         1 UNK         0.3000 
    185 H185        4.9977   -8.9451  -45.5688 H         1 UNK         0.0600 
    186 H186        7.1135   -9.7490  -46.5459 H         1 UNK         0.0600 
    187 H187        7.4630   -9.2031  -44.9218 H         1 UNK         0.0600 
    188 H188        7.3312  -10.9257  -45.2529 H         1 UNK         0.0600 
    189 H189        4.0960  -11.5329  -45.1500 H         1 UNK         0.3000 
    190 H190       -2.2200  -21.1629  -47.9949 H         1 UNK         0.3000 
    191 H191       -3.9295  -22.6209  -49.7587 H         1 UNK         0.0600 
    192 H192       -4.3731  -20.2743  -49.0914 H         1 UNK         0.0600 
    193 H193       -5.7366  -21.3023  -48.6768 H         1 UNK         0.0600 
    194 H194       -4.6289  -20.7701  -47.4186 H         1 UNK         0.0600 
    195 H195       -3.3850  -22.8168  -46.2205 H         1 UNK         0.3000 
    196 H196       -5.2653  -24.8539  -45.6504 H         1 UNK         0.0600 
    197 H197       -3.9377  -25.1218  -43.5511 H         1 UNK         0.0600 
    198 H198       -4.2330  -23.4267  -43.9089 H         1 UNK         0.0600 
    199 H199       -2.6496  -24.1310  -44.2256 H         1 UNK         0.0600 
    200 H200       -1.7615  -25.0936  -46.4889 H         1 UNK         0.3000 
    201 H201       -1.5624  -27.9182  -46.3715 H         1 UNK         0.0600 
    202 H202        0.4097  -26.4272  -46.3761 H         1 UNK         0.0600 
    203 H203        0.0405  -25.8847  -48.0118 H         1 UNK         0.0600 
    204 H204        0.5168  -27.5536  -47.7199 H         1 UNK         0.0600 
    205 H205       -2.5460  -25.7543  -49.0208 H         1 UNK         0.3000 
    206 H206       -2.9217  -27.8772  -50.9757 H         1 UNK         0.0600 
    207 H207       -2.2802  -25.5594  -51.6210 H         1 UNK         0.0600 
    208 H208       -3.8156  -26.0065  -52.3443 H         1 UNK         0.0600 
    209 H209       -3.7857  -24.9374  -50.9483 H         1 UNK         0.0600 
    210 H210       -4.6863  -27.1541  -48.2370 H         1 UNK         0.3000 
    211 H211       -6.7159  -27.4764  -47.4430 H         1 UNK         0.0600 
    212 H212       -7.0791  -29.4841  -49.7312 H         1 UNK         0.0600 
    213 H213       -7.9765  -29.4521  -48.2188 H         1 UNK         0.0600 
    214 H214       -6.2603  -29.8205  -48.2062 H         1 UNK         0.0600 
    215 H215       -6.4189  -25.2815  -49.1936 H         1 UNK         0.3000 
    216 H216       -7.4048  -23.6613  -50.2712 H         1 UNK         0.0600 
    217 H217       -9.0289  -23.7568  -48.3670 H         1 UNK         0.0600 
    218 H218      -10.0855  -24.7981  -49.3207 H         1 UNK         0.0600 
    219 H219       -9.7720  -23.1476  -49.8353 H         1 UNK         0.0600 
    220 H220       -7.2824  -26.5222  -51.6369 H         1 UNK         0.3000 
    221 H221       -9.1899  -26.1710  -53.8509 H         1 UNK         0.0600 
    222 H222       -7.0461  -28.3024  -53.3560 H         1 UNK         0.0600 
    223 H223       -8.7315  -28.4248  -52.8522 H         1 UNK         0.0600 
    224 H224       -8.3246  -28.3648  -54.5606 H         1 UNK         0.0600 
    225 H225       -6.0446  -25.0584  -53.1081 H         1 UNK         0.3000 
    226 H226       -5.5834  -23.9596  -55.7081 H         1 UNK         0.0600 
    227 H227       -4.6539  -26.3006  -56.0589 H         1 UNK         0.0600 
    228 H228       -3.4035  -25.0817  -56.1457 H         1 UNK         0.0600 
    229 H229       -3.5710  -26.0607  -54.6933 H         1 UNK         0.0600 
    230 H230       -2.9675  -23.2328  -55.3934 H         1 UNK         0.3000 
    231 H231       -1.5930  -21.7562  -54.5243 H         1 UNK         0.0600 
    232 H232       -1.0658  -21.7837  -52.1345 H         1 UNK         0.0600 
    233 H233       -1.3111  -23.4295  -52.6923 H         1 UNK         0.0600 
    234 H234       -2.5632  -22.6176  -51.7543 H         1 UNK         0.0600 
    235 H235       -4.2382  -20.8789  -55.2837 H         1 UNK         0.3000 
    236 H236       -4.8880  -18.5337  -53.6489 H         1 UNK         0.0600 
    237 H237       -6.5139  -18.1115  -55.5013 H         1 UNK         0.0600 
    238 H238       -5.8774  -19.4899  -56.3911 H         1 UNK         0.0600 
    239 H239       -6.6864  -19.7318  -54.8444 H         1 UNK         0.0600 
    240 H240       -2.9102  -17.4160  -53.5769 H         1 UNK         0.3000 
    241 H241       -1.3628  -16.7983  -55.8922 H         1 UNK         0.0600 
    242 H242       -4.2803  -15.2156  -54.9538 H         1 UNK         0.3800 
    243 H243       -3.9755  -13.7421  -55.8356 H         1 UNK         0.3800 
    244 H244       -0.2591  -17.0626  -53.7665 H         1 UNK         0.0800 
    245 H245        0.0481  -15.4643  -54.3638 H         1 UNK         0.0800 
    246 H246       -1.6869  -16.5309  -50.3254 H         1 UNK         0.0800 
    247 H247       -1.6506  -17.6514  -51.6567 H         1 UNK         0.0800 
@<TRIPOS>BOND
     1    1    2 1    
     2    1  127 1    
     3    1  128 1    
     4    1  129 1    
     5    2    3 2    
     6    2    4 am   BACKBONE|DICT|INTERRES
     7    4    5 1    
     8    4  130 1    
     9    5    6 1    
    10    5   65 1    
    11    5  131 1    
    12    6    7 1    
    13    6  132 1    
    14    6  133 1    
    15    7    8 1    
    16    8    9 1    
    17    8  134 1    
    18    8  135 1    
    19    9   10 ar   
    20    9   14 ar   
    21   10   11 ar   
    22   10  136 1    
    23   11   12 ar   
    24   11  126 1    
    25   12   13 ar   
    26   12  137 1    
    27   13   14 ar   
    28   13   15 1    
    29   14  138 1    
    30   15   16 1    
    31   15  139 1    
    32   15  140 1    
    33   16   17 1    
    34   17   18 1    
    35   17  141 1    
    36   17  142 1    
    37   18   19 1    
    38   18   67 1    
    39   18  143 1    
    40   19   20 am   BACKBONE|DICT|INTERRES
    41   19  144 1    
    42   20   21 2    
    43   20   22 1    
    44   22   23 1    
    45   22   24 1    
    46   22  145 1    
    47   23  146 1    
    48   23  147 1    
    49   23  148 1    
    50   24   25 am   BACKBONE|DICT|INTERRES
    51   24  149 1    
    52   25   26 2    
    53   25   27 1    
    54   27   28 1    
    55   27   29 1    
    56   27  150 1    
    57   28  151 1    
    58   28  152 1    
    59   28  153 1    
    60   29   30 am   BACKBONE|DICT|INTERRES
    61   29  154 1    
    62   30   31 2    
    63   30   32 1    
    64   32   33 1    
    65   32   34 1    
    66   32  155 1    
    67   33  156 1    
    68   33  157 1    
    69   33  158 1    
    70   34   35 am   BACKBONE|DICT|INTERRES
    71   34  159 1    
    72   35   36 2    
    73   35   37 1    
    74   37   38 1    
    75   37   39 1    
    76   37  160 1    
    77   38  161 1    
    78   38  162 1    
    79   38  163 1    
    80   39   40 am   BACKBONE|DICT|INTERRES
    81   39  164 1    
    82   40   41 2    
    83   40   42 1    
    84   42   43 1    
    85   42   44 1    
    86   42  165 1    
    87   43  166 1    
    88   43  167 1    
    89   43  168 1    
    90   44   45 am   BACKBONE|DICT|INTERRES
    91   44  169 1    
    92   45   46 2    
    93   45   47 1    
    94   47   48 1    
    95   47   49 1    
    96   47  170 1    
    97   48  171 1    
    98   48  172 1    
    99   48  173 1    
   100   49   50 am   BACKBONE|DICT|INTERRES
   101   49  174 1    
   102   50   51 2    
   103   50   52 1    
   104   52   53 1    
   105   52   54 1    
   106   52  175 1    
   107   53  176 1    
   108   53  177 1    
   109   53  178 1    
   110   54   55 am   BACKBONE|DICT|INTERRES
   111   54  179 1    
   112   55   56 2    
   113   55   57 1    
   114   57   58 1    
   115   57   59 1    
   116   57  180 1    
   117   58  181 1    
   118   58  182 1    
   119   58  183 1    
   120   59   60 am   BACKBONE|DICT|INTERRES
   121   59  184 1    
   122   60   61 2    
   123   60   62 1    
   124   62   63 1    
   125   62   64 1    
   126   62  185 1    
   127   63  186 1    
   128   63  187 1    
   129   63  188 1    
   130   64   65 am   BACKBONE|DICT|INTERRES
   131   64  189 1    
   132   65   66 2    
   133   67   68 2    
   134   67   69 am   BACKBONE|DICT|INTERRES
   135   69   70 1    
   136   69  190 1    
   137   70   71 1    
   138   70   72 1    
   139   70  191 1    
   140   71  192 1    
   141   71  193 1    
   142   71  194 1    
   143   72   73 2    
   144   72   74 am   BACKBONE|DICT|INTERRES
   145   74   75 1    
   146   74  195 1    
   147   75   76 1    
   148   75   77 1    
   149   75  196 1    
   150   76  197 1    
   151   76  198 1    
   152   76  199 1    
   153   77   78 2    
   154   77   79 am   BACKBONE|DICT|INTERRES
   155   79   80 1    
   156   79  200 1    
   157   80   81 1    
   158   80   82 1    
   159   80  201 1    
   160   81  202 1    
   161   81  203 1    
   162   81  204 1    
   163   82   83 2    
   164   82   84 am   BACKBONE|DICT|INTERRES
   165   84   85 1    
   166   84  205 1    
   167   85   86 1    
   168   85   87 1    
   169   85  206 1    
   170   86  207 1    
   171   86  208 1    
   172   86  209 1    
   173   87   88 2    
   174   87   89 am   BACKBONE|DICT|INTERRES
   175   89   90 1    
   176   89  210 1    
   177   90   91 1    
   178   90   92 1    
   179   90  211 1    
   180   91  212 1    
   181   91  213 1    
   182   91  214 1    
   183   92   93 2    
   184   92   94 am   BACKBONE|DICT|INTERRES
   185   94   95 1    
   186   94  215 1    
   187   95   96 1    
   188   95   97 1    
   189   95  216 1    
   190   96  217 1    
   191   96  218 1    
   192   96  219 1    
   193   97   98 2    
   194   97   99 am   BACKBONE|DICT|INTERRES
   195   99  100 1    
   196   99  220 1    
   197  100  101 1    
   198  100  102 1    
   199  100  221 1    
   200  101  222 1    
   201  101  223 1    
   202  101  224 1    
   203  102  103 2    
   204  102  104 am   BACKBONE|DICT|INTERRES
   205  104  105 1    
   206  104  225 1    
   207  105  106 1    
   208  105  107 1    
   209  105  226 1    
   210  106  227 1    
   211  106  228 1    
   212  106  229 1    
   213  107  108 2    
   214  107  109 am   BACKBONE|DICT|INTERRES
   215  109  110 1    
   216  109  230 1    
   217  110  111 1    
   218  110  112 1    
   219  110  231 1    
   220  111  232 1    
   221  111  233 1    
   222  111  234 1    
   223  112  113 2    
   224  112  114 am   BACKBONE|DICT|INTERRES
   225  114  115 1    
   226  114  235 1    
   227  115  116 1    
   228  115  117 1    
   229  115  236 1    
   230  116  237 1    
   231  116  238 1    
   232  116  239 1    
   233  117  118 2    
   234  117  119 am   BACKBONE|DICT|INTERRES
   235  119  120 1    
   236  119  240 1    
   237  120  121 1    
   238  120  124 1    
   239  120  241 1    
   240  121  122 am   BACKBONE|DICT|INTERRES
   241  121  123 2    
   242  122  242 1    
   243  122  243 1    
   244  124  125 1    
   245  124  244 1    
   246  124  245 1    
   247  125  126 1    
   248  126  246 1    
   249  126  247 1    
@<TRIPOS>SUBSTRUCTURE
     1 UNK         1 GROUP             0       ****    0 ROOT    
