@<TRIPOS>MOLECULE
3R540
247   249    1
SMALL
USER_CHARGES


@<TRIPOS>ATOM
      1 CA          1.1474  -10.4622  -48.2674 C.3       0 UNK        -0.1800 
      2 C           1.8137  -11.8316  -48.2662 C.2       0 UNK         0.5000 
      3 O           1.1100  -12.8377  -48.2682 O.2       0 UNK        -0.5000 
      4 N           3.1544  -11.8461  -48.2624 N.am      1 UNK        -0.5000 
      5 CA          4.0625  -13.0013  -48.1819 C.3       1 UNK         0.1400 
      6 C6          4.0564  -13.9169  -49.4466 C.3       23 UNK        -0.0398 
      7 S7          2.8305  -15.2757  -49.5140 S.3       23 UNK        -0.2404 
      8 C8          3.8904  -16.7576  -49.6123 C.3       23 UNK        -0.0205 
      9 C9          3.1258  -18.0036  -50.0500 C.ar      23 UNK        -0.0193 
     10 C10         2.3377  -17.9737  -51.2051 C.ar      23 UNK        -0.1150 
     11 C11         1.6884  -19.1232  -51.6589 C.ar      23 UNK        -0.0193 
     12 C12         1.8314  -20.3157  -50.9441 C.ar      23 UNK        -0.1150 
     13 C13         2.6246  -20.3734  -49.7920 C.ar      23 UNK        -0.0193 
     14 C14         3.2666  -19.2079  -49.3494 C.ar      23 UNK        -0.1150 
     15 C15         2.8295  -21.7310  -49.1152 C.3       23 UNK        -0.0205 
     16 S16         3.1572  -21.7063  -47.3146 S.3       23 UNK        -0.2404 
     17 C17         1.6452  -20.9520  -46.6307 C.3       23 UNK        -0.0398 
     18 CA          0.5341  -21.9681  -46.2513 C.3       11 UNK         0.1400 
     19 N          -0.4123  -21.4016  -45.2838 N.am      11 UNK        -0.5000 
     20 C          -1.4724  -22.0294  -44.7525 C.2       10 UNK         0.5000 
     21 O          -1.7404  -23.2138  -44.9530 O.2       10 UNK        -0.5000 
     22 CA         -2.4297  -21.1748  -43.8990 C.3       10 UNK         0.1400 
     23 CB         -1.8969  -21.0060  -42.4687 C.3       10 UNK        -0.1800 
     24 N          -2.6940  -19.8612  -44.4914 N.am      10 UNK        -0.5000 
     25 C          -3.3189  -19.6750  -45.6641 C.2       9 UNK         0.5000 
     26 O          -3.7845  -20.5899  -46.3415 O.2       9 UNK        -0.5000 
     27 CA         -3.3866  -18.2341  -46.2019 C.3       9 UNK         0.1400 
     28 CB         -4.5220  -17.4465  -45.5326 C.3       9 UNK        -0.1800 
     29 N          -2.1208  -17.5191  -46.0401 N.am      9 UNK        -0.5000 
     30 C          -0.9720  -17.8815  -46.6285 C.2       8 UNK         0.5000 
     31 O          -0.8783  -18.8181  -47.4195 O.2       8 UNK        -0.5000 
     32 CA          0.2938  -17.1100  -46.2219 C.3       8 UNK         0.1400 
     33 CB          0.3773  -15.7815  -46.9776 C.3       8 UNK        -0.1800 
     34 N           0.3603  -16.8662  -44.7810 N.am      8 UNK        -0.5000 
     35 C           0.4444  -17.8260  -43.8498 C.2       7 UNK         0.5000 
     36 O           0.5441  -19.0219  -44.1121 O.2       7 UNK        -0.5000 
     37 CA          0.3445  -17.3866  -42.3803 C.3       7 UNK         0.1400 
     38 CB          1.7167  -16.9694  -41.8297 C.3       7 UNK        -0.1800 
     39 N          -0.6197  -16.3005  -42.2093 N.am      7 UNK        -0.5000 
     40 C          -1.9478  -16.4538  -42.3115 C.2       6 UNK         0.5000 
     41 O          -2.4951  -17.5398  -42.5056 O.2       6 UNK        -0.5000 
     42 CA         -2.8015  -15.1743  -42.2209 C.3       6 UNK         0.1400 
     43 CB         -3.0776  -14.8113  -40.7544 C.3       6 UNK        -0.1800 
     44 N          -2.1758  -14.0332  -42.8927 N.am      6 UNK        -0.5000 
     45 C          -2.0092  -13.9361  -44.2197 C.2       5 UNK         0.5000 
     46 O          -2.4307  -14.7725  -45.0177 O.2       5 UNK        -0.5000 
     47 CA         -1.1931  -12.7313  -44.7362 C.3       5 UNK         0.1400 
     48 CB         -2.1175  -11.5441  -45.0427 C.3       5 UNK        -0.1800 
     49 N          -0.1315  -12.2960  -43.8201 N.am      5 UNK        -0.5000 
     50 C           0.8819  -13.0726  -43.4156 C.2       4 UNK         0.5000 
     51 O           1.0062  -14.2543  -43.7490 O.2       4 UNK        -0.5000 
     52 CA          1.8773  -12.4595  -42.4199 C.3       4 UNK         0.1400 
     53 CB          1.2257  -12.3399  -41.0266 C.3       4 UNK        -0.1800 
     54 N           3.0379  -13.3406  -42.3699 N.am      4 UNK        -0.5000 
     55 C           4.1907  -13.1555  -41.7176 C.2       3 UNK         0.5000 
     56 O           4.4554  -12.1491  -41.0591 O.2       3 UNK        -0.5000 
     57 CA          5.2262  -14.2953  -41.8146 C.3       3 UNK         0.1400 
     58 CB          5.1121  -15.2271  -40.5979 C.3       3 UNK        -0.1800 
     59 N           5.0719  -15.0883  -43.0375 N.am      3 UNK        -0.5000 
     60 C           5.4907  -14.6906  -44.2459 C.2       2 UNK         0.5000 
     61 O           6.1800  -13.6826  -44.4231 O.2       2 UNK        -0.5000 
     62 CA          5.0859  -15.5600  -45.4602 C.3       2 UNK         0.1400 
     63 CB          3.8607  -16.4659  -45.2016 C.3       2 UNK        -0.1800 
     64 N           4.8746  -14.7554  -46.6700 N.am      2 UNK        -0.5000 
     65 C           4.0083  -13.7397  -46.8221 C.2       1 UNK         0.5000 
     66 O           3.2480  -13.3521  -45.9317 O.2       1 UNK        -0.5000 
     67 C          -0.1980  -22.4745  -47.5075 C.2       11 UNK         0.5000 
     68 O          -0.0407  -23.6338  -47.8878 O.2       11 UNK        -0.5000 
     69 N          -1.0081  -21.5949  -48.1066 N.am      12 UNK        -0.5000 
     70 CA         -1.7849  -21.8555  -49.3118 C.3       12 UNK         0.1400 
     71 CB         -2.4064  -20.5359  -49.7735 C.3       12 UNK        -0.1800 
     72 C          -2.8540  -22.9438  -49.1168 C.2       12 UNK         0.5000 
     73 O          -3.0522  -23.7589  -50.0171 O.2       12 UNK        -0.5000 
     74 N          -3.4983  -22.9646  -47.9421 N.am      13 UNK        -0.5000 
     75 CA         -4.4419  -24.0042  -47.5339 C.3       13 UNK         0.1400 
     76 CB         -5.1506  -23.5882  -46.2358 C.3       13 UNK        -0.1800 
     77 C          -3.7638  -25.3761  -47.3711 C.2       13 UNK         0.5000 
     78 O          -4.2843  -26.3681  -47.8811 O.2       13 UNK        -0.5000 
     79 N          -2.6006  -25.4045  -46.7036 N.am      14 UNK        -0.5000 
     80 CA         -1.7818  -26.6041  -46.5064 C.3       14 UNK         0.1400 
     81 CB         -0.6572  -26.3007  -45.5050 C.3       14 UNK        -0.1800 
     82 C          -1.2062  -27.1608  -47.8223 C.2       14 UNK         0.5000 
     83 O          -1.1710  -28.3780  -48.0057 O.2       14 UNK        -0.5000 
     84 N          -0.7996  -26.2594  -48.7258 N.am      15 UNK        -0.5000 
     85 CA         -0.3316  -26.5712  -50.0775 C.3       15 UNK         0.1400 
     86 CB          0.3951  -25.3395  -50.6427 C.3       15 UNK        -0.1800 
     87 C          -1.4585  -27.0071  -51.0369 C.2       15 UNK         0.5000 
     88 O          -1.1575  -27.5510  -52.1001 O.2       15 UNK        -0.5000 
     89 N          -2.7194  -26.7412  -50.6604 N.am      16 UNK        -0.5000 
     90 CA         -3.9465  -26.9215  -51.4429 C.3       16 UNK         0.1400 
     91 CB         -4.2264  -28.4161  -51.7020 C.3       16 UNK        -0.1800 
     92 C          -3.9438  -26.0668  -52.7279 C.2       16 UNK         0.5000 
     93 O          -4.3664  -26.5260  -53.7915 O.2       16 UNK        -0.5000 
     94 N          -3.4508  -24.8283  -52.6031 N.am      17 UNK        -0.5000 
     95 CA         -3.2812  -23.8604  -53.6818 C.3       17 UNK         0.1400 
     96 CB         -2.2022  -22.8445  -53.2664 C.3       17 UNK        -0.1800 
     97 C          -4.6191  -23.1885  -54.0388 C.2       17 UNK         0.5000 
     98 O          -4.8403  -22.0299  -53.6836 O.2       17 UNK        -0.5000 
     99 N          -5.4951  -23.9510  -54.7087 N.am      18 UNK        -0.5000 
    100 CA        -6.7881  -23.5446  -55.2736 C.3       18 UNK         0.1400 
    101 CB        -6.5636  -22.6551  -56.5136 C.3       18 UNK        -0.1800 
    102 C         -7.7397  -22.9117  -54.2357 C.2       18 UNK         0.5000 
    103 O         -8.2940  -21.8376  -54.4732 O.2       18 UNK        -0.5000 
    104 N         -7.8892  -23.5980  -53.0925 N.am      19 UNK        -0.5000 
    105 CA        -8.6714  -23.1906  -51.9177 C.3       19 UNK         0.1400 
    106 CB       -10.1779  -23.1118  -52.2462 C.3       19 UNK        -0.1800 
    107 C         -8.1185  -21.9092  -51.2565 C.2       19 UNK         0.5000 
    108 O         -8.8825  -21.0141  -50.8915 O.2       19 UNK        -0.5000 
    109 N         -6.7864  -21.8723  -51.1110 N.am      20 UNK        -0.5000 
    110 CA        -5.9784  -20.8071  -50.5137 C.3       20 UNK         0.1400 
    111 CB        -6.2950  -20.6359  -49.0132 C.3       20 UNK        -0.1800 
    112 C         -6.0390  -19.4876  -51.3107 C.2       20 UNK         0.5000 
    113 O         -6.2987  -18.4232  -50.7462 O.2       20 UNK        -0.5000 
    114 N         -5.7893  -19.5853  -52.6226 N.am      21 UNK        -0.5000 
    115 CA        -5.8592  -18.4801  -53.5819 C.3       21 UNK         0.1400 
    116 CB        -5.8793  -19.0609  -55.0037 C.3       21 UNK        -0.1800 
    117 C         -4.7348  -17.4325  -53.4484 C.2       21 UNK         0.5000 
    118 O         -4.8587  -16.3529  -54.0288 O.2       21 UNK        -0.5000 
    119 N         -3.6625  -17.7544  -52.7114 N.am      22 UNK        -0.5000 
    120 CA        -2.4981  -16.8752  -52.4898 C.3       22 UNK         0.1400 
    121 C         -2.7977  -15.5890  -51.6622 C.2       22 UNK         0.5000 
    122 N         -3.8988  -15.5155  -50.9227 N.am      22 UNK        -0.7600 
    123 O         -2.0185  -14.6413  -51.6977 O.2       22 UNK        -0.5000 
    124 C124       -1.2912  -17.6269  -51.8676 C.3       23 UNK        -0.0398 
    125 S125       -0.9029  -19.2136  -52.6904 S.3       23 UNK        -0.2404 
    126 C126        0.8921  -19.0898  -52.9580 C.3       23 UNK        -0.0205 
    127 H127        1.8778   -9.6527  -48.2669 H         1 UNK         0.0600 
    128 H128        0.5182  -10.3527  -47.3839 H         1 UNK         0.0600 
    129 H129        0.5182  -10.3520  -49.1507 H         1 UNK         0.0600 
    130 H130        3.6278  -10.9542  -48.2390 H         1 UNK         0.3000 
    131 H131        5.0451  -12.5266  -48.1744 H         1 UNK         0.0600 
    132 H132        3.9123  -13.3028  -50.3364 H         1 UNK         0.0800 
    133 H133        5.0500  -14.3487  -49.5710 H         1 UNK         0.0800 
    134 H134        4.6919  -16.5847  -50.3316 H         1 UNK         0.0800 
    135 H135        4.3644  -16.9162  -48.6428 H         1 UNK         0.0800 
    136 H136        2.2494  -17.0539  -51.7659 H         1 UNK         0.1150 
    137 H137        1.3453  -21.2100  -51.3084 H         1 UNK         0.1150 
    138 H138        3.9043  -19.2431  -48.4779 H         1 UNK         0.1150 
    139 H139        1.9747  -22.3787  -49.3093 H         1 UNK         0.0800 
    140 H140        3.6791  -22.2141  -49.5991 H         1 UNK         0.0800 
    141 H141        1.2823  -20.1807  -47.3095 H         1 UNK         0.0800 
    142 H142        1.9690  -20.4204  -45.7362 H         1 UNK         0.0800 
    143 H143        0.9991  -22.8282  -45.7654 H         1 UNK         0.0600 
    144 H144       -0.2372  -20.4399  -45.0018 H         1 UNK         0.3000 
    145 H145       -3.3819  -21.7060  -43.8404 H         1 UNK         0.0600 
    146 H146       -2.5963  -20.4417  -41.8515 H         1 UNK         0.0600 
    147 H147       -1.7503  -21.9759  -41.9920 H         1 UNK         0.0600 
    148 H148       -0.9402  -20.4851  -42.4503 H         1 UNK         0.0600 
    149 H149       -2.3738  -19.0509  -43.9730 H         1 UNK         0.3000 
    150 H150       -3.6003  -18.2904  -47.2714 H         1 UNK         0.0600 
    151 H151       -4.6156  -16.4493  -45.9632 H         1 UNK         0.0600 
    152 H152       -5.4791  -17.9515  -45.6690 H         1 UNK         0.0600 
    153 H153       -4.3596  -17.3332  -44.4608 H         1 UNK         0.0600 
    154 H154       -2.1318  -16.6916  -45.4520 H         1 UNK         0.3000 
    155 H155        1.1594  -17.7140  -46.5011 H         1 UNK         0.0600 
    156 H156       -0.4607  -15.1266  -46.7469 H         1 UNK         0.0600 
    157 H157        0.3657  -15.9486  -48.0548 H         1 UNK         0.0600 
    158 H158        1.2955  -15.2461  -46.7376 H         1 UNK         0.0600 
    159 H159        0.3511  -15.8965  -44.4772 H         1 UNK         0.3000 
    160 H160       -0.0016  -18.2433  -41.7983 H         1 UNK         0.0600 
    161 H161        2.1459  -16.1399  -42.3884 H         1 UNK         0.0600 
    162 H162        2.4234  -17.7983  -41.8849 H         1 UNK         0.0600 
    163 H163        1.6478  -16.6699  -40.7839 H         1 UNK         0.0600 
    164 H164       -0.2408  -15.3681  -42.1310 H         1 UNK         0.3000 
    165 H165       -3.7574  -15.3766  -42.7088 H         1 UNK         0.0600 
    166 H166       -3.7427  -13.9507  -40.6800 H         1 UNK         0.0600 
    167 H167       -3.5593  -15.6390  -40.2321 H         1 UNK         0.0600 
    168 H168       -2.1588  -14.5736  -40.2167 H         1 UNK         0.0600 
    169 H169       -1.8070  -13.2999  -42.3060 H         1 UNK         0.3000 
    170 H170       -0.7132  -13.0348  -45.6687 H         1 UNK         0.0600 
    171 H171       -2.9044  -11.8330  -45.7409 H         1 UNK         0.0600 
    172 H172       -2.6005  -11.1658  -44.1410 H         1 UNK         0.0600 
    173 H173       -1.5658  -10.7226  -45.5001 H         1 UNK         0.0600 
    174 H174       -0.1808  -11.3416  -43.4941 H         1 UNK         0.3000 
    175 H175        2.1873  -11.4782  -42.7834 H         1 UNK         0.0600 
    176 H176        0.9403  -13.3164  -40.6330 H         1 UNK         0.0600 
    177 H177        1.8982  -11.8749  -40.3062 H         1 UNK         0.0600 
    178 H178        0.3268  -11.7235  -41.0609 H         1 UNK         0.0600 
    179 H179        2.9211  -14.1656  -42.9449 H         1 UNK         0.3000 
    180 H180        6.2211  -13.8449  -41.8044 H         1 UNK         0.0600 
    181 H181        4.1340  -15.7060  -40.5452 H         1 UNK         0.0600 
    182 H182        5.2557  -14.6736  -39.6690 H         1 UNK         0.0600 
    183 H183        5.8693  -16.0106  -40.6283 H         1 UNK         0.0600 
    184 H184        4.5444  -15.9450  -42.9616 H         1 UNK         0.3000 
    185 H185        5.9389  -16.2071  -45.6683 H         1 UNK         0.0600 
    186 H186        4.0622  -17.2077  -44.4284 H         1 UNK         0.0600 
    187 H187        2.9921  -15.8852  -44.8912 H         1 UNK         0.0600 
    188 H188        3.5836  -17.0150  -46.1015 H         1 UNK         0.0600 
    189 H189        5.5070  -14.9594  -47.4294 H         1 UNK         0.3000 
    190 H190       -1.0594  -20.6474  -47.7378 H         1 UNK         0.3000 
    191 H191       -1.0912  -22.1950  -50.0835 H         1 UNK         0.0600 
    192 H192       -2.8213  -20.6218  -50.7759 H         1 UNK         0.0600 
    193 H193       -1.6446  -19.7611  -49.8088 H         1 UNK         0.0600 
    194 H194       -3.1915  -20.1942  -49.0989 H         1 UNK         0.0600 
    195 H195       -3.3338  -22.2129  -47.2779 H         1 UNK         0.3000 
    196 H196       -5.1973  -24.0954  -48.3173 H         1 UNK         0.0600 
    197 H197       -5.8737  -24.3437  -45.9264 H         1 UNK         0.0600 
    198 H198       -5.6938  -22.6520  -46.3627 H         1 UNK         0.0600 
    199 H199       -4.4451  -23.4535  -45.4159 H         1 UNK         0.0600 
    200 H200       -2.2507  -24.5456  -46.2871 H         1 UNK         0.3000 
    201 H201       -2.4212  -27.3761  -46.0734 H         1 UNK         0.0600 
    202 H202       -1.0618  -25.9886  -44.5420 H         1 UNK         0.0600 
    203 H203       -0.0012  -25.5069  -45.8637 H         1 UNK         0.0600 
    204 H204       -0.0409  -27.1832  -45.3288 H         1 UNK         0.0600 
    205 H205       -0.7805  -25.2785  -48.4563 H         1 UNK         0.3000 
    206 H206        0.3839  -27.3935  -50.0136 H         1 UNK         0.0600 
    207 H207        1.2332  -25.0493  -50.0087 H         1 UNK         0.0600 
    208 H208        0.7948  -25.5402  -51.6374 H         1 UNK         0.0600 
    209 H209       -0.2749  -24.4831  -50.7251 H         1 UNK         0.0600 
    210 H210       -2.8455  -26.2771  -49.7704 H         1 UNK         0.3000 
    211 H211       -4.7586  -26.5371  -50.8241 H         1 UNK         0.0600 
    212 H212       -3.4860  -28.8602  -52.3678 H         1 UNK         0.0600 
    213 H213       -5.2045  -28.5548  -52.1637 H         1 UNK         0.0600 
    214 H214       -4.2240  -28.9831  -50.7710 H         1 UNK         0.0600 
    215 H215       -3.1889  -24.5088  -51.6721 H         1 UNK         0.3000 
    216 H216       -2.9205  -24.3801  -54.5719 H         1 UNK         0.0600 
    217 H217       -2.0319  -22.1092  -54.0537 H         1 UNK         0.0600 
    218 H218       -1.2501  -23.3373  -53.0688 H         1 UNK         0.0600 
    219 H219       -2.4874  -22.2999  -52.3676 H         1 UNK         0.0600 
    220 H220       -5.2360  -24.9211  -54.8540 H         1 UNK         0.3000 
    221 H221       -7.2788  -24.4580  -55.6128 H         1 UNK         0.0600 
    222 H222       -6.0441  -21.7317  -56.2603 H         1 UNK         0.0600 
    223 H223       -5.9693  -23.1742  -57.2654 H         1 UNK         0.0600 
    224 H224       -7.5104  -22.3837  -56.9821 H         1 UNK         0.0600 
    225 H225       -7.3860  -24.4694  -53.0028 H         1 UNK         0.3000 
    226 H226       -8.5455  -23.9847  -51.1802 H         1 UNK         0.0600 
    227 H227      -10.5313  -24.0373  -52.7007 H         1 UNK         0.0600 
    228 H228      -10.7649  -22.9509  -51.3413 H         1 UNK         0.0600 
    229 H229      -10.4055  -22.2936  -52.9298 H         1 UNK         0.0600 
    230 H230       -6.2593  -22.6364  -51.5079 H         1 UNK         0.3000 
    231 H231       -4.9555  -21.1654  -50.5895 H         1 UNK         0.0600 
    232 H232       -7.3031  -20.2549  -48.8491 H         1 UNK         0.0600 
    233 H233       -5.6030  -19.9355  -48.5444 H         1 UNK         0.0600 
    234 H234       -6.2036  -21.5827  -48.4828 H         1 UNK         0.0600 
    235 H235       -5.5501  -20.4972  -53.0105 H         1 UNK         0.3000 
    236 H236       -6.8033  -17.9562  -53.4191 H         1 UNK         0.0600 
    237 H237       -6.7427  -19.7095  -55.1472 H         1 UNK         0.0600 
    238 H238       -5.9424  -18.2715  -55.7536 H         1 UNK         0.0600 
    239 H239       -4.9803  -19.6425  -55.2117 H         1 UNK         0.0600 
    240 H240       -3.6197  -18.6717  -52.2951 H         1 UNK         0.3000 
    241 H241       -2.1835  -16.5297  -53.4764 H         1 UNK         0.0600 
    242 H242       -4.0871  -14.6774  -50.3963 H         1 UNK         0.3800 
    243 H243       -4.5525  -16.2835  -50.8964 H         1 UNK         0.3800 
    244 H244       -0.4081  -16.9867  -51.8988 H         1 UNK         0.0800 
    245 H245       -1.4714  -17.8205  -50.8106 H         1 UNK         0.0800 
    246 H246        1.1097  -18.1845  -53.5269 H         1 UNK         0.0800 
    247 H247        1.2072  -19.9237  -53.5866 H         1 UNK         0.0800 
@<TRIPOS>BOND
     1    1    2 1    
     2    1  127 1    
     3    1  128 1    
     4    1  129 1    
     5    2    3 2    
     6    2    4 am   BACKBONE|DICT|INTERRES
     7    4    5 1    
     8    4  130 1    
     9    5    6 1    
    10    5   65 1    
    11    5  131 1    
    12    6    7 1    
    13    6  132 1    
    14    6  133 1    
    15    7    8 1    
    16    8    9 1    
    17    8  134 1    
    18    8  135 1    
    19    9   10 ar   
    20    9   14 ar   
    21   10   11 ar   
    22   10  136 1    
    23   11   12 ar   
    24   11  126 1    
    25   12   13 ar   
    26   12  137 1    
    27   13   14 ar   
    28   13   15 1    
    29   14  138 1    
    30   15   16 1    
    31   15  139 1    
    32   15  140 1    
    33   16   17 1    
    34   17   18 1    
    35   17  141 1    
    36   17  142 1    
    37   18   19 1    
    38   18   67 1    
    39   18  143 1    
    40   19   20 am   BACKBONE|DICT|INTERRES
    41   19  144 1    
    42   20   21 2    
    43   20   22 1    
    44   22   23 1    
    45   22   24 1    
    46   22  145 1    
    47   23  146 1    
    48   23  147 1    
    49   23  148 1    
    50   24   25 am   BACKBONE|DICT|INTERRES
    51   24  149 1    
    52   25   26 2    
    53   25   27 1    
    54   27   28 1    
    55   27   29 1    
    56   27  150 1    
    57   28  151 1    
    58   28  152 1    
    59   28  153 1    
    60   29   30 am   BACKBONE|DICT|INTERRES
    61   29  154 1    
    62   30   31 2    
    63   30   32 1    
    64   32   33 1    
    65   32   34 1    
    66   32  155 1    
    67   33  156 1    
    68   33  157 1    
    69   33  158 1    
    70   34   35 am   BACKBONE|DICT|INTERRES
    71   34  159 1    
    72   35   36 2    
    73   35   37 1    
    74   37   38 1    
    75   37   39 1    
    76   37  160 1    
    77   38  161 1    
    78   38  162 1    
    79   38  163 1    
    80   39   40 am   BACKBONE|DICT|INTERRES
    81   39  164 1    
    82   40   41 2    
    83   40   42 1    
    84   42   43 1    
    85   42   44 1    
    86   42  165 1    
    87   43  166 1    
    88   43  167 1    
    89   43  168 1    
    90   44   45 am   BACKBONE|DICT|INTERRES
    91   44  169 1    
    92   45   46 2    
    93   45   47 1    
    94   47   48 1    
    95   47   49 1    
    96   47  170 1    
    97   48  171 1    
    98   48  172 1    
    99   48  173 1    
   100   49   50 am   BACKBONE|DICT|INTERRES
   101   49  174 1    
   102   50   51 2    
   103   50   52 1    
   104   52   53 1    
   105   52   54 1    
   106   52  175 1    
   107   53  176 1    
   108   53  177 1    
   109   53  178 1    
   110   54   55 am   BACKBONE|DICT|INTERRES
   111   54  179 1    
   112   55   56 2    
   113   55   57 1    
   114   57   58 1    
   115   57   59 1    
   116   57  180 1    
   117   58  181 1    
   118   58  182 1    
   119   58  183 1    
   120   59   60 am   BACKBONE|DICT|INTERRES
   121   59  184 1    
   122   60   61 2    
   123   60   62 1    
   124   62   63 1    
   125   62   64 1    
   126   62  185 1    
   127   63  186 1    
   128   63  187 1    
   129   63  188 1    
   130   64   65 am   BACKBONE|DICT|INTERRES
   131   64  189 1    
   132   65   66 2    
   133   67   68 2    
   134   67   69 am   BACKBONE|DICT|INTERRES
   135   69   70 1    
   136   69  190 1    
   137   70   71 1    
   138   70   72 1    
   139   70  191 1    
   140   71  192 1    
   141   71  193 1    
   142   71  194 1    
   143   72   73 2    
   144   72   74 am   BACKBONE|DICT|INTERRES
   145   74   75 1    
   146   74  195 1    
   147   75   76 1    
   148   75   77 1    
   149   75  196 1    
   150   76  197 1    
   151   76  198 1    
   152   76  199 1    
   153   77   78 2    
   154   77   79 am   BACKBONE|DICT|INTERRES
   155   79   80 1    
   156   79  200 1    
   157   80   81 1    
   158   80   82 1    
   159   80  201 1    
   160   81  202 1    
   161   81  203 1    
   162   81  204 1    
   163   82   83 2    
   164   82   84 am   BACKBONE|DICT|INTERRES
   165   84   85 1    
   166   84  205 1    
   167   85   86 1    
   168   85   87 1    
   169   85  206 1    
   170   86  207 1    
   171   86  208 1    
   172   86  209 1    
   173   87   88 2    
   174   87   89 am   BACKBONE|DICT|INTERRES
   175   89   90 1    
   176   89  210 1    
   177   90   91 1    
   178   90   92 1    
   179   90  211 1    
   180   91  212 1    
   181   91  213 1    
   182   91  214 1    
   183   92   93 2    
   184   92   94 am   BACKBONE|DICT|INTERRES
   185   94   95 1    
   186   94  215 1    
   187   95   96 1    
   188   95   97 1    
   189   95  216 1    
   190   96  217 1    
   191   96  218 1    
   192   96  219 1    
   193   97   98 2    
   194   97   99 am   BACKBONE|DICT|INTERRES
   195   99  100 1    
   196   99  220 1    
   197  100  101 1    
   198  100  102 1    
   199  100  221 1    
   200  101  222 1    
   201  101  223 1    
   202  101  224 1    
   203  102  103 2    
   204  102  104 am   BACKBONE|DICT|INTERRES
   205  104  105 1    
   206  104  225 1    
   207  105  106 1    
   208  105  107 1    
   209  105  226 1    
   210  106  227 1    
   211  106  228 1    
   212  106  229 1    
   213  107  108 2    
   214  107  109 am   BACKBONE|DICT|INTERRES
   215  109  110 1    
   216  109  230 1    
   217  110  111 1    
   218  110  112 1    
   219  110  231 1    
   220  111  232 1    
   221  111  233 1    
   222  111  234 1    
   223  112  113 2    
   224  112  114 am   BACKBONE|DICT|INTERRES
   225  114  115 1    
   226  114  235 1    
   227  115  116 1    
   228  115  117 1    
   229  115  236 1    
   230  116  237 1    
   231  116  238 1    
   232  116  239 1    
   233  117  118 2    
   234  117  119 am   BACKBONE|DICT|INTERRES
   235  119  120 1    
   236  119  240 1    
   237  120  121 1    
   238  120  124 1    
   239  120  241 1    
   240  121  122 am   BACKBONE|DICT|INTERRES
   241  121  123 2    
   242  122  242 1    
   243  122  243 1    
   244  124  125 1    
   245  124  244 1    
   246  124  245 1    
   247  125  126 1    
   248  126  246 1    
   249  126  247 1    
@<TRIPOS>SUBSTRUCTURE
     1 UNK         1 GROUP             0       ****    0 ROOT    
