@<TRIPOS>MOLECULE
3R540
247   249    1
SMALL
USER_CHARGES


@<TRIPOS>ATOM
      1 CA         -0.0344  -12.4717  -48.1978 C.3       0 UNK        -0.1800 
      2 C           1.3004  -13.1730  -47.9921 C.2       0 UNK         0.5000 
      3 O           1.3683  -14.1928  -47.3043 O.2       0 UNK        -0.5000 
      4 N           2.3630  -12.6136  -48.5857 N.am      1 UNK        -0.5000 
      5 CA          3.7269  -13.1610  -48.6599 C.3       1 UNK         0.1400 
      6 C6          3.7581  -14.5382  -49.3800 C.3       23 UNK        -0.0398 
      7 S7          5.2020  -14.7527  -50.4746 S.3       23 UNK        -0.2404 
      8 C8          5.5088  -16.5490  -50.3175 C.3       23 UNK        -0.0205 
      9 C9          4.3703  -17.4700  -50.7684 C.ar      23 UNK        -0.0193 
     10 C10         3.3019  -17.0291  -51.5598 C.ar      23 UNK        -0.1150 
     11 C11         2.2576  -17.8907  -51.9067 C.ar      23 UNK        -0.0193 
     12 C12         2.3120  -19.2291  -51.5088 C.ar      23 UNK        -0.1150 
     13 C13         3.3965  -19.7003  -50.7633 C.ar      23 UNK        -0.0193 
     14 C14         4.4092  -18.8136  -50.3845 C.ar      23 UNK        -0.1150 
     15 C15         3.4985  -21.1707  -50.3883 C.3       23 UNK        -0.0205 
     16 S16         2.7766  -21.5057  -48.7548 S.3       23 UNK        -0.2404 
     17 C17         1.0001  -21.6127  -49.1555 C.3       23 UNK        -0.0398 
     18 CA          0.2492  -22.4998  -48.1388 C.3       11 UNK         0.1400 
     19 N           0.2012  -21.9047  -46.8022 N.am      11 UNK        -0.5000 
     20 C          -0.1681  -22.5642  -45.6970 C.2       10 UNK         0.5000 
     21 O          -0.4873  -23.7539  -45.6859 O.2       10 UNK        -0.5000 
     22 CA         -0.2293  -21.7495  -44.3936 C.3       10 UNK         0.1400 
     23 CB          1.1754  -21.5582  -43.8029 C.3       10 UNK        -0.1800 
     24 N          -0.8738  -20.4477  -44.5748 N.am      10 UNK        -0.5000 
     25 C          -2.1610  -20.2851  -44.9137 C.2       9 UNK         0.5000 
     26 O          -2.9463  -21.2189  -45.0767 O.2       9 UNK        -0.5000 
     27 CA         -2.6480  -18.8435  -45.1475 C.3       9 UNK         0.1400 
     28 CB         -2.8937  -18.1244  -43.8128 C.3       9 UNK        -0.1800 
     29 N          -1.7295  -18.0576  -45.9711 N.am      9 UNK        -0.5000 
     30 C          -1.4075  -18.3495  -47.2397 C.2       8 UNK         0.5000 
     31 O          -1.8751  -19.2999  -47.8605 O.2       8 UNK        -0.5000 
     32 CA         -0.3512  -17.4612  -47.9172 C.3       8 UNK         0.1400 
     33 CB         -0.9983  -16.1697  -48.4309 C.3       8 UNK        -0.1800 
     34 N           0.7724  -17.1450  -47.0336 N.am      8 UNK        -0.5000 
     35 C           1.5679  -18.0701  -46.4756 C.2       7 UNK         0.5000 
     36 O           1.4533  -19.2797  -46.6680 O.2       7 UNK        -0.5000 
     37 CA          2.6227  -17.5707  -45.4775 C.3       7 UNK         0.1400 
     38 CB          3.7687  -16.8347  -46.1828 C.3       7 UNK        -0.1800 
     39 N           2.0360  -16.7117  -44.4509 N.am      7 UNK        -0.5000 
     40 C           1.1884  -17.1387  -43.5055 C.2       6 UNK         0.5000 
     41 O           0.8289  -18.3095  -43.3846 O.2       6 UNK        -0.5000 
     42 CA          0.6257  -16.0748  -42.5465 C.3       6 UNK         0.1400 
     43 CB          1.5784  -15.8622  -41.3611 C.3       6 UNK        -0.1800 
     44 N           0.3450  -14.7831  -43.1769 N.am      6 UNK        -0.5000 
     45 C          -0.5150  -14.5927  -44.1903 C.2       5 UNK         0.5000 
     46 O          -1.0857  -15.5133  -44.7766 O.2       5 UNK        -0.5000 
     47 CA         -0.7838  -13.1329  -44.6131 C.3       5 UNK         0.1400 
     48 CB         -2.1479  -12.9517  -45.3114 C.3       5 UNK        -0.1800 
     49 N          -0.6185  -12.1663  -43.5231 N.am      5 UNK        -0.5000 
     50 C          -1.3009  -12.1094  -42.3672 C.2       4 UNK         0.5000 
     51 O          -2.2575  -12.8390  -42.1028 O.2       4 UNK        -0.5000 
     52 CA         -0.8265  -11.0681  -41.3248 C.3       4 UNK         0.1400 
     53 CB         -0.9898  -11.5765  -39.8768 C.3       4 UNK        -0.1800 
     54 N           0.5419  -10.5747  -41.5442 N.am      4 UNK        -0.5000 
     55 C           1.6681  -11.3016  -41.5639 C.2       3 UNK         0.5000 
     56 O           1.7108  -12.5192  -41.3709 O.2       3 UNK        -0.5000 
     57 CA          2.9606  -10.5397  -41.9124 C.3       3 UNK         0.1400 
     58 CB          3.7845  -10.2673  -40.6450 C.3       3 UNK        -0.1800 
     59 N           3.7856  -11.2734  -42.8746 N.am      3 UNK        -0.5000 
     60 C           3.3862  -11.6655  -44.0915 C.2       2 UNK         0.5000 
     61 O           2.2812  -11.3937  -44.5756 O.2       2 UNK        -0.5000 
     62 CA          4.3804  -12.5251  -44.8867 C.3       2 UNK         0.1400 
     63 CB          4.5661  -13.9012  -44.2183 C.3       2 UNK        -0.1800 
     64 N           3.8624  -12.6760  -46.2412 N.am      2 UNK        -0.5000 
     65 C           4.4993  -13.1564  -47.3144 C.2       1 UNK         0.5000 
     66 O           5.6648  -13.5524  -47.2804 O.2       1 UNK        -0.5000 
     67 C          -1.1540  -22.8887  -48.6449 C.2       11 UNK         0.5000 
     68 O          -1.3054  -23.9753  -49.2023 O.2       11 UNK        -0.5000 
     69 N          -2.1629  -22.0399  -48.4007 N.am      12 UNK        -0.5000 
     70 CA         -3.5656  -22.3250  -48.6996 C.3       12 UNK         0.1400 
     71 CB         -4.4281  -21.0784  -48.4679 C.3       12 UNK        -0.1800 
     72 C          -4.1100  -23.5105  -47.8906 C.2       12 UNK         0.5000 
     73 O          -4.7979  -24.3536  -48.4609 O.2       12 UNK        -0.5000 
     74 N          -3.7683  -23.5841  -46.5961 N.am      13 UNK        -0.5000 
     75 CA         -4.1194  -24.6999  -45.7158 C.3       13 UNK         0.1400 
     76 CB         -3.7221  -24.3734  -44.2686 C.3       13 UNK        -0.1800 
     77 C          -3.4984  -26.0316  -46.1756 C.2       13 UNK         0.5000 
     78 O          -4.1989  -27.0438  -46.2102 O.2       13 UNK        -0.5000 
     79 N          -2.2199  -25.9979  -46.5794 N.am      14 UNK        -0.5000 
     80 CA         -1.5017  -27.1345  -47.1639 C.3       14 UNK         0.1400 
     81 CB         -0.0160  -26.7760  -47.3179 C.3       14 UNK        -0.1800 
     82 C          -2.0974  -27.5980  -48.5094 C.2       14 UNK         0.5000 
     83 O          -2.1414  -28.7995  -48.7747 O.2       14 UNK        -0.5000 
     84 N          -2.5819  -26.6416  -49.3117 N.am      15 UNK        -0.5000 
     85 CA         -3.2859  -26.8630  -50.5763 C.3       15 UNK         0.1400 
     86 CB         -3.1133  -25.6129  -51.4547 C.3       15 UNK        -0.1800 
     87 C          -4.7828  -27.2043  -50.4032 C.2       15 UNK         0.5000 
     88 O          -5.4802  -27.3410  -51.4088 O.2       15 UNK        -0.5000 
     89 N          -5.2685  -27.3031  -49.1551 N.am      16 UNK        -0.5000 
     90 CA         -6.6562  -27.5773  -48.7578 C.3       16 UNK         0.1400 
     91 CB         -7.0393  -29.0297  -49.1091 C.3       16 UNK        -0.1800 
     92 C          -7.6674  -26.5414  -49.3009 C.2       16 UNK         0.5000 
     93 O          -8.8050  -26.8917  -49.6186 O.2       16 UNK        -0.5000 
     94 N          -7.2139  -25.2848  -49.4150 N.am      17 UNK        -0.5000 
     95 CA         -7.8999  -24.1042  -49.9483 C.3       17 UNK         0.1400 
     96 CB         -9.1263  -23.7443  -49.0853 C.3       17 UNK        -0.1800 
     97 C          -8.2386  -24.1796  -51.4537 C.2       17 UNK         0.5000 
     98 O          -8.9812  -23.3277  -51.9447 O.2       17 UNK        -0.5000 
     99 N          -7.6857  -25.1661  -52.1746 N.am      18 UNK        -0.5000 
    100 CA        -7.8989  -25.3529  -53.6118 C.3       18 UNK         0.1400 
    101 CB        -7.6426  -26.8254  -53.9679 C.3       18 UNK        -0.1800 
    102 C         -7.0158  -24.4310  -54.4747 C.2       18 UNK         0.5000 
    103 O         -7.3244  -24.2278  -55.6498 O.2       18 UNK        -0.5000 
    104 N         -5.9362  -23.9003  -53.8904 N.am      19 UNK        -0.5000 
    105 CA        -4.9408  -23.0447  -54.5253 C.3       19 UNK         0.1400 
    106 CB        -4.0245  -23.8969  -55.4290 C.3       19 UNK        -0.1800 
    107 C         -4.1354  -22.3239  -53.4314 C.2       19 UNK         0.5000 
    108 O         -4.3879  -22.5366  -52.2436 O.2       19 UNK        -0.5000 
    109 N         -3.1713  -21.4973  -53.8608 N.am      20 UNK        -0.5000 
    110 CA        -2.1176  -20.8491  -53.0651 C.3       20 UNK         0.1400 
    111 CB        -1.2327  -21.9046  -52.3751 C.3       20 UNK        -0.1800 
    112 C         -2.5837  -19.7576  -52.0781 C.2       20 UNK         0.5000 
    113 O         -1.7539  -19.2147  -51.3478 O.2       20 UNK        -0.5000 
    114 N         -3.8740  -19.4030  -52.1028 N.am      21 UNK        -0.5000 
    115 CA        -4.4803  -18.3367  -51.3048 C.3       21 UNK         0.1400 
    116 CB        -5.9801  -18.6413  -51.1380 C.3       21 UNK        -0.1800 
    117 C         -4.2129  -16.9508  -51.9271 C.2       21 UNK         0.5000 
    118 O         -5.1464  -16.2595  -52.3380 O.2       21 UNK        -0.5000 
    119 N         -2.9296  -16.5857  -52.0110 N.am      22 UNK        -0.5000 
    120 CA        -2.4303  -15.3299  -52.5940 C.3       22 UNK         0.1400 
    121 C         -2.5934  -14.0602  -51.7026 C.2       22 UNK         0.5000 
    122 N         -3.1113  -14.1564  -50.4843 N.am      22 UNK        -0.7600 
    123 O         -2.2635  -12.9591  -52.1352 O.2       22 UNK        -0.5000 
    124 C124       -0.9862  -15.4939  -53.1356 C.3       23 UNK        -0.0398 
    125 S125        0.2231  -16.0134  -51.8691 S.3       23 UNK        -0.2404 
    126 C126        1.0854  -17.3695  -52.7260 C.3       23 UNK        -0.0205 
    127 H127       -0.0626  -11.9508  -49.1551 H         1 UNK         0.0600 
    128 H128       -0.8505  -13.1929  -48.1905 H         1 UNK         0.0600 
    129 H129       -0.2080  -11.7428  -47.4070 H         1 UNK         0.0600 
    130 H130        2.2285  -11.7531  -49.0987 H         1 UNK         0.3000 
    131 H131        4.2575  -12.4442  -49.2884 H         1 UNK         0.0600 
    132 H132        3.6960  -15.3632  -48.6723 H         1 UNK         0.0800 
    133 H133        2.8778  -14.6436  -50.0152 H         1 UNK         0.0800 
    134 H134        6.3982  -16.7948  -50.8988 H         1 UNK         0.0800 
    135 H135        5.7539  -16.7609  -49.2754 H         1 UNK         0.0800 
    136 H136        3.2562  -16.0056  -51.9002 H         1 UNK         0.1150 
    137 H137        1.5184  -19.9064  -51.7896 H         1 UNK         0.1150 
    138 H138        5.2387  -19.1765  -49.7935 H         1 UNK         0.1150 
    139 H139        3.0268  -21.7955  -51.1481 H         1 UNK         0.0800 
    140 H140        4.5480  -21.4681  -50.3692 H         1 UNK         0.0800 
    141 H141        0.9091  -22.0375  -50.1548 H         1 UNK         0.0800 
    142 H142        0.5733  -20.6084  -49.1965 H         1 UNK         0.0800 
    143 H143        0.8065  -23.4352  -48.0496 H         1 UNK         0.0600 
    144 H144        0.4973  -20.9340  -46.7271 H         1 UNK         0.3000 
    145 H145       -0.8230  -22.3189  -43.6755 H         1 UNK         0.0600 
    146 H146        1.1292  -21.0683  -42.8302 H         1 UNK         0.0600 
    147 H147        1.6744  -22.5175  -43.6610 H         1 UNK         0.0600 
    148 H148        1.8067  -20.9509  -44.4526 H         1 UNK         0.0600 
    149 H149       -0.2902  -19.6290  -44.4341 H         1 UNK         0.3000 
    150 H150       -3.5994  -18.8994  -45.6802 H         1 UNK         0.0600 
    151 H151       -3.5973  -18.6811  -43.1927 H         1 UNK         0.0600 
    152 H152       -3.3142  -17.1312  -43.9719 H         1 UNK         0.0600 
    153 H153       -1.9721  -18.0089  -43.2424 H         1 UNK         0.0600 
    154 H154       -1.3284  -17.2261  -45.5433 H         1 UNK         0.3000 
    155 H155        0.0453  -18.0076  -48.7761 H         1 UNK         0.0600 
    156 H156       -0.2835  -15.5691  -48.9910 H         1 UNK         0.0600 
    157 H157       -1.3858  -15.5599  -47.6144 H         1 UNK         0.0600 
    158 H158       -1.8270  -16.3945  -49.1024 H         1 UNK         0.0600 
    159 H159        0.9331  -16.1620  -46.8408 H         1 UNK         0.3000 
    160 H160        3.0455  -18.4499  -44.9862 H         1 UNK         0.0600 
    161 H161        3.4629  -15.8374  -46.4935 H         1 UNK         0.0600 
    162 H162        4.1054  -17.3760  -47.0684 H         1 UNK         0.0600 
    163 H163        4.6283  -16.7290  -45.5219 H         1 UNK         0.0600 
    164 H164        2.2348  -15.7249  -44.5075 H         1 UNK         0.3000 
    165 H165       -0.3195  -16.4567  -42.1559 H         1 UNK         0.0600 
    166 H166        2.5236  -15.4200  -41.6791 H         1 UNK         0.0600 
    167 H167        1.1359  -15.2024  -40.6145 H         1 UNK         0.0600 
    168 H168        1.8056  -16.8069  -40.8652 H         1 UNK         0.0600 
    169 H169        0.7587  -13.9707  -42.7339 H         1 UNK         0.3000 
    170 H170       -0.0045  -12.8927  -45.3334 H         1 UNK         0.0600 
    171 H171       -2.9774  -13.2204  -44.6571 H         1 UNK         0.0600 
    172 H172       -2.2215  -13.5802  -46.1991 H         1 UNK         0.0600 
    173 H173       -2.2925  -11.9204  -45.6328 H         1 UNK         0.0600 
    174 H174        0.1689  -11.5392  -43.6326 H         1 UNK         0.3000 
    175 H175       -1.4827  -10.2053  -41.4463 H         1 UNK         0.0600 
    176 H176       -0.6560  -10.8299  -39.1563 H         1 UNK         0.0600 
    177 H177       -2.0343  -11.7955  -39.6525 H         1 UNK         0.0600 
    178 H178       -0.4207  -12.4901  -39.7016 H         1 UNK         0.0600 
    179 H179        0.6119   -9.5846  -41.7363 H         1 UNK         0.3000 
    180 H180        2.6972   -9.5825  -42.3671 H         1 UNK         0.0600 
    181 H181        4.0998  -11.1942  -40.1640 H         1 UNK         0.0600 
    182 H182        3.2036   -9.7007  -39.9159 H         1 UNK         0.0600 
    183 H183        4.6776   -9.6845  -40.8711 H         1 UNK         0.0600 
    184 H184        4.6949  -11.5631  -42.5460 H         1 UNK         0.3000 
    185 H185        5.3363  -11.9997  -44.9303 H         1 UNK         0.0600 
    186 H186        5.2757  -14.5200  -44.7663 H         1 UNK         0.0600 
    187 H187        4.9528  -13.8015  -43.2037 H         1 UNK         0.0600 
    188 H188        3.6225  -14.4410  -44.1548 H         1 UNK         0.0600 
    189 H189        2.9108  -12.3450  -46.3463 H         1 UNK         0.3000 
    190 H190       -1.9658  -21.1262  -47.9968 H         1 UNK         0.3000 
    191 H191       -3.6295  -22.5869  -49.7561 H         1 UNK         0.0600 
    192 H192       -4.0940  -20.2579  -49.0986 H         1 UNK         0.0600 
    193 H193       -5.4728  -21.2737  -48.7125 H         1 UNK         0.0600 
    194 H194       -4.3860  -20.7431  -47.4314 H         1 UNK         0.0600 
    195 H195       -3.2434  -22.8204  -46.1796 H         1 UNK         0.3000 
    196 H196       -5.2049  -24.8148  -45.7479 H         1 UNK         0.0600 
    197 H197       -3.9954  -25.1872  -43.5959 H         1 UNK         0.0600 
    198 H198       -4.2287  -23.4753  -43.9151 H         1 UNK         0.0600 
    199 H199       -2.6490  -24.2116  -44.1692 H         1 UNK         0.0600 
    200 H200       -1.6999  -25.1309  -46.4792 H         1 UNK         0.3000 
    201 H201       -1.5779  -27.9695  -46.4644 H         1 UNK         0.0600 
    202 H202        0.4259  -26.5059  -46.3586 H         1 UNK         0.0600 
    203 H203        0.1281  -25.9376  -47.9993 H         1 UNK         0.0600 
    204 H204        0.5505  -27.6205  -47.7119 H         1 UNK         0.0600 
    205 H205       -2.4456  -25.6725  -49.0425 H         1 UNK         0.3000 
    206 H206       -2.8234  -27.7054  -51.0941 H         1 UNK         0.0600 
    207 H207       -2.0599  -25.3917  -51.6275 H         1 UNK         0.0600 
    208 H208       -3.5814  -25.7420  -52.4312 H         1 UNK         0.0600 
    209 H209       -3.5635  -24.7376  -50.9872 H         1 UNK         0.0600 
    210 H210       -4.6301  -27.1305  -48.3885 H         1 UNK         0.3000 
    211 H211       -6.6834  -27.4824  -47.6715 H         1 UNK         0.0600 
    212 H212       -7.0901  -29.1854  -50.1872 H         1 UNK         0.0600 
    213 H213       -8.0141  -29.2894  -48.6947 H         1 UNK         0.0600 
    214 H214       -6.3167  -29.7367  -48.7015 H         1 UNK         0.0600 
    215 H215       -6.2575  -25.1040  -49.1074 H         1 UNK         0.3000 
    216 H216       -7.1842  -23.2863  -49.8520 H         1 UNK         0.0600 
    217 H217       -8.8590  -23.6745  -48.0309 H         1 UNK         0.0600 
    218 H218       -9.9218  -24.4834  -49.1827 H         1 UNK         0.0600 
    219 H219       -9.5417  -22.7790  -49.3766 H         1 UNK         0.0600 
    220 H220       -7.0804  -25.8365  -51.7148 H         1 UNK         0.3000 
    221 H221       -8.9415  -25.1279  -53.8463 H         1 UNK         0.0600 
    222 H222       -6.5971  -27.0988  -53.8220 H         1 UNK         0.0600 
    223 H223       -8.2528  -27.4926  -53.3588 H         1 UNK         0.0600 
    224 H224       -7.8878  -27.0217  -55.0123 H         1 UNK         0.0600 
    225 H225       -5.7770  -24.0550  -52.9028 H         1 UNK         0.3000 
    226 H226       -5.4507  -22.2872  -55.1238 H         1 UNK         0.0600 
    227 H227       -4.5942  -24.4207  -56.1964 H         1 UNK         0.0600 
    228 H228       -3.2888  -23.2825  -55.9485 H         1 UNK         0.0600 
    229 H229       -3.4796  -24.6448  -54.8517 H         1 UNK         0.0600 
    230 H230       -3.0831  -21.3629  -54.8586 H         1 UNK         0.3000 
    231 H231       -1.4881  -20.3289  -53.7884 H         1 UNK         0.0600 
    232 H232       -0.3544  -21.4374  -51.9336 H         1 UNK         0.0600 
    233 H233       -0.8781  -22.6518  -53.0849 H         1 UNK         0.0600 
    234 H234       -1.7668  -22.4241  -51.5797 H         1 UNK         0.0600 
    235 H235       -4.4827  -19.8874  -52.7451 H         1 UNK         0.3000 
    236 H236       -4.0277  -18.3286  -50.3114 H         1 UNK         0.0600 
    237 H237       -6.4650  -17.8889  -50.5148 H         1 UNK         0.0600 
    238 H238       -6.4979  -18.6589  -52.0977 H         1 UNK         0.0600 
    239 H239       -6.1350  -19.6078  -50.6583 H         1 UNK         0.0600 
    240 H240       -2.2249  -17.2284  -51.6636 H         1 UNK         0.3000 
    241 H241       -3.0541  -15.1240  -53.4659 H         1 UNK         0.0600 
    242 H242       -3.4128  -15.0461  -50.1258 H         1 UNK         0.3800 
    243 H243       -3.2250  -13.3234  -49.9298 H         1 UNK         0.3800 
    244 H244       -0.9941  -16.2280  -53.9422 H         1 UNK         0.0800 
    245 H245       -0.6340  -14.5673  -53.5918 H         1 UNK         0.0800 
    246 H246        1.4563  -17.0149  -53.6886 H         1 UNK         0.0800 
    247 H247        0.3727  -18.1686  -52.9354 H         1 UNK         0.0800 
@<TRIPOS>BOND
     1    1    2 1    
     2    1  127 1    
     3    1  128 1    
     4    1  129 1    
     5    2    3 2    
     6    2    4 am   BACKBONE|DICT|INTERRES
     7    4    5 1    
     8    4  130 1    
     9    5    6 1    
    10    5   65 1    
    11    5  131 1    
    12    6    7 1    
    13    6  132 1    
    14    6  133 1    
    15    7    8 1    
    16    8    9 1    
    17    8  134 1    
    18    8  135 1    
    19    9   10 ar   
    20    9   14 ar   
    21   10   11 ar   
    22   10  136 1    
    23   11   12 ar   
    24   11  126 1    
    25   12   13 ar   
    26   12  137 1    
    27   13   14 ar   
    28   13   15 1    
    29   14  138 1    
    30   15   16 1    
    31   15  139 1    
    32   15  140 1    
    33   16   17 1    
    34   17   18 1    
    35   17  141 1    
    36   17  142 1    
    37   18   19 1    
    38   18   67 1    
    39   18  143 1    
    40   19   20 am   BACKBONE|DICT|INTERRES
    41   19  144 1    
    42   20   21 2    
    43   20   22 1    
    44   22   23 1    
    45   22   24 1    
    46   22  145 1    
    47   23  146 1    
    48   23  147 1    
    49   23  148 1    
    50   24   25 am   BACKBONE|DICT|INTERRES
    51   24  149 1    
    52   25   26 2    
    53   25   27 1    
    54   27   28 1    
    55   27   29 1    
    56   27  150 1    
    57   28  151 1    
    58   28  152 1    
    59   28  153 1    
    60   29   30 am   BACKBONE|DICT|INTERRES
    61   29  154 1    
    62   30   31 2    
    63   30   32 1    
    64   32   33 1    
    65   32   34 1    
    66   32  155 1    
    67   33  156 1    
    68   33  157 1    
    69   33  158 1    
    70   34   35 am   BACKBONE|DICT|INTERRES
    71   34  159 1    
    72   35   36 2    
    73   35   37 1    
    74   37   38 1    
    75   37   39 1    
    76   37  160 1    
    77   38  161 1    
    78   38  162 1    
    79   38  163 1    
    80   39   40 am   BACKBONE|DICT|INTERRES
    81   39  164 1    
    82   40   41 2    
    83   40   42 1    
    84   42   43 1    
    85   42   44 1    
    86   42  165 1    
    87   43  166 1    
    88   43  167 1    
    89   43  168 1    
    90   44   45 am   BACKBONE|DICT|INTERRES
    91   44  169 1    
    92   45   46 2    
    93   45   47 1    
    94   47   48 1    
    95   47   49 1    
    96   47  170 1    
    97   48  171 1    
    98   48  172 1    
    99   48  173 1    
   100   49   50 am   BACKBONE|DICT|INTERRES
   101   49  174 1    
   102   50   51 2    
   103   50   52 1    
   104   52   53 1    
   105   52   54 1    
   106   52  175 1    
   107   53  176 1    
   108   53  177 1    
   109   53  178 1    
   110   54   55 am   BACKBONE|DICT|INTERRES
   111   54  179 1    
   112   55   56 2    
   113   55   57 1    
   114   57   58 1    
   115   57   59 1    
   116   57  180 1    
   117   58  181 1    
   118   58  182 1    
   119   58  183 1    
   120   59   60 am   BACKBONE|DICT|INTERRES
   121   59  184 1    
   122   60   61 2    
   123   60   62 1    
   124   62   63 1    
   125   62   64 1    
   126   62  185 1    
   127   63  186 1    
   128   63  187 1    
   129   63  188 1    
   130   64   65 am   BACKBONE|DICT|INTERRES
   131   64  189 1    
   132   65   66 2    
   133   67   68 2    
   134   67   69 am   BACKBONE|DICT|INTERRES
   135   69   70 1    
   136   69  190 1    
   137   70   71 1    
   138   70   72 1    
   139   70  191 1    
   140   71  192 1    
   141   71  193 1    
   142   71  194 1    
   143   72   73 2    
   144   72   74 am   BACKBONE|DICT|INTERRES
   145   74   75 1    
   146   74  195 1    
   147   75   76 1    
   148   75   77 1    
   149   75  196 1    
   150   76  197 1    
   151   76  198 1    
   152   76  199 1    
   153   77   78 2    
   154   77   79 am   BACKBONE|DICT|INTERRES
   155   79   80 1    
   156   79  200 1    
   157   80   81 1    
   158   80   82 1    
   159   80  201 1    
   160   81  202 1    
   161   81  203 1    
   162   81  204 1    
   163   82   83 2    
   164   82   84 am   BACKBONE|DICT|INTERRES
   165   84   85 1    
   166   84  205 1    
   167   85   86 1    
   168   85   87 1    
   169   85  206 1    
   170   86  207 1    
   171   86  208 1    
   172   86  209 1    
   173   87   88 2    
   174   87   89 am   BACKBONE|DICT|INTERRES
   175   89   90 1    
   176   89  210 1    
   177   90   91 1    
   178   90   92 1    
   179   90  211 1    
   180   91  212 1    
   181   91  213 1    
   182   91  214 1    
   183   92   93 2    
   184   92   94 am   BACKBONE|DICT|INTERRES
   185   94   95 1    
   186   94  215 1    
   187   95   96 1    
   188   95   97 1    
   189   95  216 1    
   190   96  217 1    
   191   96  218 1    
   192   96  219 1    
   193   97   98 2    
   194   97   99 am   BACKBONE|DICT|INTERRES
   195   99  100 1    
   196   99  220 1    
   197  100  101 1    
   198  100  102 1    
   199  100  221 1    
   200  101  222 1    
   201  101  223 1    
   202  101  224 1    
   203  102  103 2    
   204  102  104 am   BACKBONE|DICT|INTERRES
   205  104  105 1    
   206  104  225 1    
   207  105  106 1    
   208  105  107 1    
   209  105  226 1    
   210  106  227 1    
   211  106  228 1    
   212  106  229 1    
   213  107  108 2    
   214  107  109 am   BACKBONE|DICT|INTERRES
   215  109  110 1    
   216  109  230 1    
   217  110  111 1    
   218  110  112 1    
   219  110  231 1    
   220  111  232 1    
   221  111  233 1    
   222  111  234 1    
   223  112  113 2    
   224  112  114 am   BACKBONE|DICT|INTERRES
   225  114  115 1    
   226  114  235 1    
   227  115  116 1    
   228  115  117 1    
   229  115  236 1    
   230  116  237 1    
   231  116  238 1    
   232  116  239 1    
   233  117  118 2    
   234  117  119 am   BACKBONE|DICT|INTERRES
   235  119  120 1    
   236  119  240 1    
   237  120  121 1    
   238  120  124 1    
   239  120  241 1    
   240  121  122 am   BACKBONE|DICT|INTERRES
   241  121  123 2    
   242  122  242 1    
   243  122  243 1    
   244  124  125 1    
   245  124  244 1    
   246  124  245 1    
   247  125  126 1    
   248  126  246 1    
   249  126  247 1    
@<TRIPOS>SUBSTRUCTURE
     1 UNK         1 GROUP             0       ****    0 ROOT    
