@<TRIPOS>MOLECULE
3R540
247   249    1
SMALL
USER_CHARGES


@<TRIPOS>ATOM
      1 CA         -0.3962  -16.7926  -48.7783 C.3       0 UNK        -0.1800 
      2 C           0.3052  -15.4449  -48.6708 C.2       0 UNK         0.5000 
      3 O          -0.1034  -14.5990  -47.8770 O.2       0 UNK        -0.5000 
      4 N           1.3713  -15.2442  -49.4552 N.am      1 UNK        -0.5000 
      5 CA          2.1292  -13.9871  -49.5770 C.3       1 UNK         0.1400 
      6 C6          2.9191  -13.8973  -50.9115 C.3       23 UNK        -0.0398 
      7 S7          1.9546  -14.3328  -52.4008 S.3       23 UNK        -0.2404 
      8 C8          2.8532  -15.8021  -52.9976 C.3       23 UNK        -0.0205 
      9 C9          2.4548  -17.0611  -52.2413 C.ar      23 UNK        -0.0193 
     10 C10         1.4594  -17.8936  -52.7545 C.ar      23 UNK        -0.1150 
     11 C11         1.0915  -19.0592  -52.0798 C.ar      23 UNK        -0.0193 
     12 C12         1.7130  -19.3809  -50.8695 C.ar      23 UNK        -0.1150 
     13 C13         2.7237  -18.5628  -50.3439 C.ar      23 UNK        -0.0193 
     14 C14         3.0911  -17.4108  -51.0467 C.ar      23 UNK        -0.1150 
     15 C15         3.4642  -18.8709  -49.0401 C.3       23 UNK        -0.0205 
     16 S16         3.1811  -20.5271  -48.3264 S.3       23 UNK        -0.2404 
     17 C17         1.7313  -20.2158  -47.2672 C.3       23 UNK        -0.0398 
     18 CA          1.0627  -21.5375  -46.7997 C.3       11 UNK         0.1400 
     19 N           0.7874  -21.5539  -45.3596 N.am      11 UNK        -0.5000 
     20 C           0.4225  -22.6450  -44.6703 C.2       10 UNK         0.5000 
     21 O           0.3128  -23.7647  -45.1712 O.2       10 UNK        -0.5000 
     22 CA          0.0739  -22.4443  -43.1837 C.3       10 UNK         0.1400 
     23 CB          1.3428  -22.3863  -42.3204 C.3       10 UNK        -0.1800 
     24 N          -0.7387  -21.2480  -42.9569 N.am      10 UNK        -0.5000 
     25 C          -1.9819  -21.0864  -43.4328 C.2       9 UNK         0.5000 
     26 O          -2.5882  -21.9530  -44.0611 O.2       9 UNK        -0.5000 
     27 CA         -2.6457  -19.7159  -43.2154 C.3       9 UNK         0.1400 
     28 CB         -3.2521  -19.6245  -41.8076 C.3       9 UNK        -0.1800 
     29 N          -1.7272  -18.5987  -43.4389 N.am      9 UNK        -0.5000 
     30 C          -1.1329  -18.3251  -44.6102 C.2       8 UNK         0.5000 
     31 O          -1.3263  -18.9624  -45.6438 O.2       8 UNK        -0.5000 
     32 CA         -0.0967  -17.1909  -44.6186 C.3       8 UNK         0.1400 
     33 CB         -0.7794  -15.8179  -44.6907 C.3       8 UNK        -0.1800 
     34 N           0.7884  -17.2441  -43.4582 N.am      8 UNK        -0.5000 
     35 C           1.6372  -18.2454  -43.1895 C.2       7 UNK         0.5000 
     36 O           1.7906  -19.2258  -43.9165 O.2       7 UNK        -0.5000 
     37 CA          2.4070  -18.1575  -41.8626 C.3       7 UNK         0.1400 
     38 CB          3.6079  -17.2093  -41.9816 C.3       7 UNK        -0.1800 
     39 N           1.5465  -17.7213  -40.7651 N.am      7 UNK        -0.5000 
     40 C           0.5682  -18.4662  -40.2334 C.2       6 UNK         0.5000 
     41 O           0.2970  -19.6087  -40.6044 O.2       6 UNK        -0.5000 
     42 CA         -0.2656  -17.8059  -39.1212 C.3       6 UNK         0.1400 
     43 CB          0.4512  -17.9152  -37.7671 C.3       6 UNK        -0.1800 
     44 N          -0.5683  -16.4003  -39.4000 N.am      6 UNK        -0.5000 
     45 C          -1.3699  -15.9905  -40.3920 C.2       5 UNK         0.5000 
     46 O          -1.9189  -16.7510  -41.1881 O.2       5 UNK        -0.5000 
     47 CA         -1.5626  -14.4721  -40.5441 C.3       5 UNK         0.1400 
     48 CB         -2.5531  -13.9428  -39.4956 C.3       5 UNK        -0.1800 
     49 N          -0.3235  -13.6896  -40.4853 N.am      5 UNK        -0.5000 
     50 C           0.7310  -13.8631  -41.2916 C.2       4 UNK         0.5000 
     51 O           0.8617  -14.8133  -42.0661 O.2       4 UNK        -0.5000 
     52 CA          1.8142  -12.7822  -41.2680 C.3       4 UNK         0.1400 
     53 CB          3.0735  -13.2611  -40.5291 C.3       4 UNK        -0.1800 
     54 N           2.1276  -12.5011  -42.6624 N.am      4 UNK        -0.5000 
     55 C           2.3940  -11.3028  -43.1887 C.2       3 UNK         0.5000 
     56 O           2.5317  -10.2812  -42.5132 O.2       3 UNK        -0.5000 
     57 CA          2.4726  -11.2256  -44.7307 C.3       3 UNK         0.1400 
     58 CB          3.4453  -10.1335  -45.2242 C.3       3 UNK        -0.1800 
     59 N           2.7437  -12.5103  -45.3931 N.am      3 UNK        -0.5000 
     60 C           3.8653  -13.2437  -45.3161 C.2       2 UNK         0.5000 
     61 O           4.8288  -12.9552  -44.6058 O.2       2 UNK        -0.5000 
     62 CA          3.9282  -14.5237  -46.1761 C.3       2 UNK         0.1400 
     63 CB          3.6351  -15.7578  -45.3122 C.3       2 UNK        -0.1800 
     64 N           3.0275  -14.5401  -47.3329 N.am      2 UNK        -0.5000 
     65 C           3.0831  -13.7123  -48.3863 C.2       1 UNK         0.5000 
     66 O           3.8769  -12.7731  -48.4581 O.2       1 UNK        -0.5000 
     67 C          -0.1973  -21.8706  -47.6252 C.2       11 UNK         0.5000 
     68 O          -0.1211  -22.6784  -48.5496 O.2       11 UNK        -0.5000 
     69 N          -1.3430  -21.2895  -47.2412 N.am      12 UNK        -0.5000 
     70 CA         -2.6560  -21.5644  -47.8216 C.3       12 UNK         0.1400 
     71 CB         -3.6977  -20.6053  -47.2275 C.3       12 UNK        -0.1800 
     72 C          -3.0957  -23.0252  -47.6286 C.2       12 UNK         0.5000 
     73 O          -3.5739  -23.6373  -48.5814 O.2       12 UNK        -0.5000 
     74 N          -2.8970  -23.5726  -46.4218 N.am      13 UNK        -0.5000 
     75 CA         -3.1837  -24.9703  -46.0921 C.3       13 UNK         0.1400 
     76 CB         -3.0052  -25.1941  -44.5830 C.3       13 UNK        -0.1800 
     77 C          -2.3280  -25.9655  -46.8978 C.2       13 UNK         0.5000 
     78 O          -2.8418  -27.0042  -47.3143 O.2       13 UNK        -0.5000 
     79 N          -1.0537  -25.6188  -47.1268 N.am      14 UNK        -0.5000 
     80 CA         -0.1339  -26.3740  -47.9767 C.3       14 UNK         0.1400 
     81 CB          1.3024  -25.8812  -47.7419 C.3       14 UNK        -0.1800 
     82 C          -0.5071  -26.2939  -49.4699 C.2       14 UNK         0.5000 
     83 O          -0.4173  -27.3034  -50.1698 O.2       14 UNK        -0.5000 
     84 N          -0.9190  -25.1031  -49.9280 N.am      15 UNK        -0.5000 
     85 CA         -1.3355  -24.8340  -51.3051 C.3       15 UNK         0.1400 
     86 CB         -1.4374  -23.3169  -51.5149 C.3       15 UNK        -0.1800 
     87 C          -2.6602  -25.5211  -51.6828 C.2       15 UNK         0.5000 
     88 O          -2.7673  -26.0472  -52.7907 O.2       15 UNK        -0.5000 
     89 N          -3.6223  -25.5084  -50.7478 N.am      16 UNK        -0.5000 
     90 CA         -4.9681  -26.0857  -50.8262 C.3       16 UNK         0.1400 
     91 CB         -4.8809  -27.6258  -50.8061 C.3       16 UNK        -0.1800 
     92 C          -5.7865  -25.5468  -52.0278 C.2       16 UNK         0.5000 
     93 O          -6.0052  -26.2805  -52.9920 O.2       16 UNK        -0.5000 
     94 N          -6.2331  -24.2836  -52.0144 N.am      17 UNK        -0.5000 
     95 CA         -6.1018  -23.2821  -50.9598 C.3       17 UNK         0.1400 
     96 CB         -7.2789  -23.4018  -49.9764 C.3       17 UNK        -0.1800 
     97 C          -6.0549  -21.8867  -51.5925 C.2       17 UNK         0.5000 
     98 O          -6.4584  -21.7287  -52.7493 O.2       17 UNK        -0.5000 
     99 N          -5.5632  -20.9103  -50.8174 N.am      18 UNK        -0.5000 
    100 CA        -5.4157  -19.5028  -51.1917 C.3       18 UNK         0.1400 
    101 CB        -4.6802  -18.7512  -50.0699 C.3       18 UNK        -0.1800 
    102 C         -6.7723  -18.8498  -51.5209 C.2       18 UNK         0.5000 
    103 O         -7.4921  -18.4481  -50.6053 O.2       18 UNK        -0.5000 
    104 N         -7.0851  -18.8066  -52.8196 N.am      19 UNK        -0.5000 
    105 CA        -8.3170  -18.3696  -53.4827 C.3       19 UNK         0.1400 
    106 CB        -9.6047  -18.7051  -52.6967 C.3       19 UNK        -0.1800 
    107 C         -8.3724  -19.0644  -54.8502 C.2       19 UNK         0.5000 
    108 O         -8.5621  -18.3995  -55.8691 O.2       19 UNK        -0.5000 
    109 N         -8.1753  -20.3903  -54.8409 N.am      20 UNK        -0.5000 
    110 CA        -8.0101  -21.2173  -56.0354 C.3       20 UNK         0.1400 
    111 CB        -8.5257  -22.6366  -55.7484 C.3       20 UNK        -0.1800 
    112 C         -6.5307  -21.2412  -56.4507 C.2       20 UNK         0.5000 
    113 O         -6.2150  -21.0451  -57.6250 O.2       20 UNK        -0.5000 
    114 N         -5.6568  -21.4365  -55.4575 N.am      21 UNK        -0.5000 
    115 CA        -4.2166  -21.2337  -55.5398 C.3       21 UNK         0.1400 
    116 CB        -3.5307  -22.2996  -54.6670 C.3       21 UNK        -0.1800 
    117 C         -3.8705  -19.8183  -55.0416 C.2       21 UNK         0.5000 
    118 O         -4.7447  -19.1014  -54.5455 O.2       21 UNK        -0.5000 
    119 N         -2.5878  -19.4580  -55.1573 N.am      22 UNK        -0.5000 
    120 CA        -1.9804  -18.2239  -54.6218 C.3       22 UNK         0.1400 
    121 C         -2.4184  -16.9037  -55.3280 C.2       22 UNK         0.5000 
    122 N         -3.0588  -16.9542  -56.4893 N.am      22 UNK        -0.7600 
    123 O         -2.1448  -15.8126  -54.8359 O.2       22 UNK        -0.5000 
    124 C124       -2.0561  -18.1104  -53.0664 C.3       23 UNK        -0.0398 
    125 S125       -1.6344  -19.6293  -52.1337 S.3       23 UNK        -0.2404 
    126 C126        0.0607  -19.9997  -52.6824 C.3       23 UNK        -0.0205 
    127 H127       -1.4650  -16.6483  -48.9368 H         1 UNK         0.0600 
    128 H128       -0.2637  -17.3640  -47.8604 H         1 UNK         0.0600 
    129 H129       -0.0121  -17.3843  -49.6091 H         1 UNK         0.0600 
    130 H130        1.6512  -15.9741  -50.0969 H         1 UNK         0.3000 
    131 H131        1.4028  -13.1717  -49.5780 H         1 UNK         0.0600 
    132 H132        3.2779  -12.8768  -51.0580 H         1 UNK         0.0800 
    133 H133        3.8181  -14.5125  -50.8683 H         1 UNK         0.0800 
    134 H134        2.6383  -15.9279  -54.0600 H         1 UNK         0.0800 
    135 H135        3.9303  -15.6414  -52.9314 H         1 UNK         0.0800 
    136 H136        0.9827  -17.6389  -53.6896 H         1 UNK         0.1150 
    137 H137        1.4106  -20.2832  -50.3586 H         1 UNK         0.1150 
    138 H138        3.8820  -16.7852  -50.6583 H         1 UNK         0.1150 
    139 H139        4.5354  -18.7794  -49.2256 H         1 UNK         0.0800 
    140 H140        3.2186  -18.1089  -48.2989 H         1 UNK         0.0800 
    141 H141        1.0304  -19.5572  -47.7841 H         1 UNK         0.0800 
    142 H142        2.0935  -19.6406  -46.4161 H         1 UNK         0.0800 
    143 H143        1.7628  -22.3595  -46.9661 H         1 UNK         0.0600 
    144 H144        0.9013  -20.6767  -44.8598 H         1 UNK         0.3000 
    145 H145       -0.5107  -23.3088  -42.8625 H         1 UNK         0.0600 
    146 H146        1.0947  -22.3167  -41.2611 H         1 UNK         0.0600 
    147 H147        1.9469  -23.2844  -42.4551 H         1 UNK         0.0600 
    148 H148        1.9675  -21.5299  -42.5731 H         1 UNK         0.0600 
    149 H149       -0.3186  -20.5047  -42.4099 H         1 UNK         0.3000 
    150 H150       -3.4583  -19.6241  -43.9386 H         1 UNK         0.0600 
    151 H151       -3.9365  -20.4532  -41.6216 H         1 UNK         0.0600 
    152 H152       -3.8191  -18.7019  -41.6829 H         1 UNK         0.0600 
    153 H153       -2.4834  -19.6523  -41.0349 H         1 UNK         0.0600 
    154 H154       -1.5476  -17.9952  -42.6415 H         1 UNK         0.3000 
    155 H155        0.5203  -17.3104  -45.5112 H         1 UNK         0.0600 
    156 H156       -1.3745  -15.6160  -43.7996 H         1 UNK         0.0600 
    157 H157       -1.4439  -15.7571  -45.5535 H         1 UNK         0.0600 
    158 H158       -0.0449  -15.0186  -44.7913 H         1 UNK         0.0600 
    159 H159        0.7451  -16.4513  -42.8206 H         1 UNK         0.3000 
    160 H160        2.7839  -19.1549  -41.6262 H         1 UNK         0.0600 
    161 H161        3.2983  -16.1974  -42.2433 H         1 UNK         0.0600 
    162 H162        4.2976  -17.5546  -42.7526 H         1 UNK         0.0600 
    163 H163        4.1663  -17.1586  -41.0468 H         1 UNK         0.0600 
    164 H164        1.6626  -16.7723  -40.4424 H         1 UNK         0.3000 
    165 H165       -1.2108  -18.3486  -39.0501 H         1 UNK         0.0600 
    166 H166       -0.1688  -17.5238  -36.9604 H         1 UNK         0.0600 
    167 H167        0.6753  -18.9556  -37.5277 H         1 UNK         0.0600 
    168 H168        1.3940  -17.3668  -37.7630 H         1 UNK         0.0600 
    169 H169       -0.1447  -15.7077  -38.8002 H         1 UNK         0.3000 
    170 H170       -1.9997  -14.3038  -41.5306 H         1 UNK         0.0600 
    171 H171       -3.4898  -14.5013  -39.5253 H         1 UNK         0.0600 
    172 H172       -2.1535  -14.0253  -38.4842 H         1 UNK         0.0600 
    173 H173       -2.7964  -12.8955  -39.6759 H         1 UNK         0.0600 
    174 H174       -0.3356  -12.8887  -39.8704 H         1 UNK         0.3000 
    175 H175        1.4200  -11.8882  -40.7801 H         1 UNK         0.0600 
    176 H176        3.5026  -14.1486  -40.9944 H         1 UNK         0.0600 
    177 H177        3.8406  -12.4866  -40.5219 H         1 UNK         0.0600 
    178 H178        2.8479  -13.5074  -39.4910 H         1 UNK         0.0600 
    179 H179        1.9895  -13.2877  -43.2831 H         1 UNK         0.3000 
    180 H180        1.4732  -10.9346  -45.0569 H         1 UNK         0.0600 
    181 H181        4.4611  -10.3029  -44.8665 H         1 UNK         0.0600 
    182 H182        3.1377   -9.1472  -44.8750 H         1 UNK         0.0600 
    183 H183        3.4751  -10.0954  -46.3133 H         1 UNK         0.0600 
    184 H184        2.0108  -12.8515  -45.9995 H         1 UNK         0.3000 
    185 H185        4.9486  -14.6076  -46.5556 H         1 UNK         0.0600 
    186 H186        4.3484  -15.8281  -44.4909 H         1 UNK         0.0600 
    187 H187        2.6360  -15.7111  -44.8795 H         1 UNK         0.0600 
    188 H188        3.7127  -16.6804  -45.8880 H         1 UNK         0.0600 
    189 H189        2.3266  -15.2655  -47.3510 H         1 UNK         0.3000 
    190 H190       -1.3162  -20.5915  -46.5008 H         1 UNK         0.3000 
    191 H191       -2.5889  -21.3737  -48.8947 H         1 UNK         0.0600 
    192 H192       -3.4276  -19.5657  -47.4130 H         1 UNK         0.0600 
    193 H193       -4.6819  -20.7736  -47.6652 H         1 UNK         0.0600 
    194 H194       -3.7956  -20.7334  -46.1499 H         1 UNK         0.0600 
    195 H195       -2.5537  -22.9873  -45.6646 H         1 UNK         0.3000 
    196 H196       -4.2299  -25.1602  -46.3407 H         1 UNK         0.0600 
    197 H197       -3.2280  -26.2267  -44.3116 H         1 UNK         0.0600 
    198 H198       -3.6757  -24.5551  -44.0083 H         1 UNK         0.0600 
    199 H199       -1.9850  -24.9823  -44.2623 H         1 UNK         0.0600 
    200 H200       -0.6933  -24.7726  -46.6988 H         1 UNK         0.3000 
    201 H201       -0.1820  -27.4233  -47.6780 H         1 UNK         0.0600 
    202 H202        1.5914  -25.9945  -46.6968 H         1 UNK         0.0600 
    203 H203        1.4186  -24.8303  -48.0072 H         1 UNK         0.0600 
    204 H204        2.0133  -26.4517  -48.3408 H         1 UNK         0.0600 
    205 H205       -0.8904  -24.3049  -49.3002 H         1 UNK         0.3000 
    206 H206       -0.5571  -25.2156  -51.9690 H         1 UNK         0.0600 
    207 H207       -0.5063  -22.8244  -51.2384 H         1 UNK         0.0600 
    208 H208       -1.6338  -23.0796  -52.5599 H         1 UNK         0.0600 
    209 H209       -2.2365  -22.8744  -50.9196 H         1 UNK         0.0600 
    210 H210       -3.4314  -24.9888  -49.8942 H         1 UNK         0.3000 
    211 H211       -5.4861  -25.7908  -49.9139 H         1 UNK         0.0600 
    212 H212       -4.3542  -28.0175  -51.6769 H         1 UNK         0.0600 
    213 H213       -5.8758  -28.0723  -50.7963 H         1 UNK         0.0600 
    214 H214       -4.3582  -27.9760  -49.9157 H         1 UNK         0.0600 
    215 H215       -6.6905  -23.9227  -52.8403 H         1 UNK         0.3000 
    216 H216       -5.1630  -23.4161  -50.4329 H         1 UNK         0.0600 
    217 H217       -7.1942  -22.6713  -49.1709 H         1 UNK         0.0600 
    218 H218       -7.3201  -24.3863  -49.5119 H         1 UNK         0.0600 
    219 H219       -8.2337  -23.2306  -50.4752 H         1 UNK         0.0600 
    220 H220       -5.2950  -21.1394  -49.8732 H         1 UNK         0.3000 
    221 H221       -4.7791  -19.4669  -52.0736 H         1 UNK         0.0600 
    222 H222       -5.2345  -18.7782  -49.1313 H         1 UNK         0.0600 
    223 H223       -3.6921  -19.1750  -49.8925 H         1 UNK         0.0600 
    224 H224       -4.5366  -17.7033  -50.3354 H         1 UNK         0.0600 
    225 H225       -6.3663  -19.1198  -53.4698 H         1 UNK         0.3000 
    226 H226       -8.2588  -17.2917  -53.6418 H         1 UNK         0.0600 
    227 H227       -9.7181  -18.0655  -51.8221 H         1 UNK         0.0600 
    228 H228      -10.4920  -18.5478  -53.3116 H         1 UNK         0.0600 
    229 H229       -9.6179  -19.7430  -52.3617 H         1 UNK         0.0600 
    230 H230       -7.9722  -20.8352  -53.9532 H         1 UNK         0.3000 
    231 H231       -8.5937  -20.8011  -56.8593 H         1 UNK         0.0600 
    232 H232       -7.9886  -23.1056  -54.9230 H         1 UNK         0.0600 
    233 H233       -8.4093  -23.2775  -56.6232 H         1 UNK         0.0600 
    234 H234       -9.5853  -22.6243  -55.4927 H         1 UNK         0.0600 
    235 H235       -6.0183  -21.5443  -54.5133 H         1 UNK         0.3000 
    236 H236       -3.8752  -21.3399  -56.5714 H         1 UNK         0.0600 
    237 H237       -3.8424  -23.3052  -54.9504 H         1 UNK         0.0600 
    238 H238       -2.4463  -22.2570  -54.7717 H         1 UNK         0.0600 
    239 H239       -3.7626  -22.1653  -53.6098 H         1 UNK         0.0600 
    240 H240       -1.9444  -20.0991  -55.5978 H         1 UNK         0.3000 
    241 H241       -0.9270  -18.3040  -54.8847 H         1 UNK         0.0600 
    242 H242       -3.3292  -16.0969  -56.9449 H         1 UNK         0.3800 
    243 H243       -3.2916  -17.8404  -56.9077 H         1 UNK         0.3800 
    244 H244       -1.4036  -17.3105  -52.7133 H         1 UNK         0.0800 
    245 H245       -3.0634  -17.8178  -52.7677 H         1 UNK         0.0800 
    246 H246        0.1216  -19.9901  -53.7701 H         1 UNK         0.0800 
    247 H247        0.3021  -21.0219  -52.3936 H         1 UNK         0.0800 
@<TRIPOS>BOND
     1    1    2 1    
     2    1  127 1    
     3    1  128 1    
     4    1  129 1    
     5    2    3 2    
     6    2    4 am   BACKBONE|DICT|INTERRES
     7    4    5 1    
     8    4  130 1    
     9    5    6 1    
    10    5   65 1    
    11    5  131 1    
    12    6    7 1    
    13    6  132 1    
    14    6  133 1    
    15    7    8 1    
    16    8    9 1    
    17    8  134 1    
    18    8  135 1    
    19    9   10 ar   
    20    9   14 ar   
    21   10   11 ar   
    22   10  136 1    
    23   11   12 ar   
    24   11  126 1    
    25   12   13 ar   
    26   12  137 1    
    27   13   14 ar   
    28   13   15 1    
    29   14  138 1    
    30   15   16 1    
    31   15  139 1    
    32   15  140 1    
    33   16   17 1    
    34   17   18 1    
    35   17  141 1    
    36   17  142 1    
    37   18   19 1    
    38   18   67 1    
    39   18  143 1    
    40   19   20 am   BACKBONE|DICT|INTERRES
    41   19  144 1    
    42   20   21 2    
    43   20   22 1    
    44   22   23 1    
    45   22   24 1    
    46   22  145 1    
    47   23  146 1    
    48   23  147 1    
    49   23  148 1    
    50   24   25 am   BACKBONE|DICT|INTERRES
    51   24  149 1    
    52   25   26 2    
    53   25   27 1    
    54   27   28 1    
    55   27   29 1    
    56   27  150 1    
    57   28  151 1    
    58   28  152 1    
    59   28  153 1    
    60   29   30 am   BACKBONE|DICT|INTERRES
    61   29  154 1    
    62   30   31 2    
    63   30   32 1    
    64   32   33 1    
    65   32   34 1    
    66   32  155 1    
    67   33  156 1    
    68   33  157 1    
    69   33  158 1    
    70   34   35 am   BACKBONE|DICT|INTERRES
    71   34  159 1    
    72   35   36 2    
    73   35   37 1    
    74   37   38 1    
    75   37   39 1    
    76   37  160 1    
    77   38  161 1    
    78   38  162 1    
    79   38  163 1    
    80   39   40 am   BACKBONE|DICT|INTERRES
    81   39  164 1    
    82   40   41 2    
    83   40   42 1    
    84   42   43 1    
    85   42   44 1    
    86   42  165 1    
    87   43  166 1    
    88   43  167 1    
    89   43  168 1    
    90   44   45 am   BACKBONE|DICT|INTERRES
    91   44  169 1    
    92   45   46 2    
    93   45   47 1    
    94   47   48 1    
    95   47   49 1    
    96   47  170 1    
    97   48  171 1    
    98   48  172 1    
    99   48  173 1    
   100   49   50 am   BACKBONE|DICT|INTERRES
   101   49  174 1    
   102   50   51 2    
   103   50   52 1    
   104   52   53 1    
   105   52   54 1    
   106   52  175 1    
   107   53  176 1    
   108   53  177 1    
   109   53  178 1    
   110   54   55 am   BACKBONE|DICT|INTERRES
   111   54  179 1    
   112   55   56 2    
   113   55   57 1    
   114   57   58 1    
   115   57   59 1    
   116   57  180 1    
   117   58  181 1    
   118   58  182 1    
   119   58  183 1    
   120   59   60 am   BACKBONE|DICT|INTERRES
   121   59  184 1    
   122   60   61 2    
   123   60   62 1    
   124   62   63 1    
   125   62   64 1    
   126   62  185 1    
   127   63  186 1    
   128   63  187 1    
   129   63  188 1    
   130   64   65 am   BACKBONE|DICT|INTERRES
   131   64  189 1    
   132   65   66 2    
   133   67   68 2    
   134   67   69 am   BACKBONE|DICT|INTERRES
   135   69   70 1    
   136   69  190 1    
   137   70   71 1    
   138   70   72 1    
   139   70  191 1    
   140   71  192 1    
   141   71  193 1    
   142   71  194 1    
   143   72   73 2    
   144   72   74 am   BACKBONE|DICT|INTERRES
   145   74   75 1    
   146   74  195 1    
   147   75   76 1    
   148   75   77 1    
   149   75  196 1    
   150   76  197 1    
   151   76  198 1    
   152   76  199 1    
   153   77   78 2    
   154   77   79 am   BACKBONE|DICT|INTERRES
   155   79   80 1    
   156   79  200 1    
   157   80   81 1    
   158   80   82 1    
   159   80  201 1    
   160   81  202 1    
   161   81  203 1    
   162   81  204 1    
   163   82   83 2    
   164   82   84 am   BACKBONE|DICT|INTERRES
   165   84   85 1    
   166   84  205 1    
   167   85   86 1    
   168   85   87 1    
   169   85  206 1    
   170   86  207 1    
   171   86  208 1    
   172   86  209 1    
   173   87   88 2    
   174   87   89 am   BACKBONE|DICT|INTERRES
   175   89   90 1    
   176   89  210 1    
   177   90   91 1    
   178   90   92 1    
   179   90  211 1    
   180   91  212 1    
   181   91  213 1    
   182   91  214 1    
   183   92   93 2    
   184   92   94 am   BACKBONE|DICT|INTERRES
   185   94   95 1    
   186   94  215 1    
   187   95   96 1    
   188   95   97 1    
   189   95  216 1    
   190   96  217 1    
   191   96  218 1    
   192   96  219 1    
   193   97   98 2    
   194   97   99 am   BACKBONE|DICT|INTERRES
   195   99  100 1    
   196   99  220 1    
   197  100  101 1    
   198  100  102 1    
   199  100  221 1    
   200  101  222 1    
   201  101  223 1    
   202  101  224 1    
   203  102  103 2    
   204  102  104 am   BACKBONE|DICT|INTERRES
   205  104  105 1    
   206  104  225 1    
   207  105  106 1    
   208  105  107 1    
   209  105  226 1    
   210  106  227 1    
   211  106  228 1    
   212  106  229 1    
   213  107  108 2    
   214  107  109 am   BACKBONE|DICT|INTERRES
   215  109  110 1    
   216  109  230 1    
   217  110  111 1    
   218  110  112 1    
   219  110  231 1    
   220  111  232 1    
   221  111  233 1    
   222  111  234 1    
   223  112  113 2    
   224  112  114 am   BACKBONE|DICT|INTERRES
   225  114  115 1    
   226  114  235 1    
   227  115  116 1    
   228  115  117 1    
   229  115  236 1    
   230  116  237 1    
   231  116  238 1    
   232  116  239 1    
   233  117  118 2    
   234  117  119 am   BACKBONE|DICT|INTERRES
   235  119  120 1    
   236  119  240 1    
   237  120  121 1    
   238  120  124 1    
   239  120  241 1    
   240  121  122 am   BACKBONE|DICT|INTERRES
   241  121  123 2    
   242  122  242 1    
   243  122  243 1    
   244  124  125 1    
   245  124  244 1    
   246  124  245 1    
   247  125  126 1    
   248  126  246 1    
   249  126  247 1    
@<TRIPOS>SUBSTRUCTURE
     1 UNK         1 GROUP             0       ****    0 ROOT    
