@<TRIPOS>MOLECULE
3R540
247   249    1
SMALL
USER_CHARGES


@<TRIPOS>ATOM
      1 CA          0.6389  -13.9699  -49.1513 C.3       0 UNK        -0.1800 
      2 C           1.4634  -12.9540  -49.9435 C.2       0 UNK         0.5000 
      3 O           1.1751  -12.7712  -51.1239 O.2       0 UNK        -0.5000 
      4 N           2.4723  -12.2524  -49.3960 N.am      1 UNK        -0.5000 
      5 CA          3.0574  -12.2512  -48.0427 C.3       1 UNK         0.1400 
      6 C6          4.2049  -13.2824  -47.8290 C.3       23 UNK        -0.0398 
      7 S7          3.7490  -15.0409  -48.0013 S.3       23 UNK        -0.2404 
      8 C8          4.4033  -15.4027  -49.6592 C.3       23 UNK        -0.0205 
      9 C9          3.6561  -16.5572  -50.3041 C.ar      23 UNK        -0.0193 
     10 C10         2.7358  -16.3146  -51.3275 C.ar      23 UNK        -0.1150 
     11 C11         2.0489  -17.3721  -51.9286 C.ar      23 UNK        -0.0193 
     12 C12         2.2789  -18.6804  -51.4922 C.ar      23 UNK        -0.1150 
     13 C13         3.1985  -18.9348  -50.4704 C.ar      23 UNK        -0.0193 
     14 C14         3.8888  -17.8694  -49.8852 C.ar      23 UNK        -0.1150 
     15 C15         3.4614  -20.3581  -50.0031 C.3       23 UNK        -0.0205 
     16 S16         2.7815  -20.6550  -48.3420 S.3       23 UNK        -0.2404 
     17 C17         0.9850  -20.6560  -48.6634 C.3       23 UNK        -0.0398 
     18 CA          0.2896  -21.8365  -47.9487 C.3       11 UNK         0.1400 
     19 N           0.3244  -21.7068  -46.4885 N.am      11 UNK        -0.5000 
     20 C          -0.0092  -22.6836  -45.6349 C.2       10 UNK         0.5000 
     21 O          -0.3355  -23.8157  -45.9899 O.2       10 UNK        -0.5000 
     22 CA         -0.0427  -22.3231  -44.1388 C.3       10 UNK         0.1400 
     23 CB          1.3666  -22.3596  -43.5298 C.3       10 UNK        -0.1800 
     24 N          -0.6693  -21.0231  -43.8884 N.am      10 UNK        -0.5000 
     25 C          -1.9536  -20.7463  -44.1583 C.2       9 UNK         0.5000 
     26 O          -2.7469  -21.5734  -44.6044 O.2       9 UNK        -0.5000 
     27 CA         -2.4327  -19.3027  -43.9303 C.3       9 UNK         0.1400 
     28 CB         -2.7895  -19.0812  -42.4533 C.3       9 UNK        -0.1800 
     29 N          -1.4597  -18.3009  -44.3651 N.am      9 UNK        -0.5000 
     30 C          -1.0527  -18.1265  -45.6316 C.2       8 UNK         0.5000 
     31 O          -1.4883  -18.7726  -46.5852 O.2       8 UNK        -0.5000 
     32 CA          0.0798  -17.1054  -45.8601 C.3       8 UNK         0.1400 
     33 CB         -0.4524  -15.6643  -45.8326 C.3       8 UNK        -0.1800 
     34 N           1.1583  -17.2467  -44.8819 N.am      8 UNK        -0.5000 
     35 C           1.8879  -18.3587  -44.7128 C.2       7 UNK         0.5000 
     36 O           1.7534  -19.3775  -45.3888 O.2       7 UNK        -0.5000 
     37 CA          2.8868  -18.3531  -43.5463 C.3       7 UNK         0.1400 
     38 CB          4.1773  -17.6103  -43.9268 C.3       7 UNK        -0.1800 
     39 N           2.2965  -17.7569  -42.3475 N.am      7 UNK        -0.5000 
     40 C           1.3625  -18.3547  -41.5938 C.2       6 UNK         0.5000 
     41 O           0.9342  -19.4879  -41.8115 O.2       6 UNK        -0.5000 
     42 CA          0.7860  -17.5417  -40.4189 C.3       6 UNK         0.1400 
     43 CB          1.6869  -17.6662  -39.1813 C.3       6 UNK        -0.1800 
     44 N           0.5972  -16.1265  -40.7405 N.am      6 UNK        -0.5000 
     45 C          -0.2878  -15.6673  -41.6361 C.2       5 UNK         0.5000 
     46 O          -1.0620  -16.3888  -42.2615 O.2       5 UNK        -0.5000 
     47 CA         -0.2769  -14.1542  -41.9195 C.3       5 UNK         0.1400 
     48 CB         -1.2026  -13.4151  -40.9424 C.3       5 UNK        -0.1800 
     49 N           1.0507  -13.5353  -41.8873 N.am      5 UNK        -0.5000 
     50 C           2.1124  -13.9244  -42.6064 C.2       4 UNK         0.5000 
     51 O           2.1315  -14.9414  -43.3014 O.2       4 UNK        -0.5000 
     52 CA          3.3257  -12.9822  -42.5648 C.3       4 UNK         0.1400 
     53 CB          4.5517  -13.5587  -43.2962 C.3       4 UNK        -0.1800 
     54 N           2.9326  -11.7316  -43.2050 N.am      4 UNK        -0.5000 
     55 C           2.5633  -10.6106  -42.5715 C.2       3 UNK         0.5000 
     56 O           2.6227  -10.4686  -41.3498 O.2       3 UNK        -0.5000 
     57 CA          1.9995   -9.4661  -43.4401 C.3       3 UNK         0.1400 
     58 CB          3.1067   -8.4591  -43.7862 C.3       3 UNK        -0.1800 
     59 N           1.3783   -9.9361  -44.6808 N.am      3 UNK        -0.5000 
     60 C           0.2489  -10.6561  -44.7508 C.2       2 UNK         0.5000 
     61 O          -0.4576  -10.9125  -43.7757 O.2       2 UNK        -0.5000 
     62 CA         -0.1441  -11.2110  -46.1368 C.3       2 UNK         0.1400 
     63 CB         -1.2197  -10.3279  -46.7866 C.3       2 UNK        -0.1800 
     64 N           0.9728  -11.3706  -47.0777 N.am      2 UNK        -0.5000 
     65 C           2.0435  -12.1548  -46.8819 C.2       1 UNK         0.5000 
     66 O           2.2425  -12.7696  -45.8368 O.2       1 UNK        -0.5000 
     67 C          -1.1473  -22.0399  -48.4713 C.2       11 UNK         0.5000 
     68 O          -1.3556  -22.8799  -49.3467 O.2       11 UNK        -0.5000 
     69 N          -2.1206  -21.3103  -47.9067 N.am      12 UNK        -0.5000 
     70 CA         -3.5404  -21.4584  -48.2299 C.3       12 UNK         0.1400 
     71 CB         -4.3429  -20.3093  -47.6036 C.3       12 UNK        -0.1800 
     72 C          -4.1183  -22.8252  -47.8145 C.2       12 UNK         0.5000 
     73 O          -4.9192  -23.3942  -48.5579 O.2       12 UNK        -0.5000 
     74 N          -3.6786  -23.3371  -46.6562 N.am      13 UNK        -0.5000 
     75 CA         -3.9879  -24.6771  -46.1600 C.3       13 UNK         0.1400 
     76 CB         -3.5251  -24.8180  -44.7024 C.3       13 UNK        -0.1800 
     77 C          -3.3763  -25.7772  -47.0442 C.2       13 UNK         0.5000 
     78 O          -4.0718  -26.7359  -47.3805 O.2       13 UNK        -0.5000 
     79 N          -2.1066  -25.5986  -47.4406 N.am      14 UNK        -0.5000 
     80 CA         -1.3794  -26.4873  -48.3515 C.3       14 UNK         0.1400 
     81 CB          0.0881  -26.0458  -48.4490 C.3       14 UNK        -0.1800 
     82 C          -2.0184  -26.5741  -49.7502 C.2       14 UNK         0.5000 
     83 O          -2.0220  -27.6506  -50.3489 O.2       14 UNK        -0.5000 
     84 N          -2.6119  -25.4677  -50.2187 N.am      15 UNK        -0.5000 
     85 CA         -3.4296  -25.3735  -51.4306 C.3       15 UNK         0.1400 
     86 CB         -3.4811  -23.9016  -51.8778 C.3       15 UNK        -0.1800 
     87 C          -4.8358  -25.9918  -51.2437 C.2       15 UNK         0.5000 
     88 O          -5.8436  -25.3415  -51.5259 O.2       15 UNK        -0.5000 
     89 N          -4.8774  -27.2368  -50.7441 N.am      16 UNK        -0.5000 
     90 CA         -6.0496  -28.0936  -50.5123 C.3       16 UNK         0.1400 
     91 CB         -6.6198  -28.5669  -51.8652 C.3       16 UNK        -0.1800 
     92 C          -7.1393  -27.4695  -49.6104 C.2       16 UNK         0.5000 
     93 O          -8.3083  -27.8438  -49.7179 O.2       16 UNK        -0.5000 
     94 N          -6.7441  -26.5035  -48.7675 N.am      17 UNK        -0.5000 
     95 CA         -7.5891  -25.6186  -47.9564 C.3       17 UNK         0.1400 
     96 CB         -8.3057  -26.4119  -46.8451 C.3       17 UNK        -0.1800 
     97 C          -8.5552  -24.7339  -48.7792 C.2       17 UNK         0.5000 
     98 O          -9.5019  -24.1823  -48.2156 O.2       17 UNK        -0.5000 
     99 N          -8.3002  -24.5974  -50.0873 N.am      18 UNK        -0.5000 
    100 CA        -9.0981  -23.8094  -51.0258 C.3       18 UNK         0.1400 
    101 CB        -9.1662  -24.5680  -52.3612 C.3       18 UNK        -0.1800 
    102 C         -8.5195  -22.3984  -51.2364 C.2       18 UNK         0.5000 
    103 O         -9.1960  -21.5593  -51.8334 O.2       18 UNK        -0.5000 
    104 N         -7.2907  -22.1662  -50.7497 N.am      19 UNK        -0.5000 
    105 CA        -6.4796  -20.9605  -50.9260 C.3       19 UNK         0.1400 
    106 CB        -7.1506  -19.7343  -50.2674 C.3       19 UNK        -0.1800 
    107 C         -6.0680  -20.7324  -52.3972 C.2       19 UNK         0.5000 
    108 O         -6.0845  -21.6751  -53.1918 O.2       19 UNK        -0.5000 
    109 N         -5.6591  -19.4948  -52.7188 N.am      20 UNK        -0.5000 
    110 CA        -5.1666  -19.0427  -54.0275 C.3       20 UNK         0.1400 
    111 CB        -6.3026  -19.0470  -55.0719 C.3       20 UNK        -0.1800 
    112 C         -3.9142  -19.8184  -54.4911 C.2       20 UNK         0.5000 
    113 O         -3.8135  -20.2047  -55.6571 O.2       20 UNK        -0.5000 
    114 N         -2.9745  -20.0254  -53.5559 N.am      21 UNK        -0.5000 
    115 CA        -1.7537  -20.8248  -53.7191 C.3       21 UNK         0.1400 
    116 CB        -1.0093  -20.8603  -52.3741 C.3       21 UNK        -0.1800 
    117 C         -0.8114  -20.3526  -54.8468 C.2       21 UNK         0.5000 
    118 O         -0.0710  -21.1687  -55.3965 O.2       21 UNK        -0.5000 
    119 N         -0.8732  -19.0573  -55.1747 N.am      22 UNK        -0.5000 
    120 CA        -0.1501  -18.4182  -56.2857 C.3       22 UNK         0.1400 
    121 C         -1.0251  -18.2296  -57.5619 C.2       22 UNK         0.5000 
    122 N         -2.2533  -18.7316  -57.6229 N.am      22 UNK        -0.7600 
    123 O         -0.5755  -17.6283  -58.5338 O.2       22 UNK        -0.5000 
    124 C124        0.5047  -17.0869  -55.8309 C.3       23 UNK        -0.0398 
    125 S125        1.8832  -17.3659  -54.6696 S.3       23 UNK        -0.2404 
    126 C126        1.0748  -17.1030  -53.0626 C.3       23 UNK        -0.0205 
    127 H127        0.4614  -14.8565  -49.7602 H         1 UNK         0.0600 
    128 H128        1.1115  -14.3043  -48.2337 H         1 UNK         0.0600 
    129 H129       -0.3293  -13.5411  -48.8936 H         1 UNK         0.0600 
    130 H130        2.9292  -11.5983  -50.0157 H         1 UNK         0.3000 
    131 H131        3.5549  -11.2812  -47.9942 H         1 UNK         0.0600 
    132 H132        5.0161  -13.0613  -48.5236 H         1 UNK         0.0800 
    133 H133        4.6483  -13.1519  -46.8405 H         1 UNK         0.0800 
    134 H134        4.3271  -14.5151  -50.2892 H         1 UNK         0.0800 
    135 H135        5.4655  -15.6404  -49.5861 H         1 UNK         0.0800 
    136 H136        2.5593  -15.3026  -51.6643 H         1 UNK         0.1150 
    137 H137        1.7537  -19.5001  -51.9613 H         1 UNK         0.1150 
    138 H138        4.5988  -18.0610  -49.0926 H         1 UNK         0.1150 
    139 H139        3.0520  -21.0865  -50.7049 H         1 UNK         0.0800 
    140 H140        4.5381  -20.5313  -49.9779 H         1 UNK         0.0800 
    141 H141        0.8196  -20.7125  -49.7407 H         1 UNK         0.0800 
    142 H142        0.5687  -19.7012  -48.3376 H         1 UNK         0.0800 
    143 H143        0.8391  -22.7453  -48.2035 H         1 UNK         0.0600 
    144 H144        0.6413  -20.8149  -46.1169 H         1 UNK         0.3000 
    145 H145       -0.6439  -23.0809  -43.6322 H         1 UNK         0.0600 
    146 H146        1.3359  -22.1811  -42.4550 H         1 UNK         0.0600 
    147 H147        1.8317  -23.3339  -43.6842 H         1 UNK         0.0600 
    148 H148        2.0212  -21.6109  -43.9750 H         1 UNK         0.0600 
    149 H149       -0.0818  -20.3032  -43.4834 H         1 UNK         0.3000 
    150 H150       -3.3398  -19.1586  -44.5202 H         1 UNK         0.0600 
    151 H151       -3.5136  -19.8211  -42.1100 H         1 UNK         0.0600 
    152 H152       -3.2337  -18.0978  -42.2990 H         1 UNK         0.0600 
    153 H153       -1.9113  -19.1570  -41.8113 H         1 UNK         0.0600 
    154 H154       -1.0892  -17.6913  -43.6407 H         1 UNK         0.3000 
    155 H155        0.5071  -17.2922  -46.8477 H         1 UNK         0.0600 
    156 H156        0.3528  -14.9433  -45.9760 H         1 UNK         0.0600 
    157 H157       -0.9404  -15.4325  -44.8863 H         1 UNK         0.0600 
    158 H158       -1.1819  -15.5038  -46.6271 H         1 UNK         0.0600 
    159 H159        1.3618  -16.4421  -44.2952 H         1 UNK         0.3000 
    160 H160        3.1498  -19.3889  -43.3214 H         1 UNK         0.0600 
    161 H161        3.9855  -16.5750  -44.2089 H         1 UNK         0.0600 
    162 H162        4.6626  -18.0919  -44.7766 H         1 UNK         0.0600 
    163 H163        4.8903  -17.6079  -43.1024 H         1 UNK         0.0600 
    164 H164        2.5183  -16.7859  -42.1729 H         1 UNK         0.3000 
    165 H165       -0.1903  -17.9646  -40.1722 H         1 UNK         0.0600 
    166 H166        2.6735  -17.2348  -39.3550 H         1 UNK         0.0600 
    167 H167        1.2464  -17.1627  -38.3206 H         1 UNK         0.0600 
    168 H168        1.8296  -18.7122  -38.9067 H         1 UNK         0.0600 
    169 H169        1.2022  -15.4642  -40.2780 H         1 UNK         0.3000 
    170 H170       -0.6688  -14.0101  -42.9280 H         1 UNK         0.0600 
    171 H171       -2.2075  -13.8394  -40.9588 H         1 UNK         0.0600 
    172 H172       -0.8363  -13.4750  -39.9169 H         1 UNK         0.0600 
    173 H173       -1.2926  -12.3613  -41.2074 H         1 UNK         0.0600 
    174 H174        1.1262  -12.6746  -41.3636 H         1 UNK         0.3000 
    175 H175        3.5968  -12.8203  -41.5196 H         1 UNK         0.0600 
    176 H176        5.3920  -12.8653  -43.2616 H         1 UNK         0.0600 
    177 H177        4.8783  -14.4905  -42.8332 H         1 UNK         0.0600 
    178 H178        4.3368  -13.7710  -44.3443 H         1 UNK         0.0600 
    179 H179        2.7542  -11.8103  -44.2015 H         1 UNK         0.3000 
    180 H180        1.2374   -8.9500  -42.8524 H         1 UNK         0.0600 
    181 H181        3.8920   -8.9157  -44.3899 H         1 UNK         0.0600 
    182 H182        3.5741   -8.0668  -42.8820 H         1 UNK         0.0600 
    183 H183        2.7081   -7.6085  -44.3394 H         1 UNK         0.0600 
    184 H184        1.8843   -9.7611  -45.5360 H         1 UNK         0.3000 
    185 H185       -0.5722  -12.2021  -45.9717 H         1 UNK         0.0600 
    186 H186       -1.5815  -10.7663  -47.7169 H         1 UNK         0.0600 
    187 H187       -2.0814  -10.2116  -46.1279 H         1 UNK         0.0600 
    188 H188       -0.8394   -9.3302  -47.0094 H         1 UNK         0.0600 
    189 H189        0.8898  -10.8845  -47.9592 H         1 UNK         0.3000 
    190 H190       -1.8757  -20.5956  -47.2274 H         1 UNK         0.3000 
    191 H191       -3.6249  -21.3826  -49.3143 H         1 UNK         0.0600 
    192 H192       -3.9999  -19.3422  -47.9717 H         1 UNK         0.0600 
    193 H193       -5.4028  -20.3941  -47.8448 H         1 UNK         0.0600 
    194 H194       -4.2555  -20.3039  -46.5174 H         1 UNK         0.0600 
    195 H195       -3.0873  -22.7605  -46.0636 H         1 UNK         0.3000 
    196 H196       -5.0709  -24.7988  -46.1724 H         1 UNK         0.0600 
    197 H197       -3.7727  -25.8044  -44.3085 H         1 UNK         0.0600 
    198 H198       -4.0111  -24.0811  -44.0628 H         1 UNK         0.0600 
    199 H199       -2.4480  -24.6862  -44.6030 H         1 UNK         0.0600 
    200 H200       -1.5867  -24.8074  -47.0707 H         1 UNK         0.3000 
    201 H201       -1.4028  -27.4892  -47.9182 H         1 UNK         0.0600 
    202 H202        0.5663  -26.0447  -47.4694 H         1 UNK         0.0600 
    203 H203        0.1808  -25.0444  -48.8685 H         1 UNK         0.0600 
    204 H204        0.6573  -26.7222  -49.0878 H         1 UNK         0.0600 
    205 H205       -2.5181  -24.6157  -49.6771 H         1 UNK         0.3000 
    206 H206       -2.9381  -25.9407  -52.2234 H         1 UNK         0.0600 
    207 H207       -2.4782  -23.5142  -52.0532 H         1 UNK         0.0600 
    208 H208       -4.0398  -23.7893  -52.8079 H         1 UNK         0.0600 
    209 H209       -3.9587  -23.2689  -51.1297 H         1 UNK         0.0600 
    210 H210       -3.9806  -27.6590  -50.5228 H         1 UNK         0.3000 
    211 H211       -5.6837  -28.9714  -49.9783 H         1 UNK         0.0600 
    212 H212       -7.0558  -27.7406  -52.4281 H         1 UNK         0.0600 
    213 H213       -7.3996  -29.3164  -51.7253 H         1 UNK         0.0600 
    214 H214       -5.8450  -29.0213  -52.4827 H         1 UNK         0.0600 
    215 H215       -5.7504  -26.3107  -48.7213 H         1 UNK         0.3000 
    216 H216       -6.9105  -24.9194  -47.4713 H         1 UNK         0.0600 
    217 H217       -7.5976  -27.0071  -46.2684 H         1 UNK         0.0600 
    218 H218       -9.0606  -27.0860  -47.2502 H         1 UNK         0.0600 
    219 H219       -8.8080  -25.7423  -46.1462 H         1 UNK         0.0600 
    220 H220       -7.4777  -25.0495  -50.4781 H         1 UNK         0.3000 
    221 H221      -10.1163  -23.6968  -50.6479 H         1 UNK         0.0600 
    222 H222       -8.1796  -24.6730  -52.8145 H         1 UNK         0.0600 
    223 H223       -9.5811  -25.5672  -52.2267 H         1 UNK         0.0600 
    224 H224       -9.8015  -24.0446  -53.0767 H         1 UNK         0.0600 
    225 H225       -6.8170  -22.9427  -50.3075 H         1 UNK         0.3000 
    226 H226       -5.5556  -21.1577  -50.3886 H         1 UNK         0.0600 
    227 H227       -7.5145  -19.9754  -49.2685 H         1 UNK         0.0600 
    228 H228       -6.4484  -18.9077  -50.1565 H         1 UNK         0.0600 
    229 H229       -7.9981  -19.3720  -50.8502 H         1 UNK         0.0600 
    230 H230       -5.6812  -18.7878  -51.9973 H         1 UNK         0.3000 
    231 H231       -4.8490  -18.0073  -53.8968 H         1 UNK         0.0600 
    232 H232       -5.9736  -18.5959  -56.0088 H         1 UNK         0.0600 
    233 H233       -7.1619  -18.4753  -54.7216 H         1 UNK         0.0600 
    234 H234       -6.6428  -20.0579  -55.2985 H         1 UNK         0.0600 
    235 H235       -3.1453  -19.6626  -52.6300 H         1 UNK         0.3000 
    236 H236       -2.0641  -21.8420  -53.9660 H         1 UNK         0.0600 
    237 H237       -0.1136  -21.4798  -52.4358 H         1 UNK         0.0600 
    238 H238       -0.7008  -19.8638  -52.0581 H         1 UNK         0.0600 
    239 H239       -1.6366  -21.2773  -51.5867 H         1 UNK         0.0600 
    240 H240       -1.5332  -18.4744  -54.6829 H         1 UNK         0.3000 
    241 H241        0.6574  -19.0774  -56.6093 H         1 UNK         0.0600 
    242 H242       -2.6509  -19.2728  -56.8608 H         1 UNK         0.3800 
    243 H243       -2.7918  -18.6013  -58.4645 H         1 UNK         0.3800 
    244 H244        0.9249  -16.5497  -56.6829 H         1 UNK         0.0800 
    245 H245       -0.2343  -16.4175  -55.3881 H         1 UNK         0.0800 
    246 H246        0.6968  -16.0808  -53.0067 H         1 UNK         0.0800 
    247 H247        0.2106  -17.7600  -52.9672 H         1 UNK         0.0800 
@<TRIPOS>BOND
     1    1    2 1    
     2    1  127 1    
     3    1  128 1    
     4    1  129 1    
     5    2    3 2    
     6    2    4 am   BACKBONE|DICT|INTERRES
     7    4    5 1    
     8    4  130 1    
     9    5    6 1    
    10    5   65 1    
    11    5  131 1    
    12    6    7 1    
    13    6  132 1    
    14    6  133 1    
    15    7    8 1    
    16    8    9 1    
    17    8  134 1    
    18    8  135 1    
    19    9   10 ar   
    20    9   14 ar   
    21   10   11 ar   
    22   10  136 1    
    23   11   12 ar   
    24   11  126 1    
    25   12   13 ar   
    26   12  137 1    
    27   13   14 ar   
    28   13   15 1    
    29   14  138 1    
    30   15   16 1    
    31   15  139 1    
    32   15  140 1    
    33   16   17 1    
    34   17   18 1    
    35   17  141 1    
    36   17  142 1    
    37   18   19 1    
    38   18   67 1    
    39   18  143 1    
    40   19   20 am   BACKBONE|DICT|INTERRES
    41   19  144 1    
    42   20   21 2    
    43   20   22 1    
    44   22   23 1    
    45   22   24 1    
    46   22  145 1    
    47   23  146 1    
    48   23  147 1    
    49   23  148 1    
    50   24   25 am   BACKBONE|DICT|INTERRES
    51   24  149 1    
    52   25   26 2    
    53   25   27 1    
    54   27   28 1    
    55   27   29 1    
    56   27  150 1    
    57   28  151 1    
    58   28  152 1    
    59   28  153 1    
    60   29   30 am   BACKBONE|DICT|INTERRES
    61   29  154 1    
    62   30   31 2    
    63   30   32 1    
    64   32   33 1    
    65   32   34 1    
    66   32  155 1    
    67   33  156 1    
    68   33  157 1    
    69   33  158 1    
    70   34   35 am   BACKBONE|DICT|INTERRES
    71   34  159 1    
    72   35   36 2    
    73   35   37 1    
    74   37   38 1    
    75   37   39 1    
    76   37  160 1    
    77   38  161 1    
    78   38  162 1    
    79   38  163 1    
    80   39   40 am   BACKBONE|DICT|INTERRES
    81   39  164 1    
    82   40   41 2    
    83   40   42 1    
    84   42   43 1    
    85   42   44 1    
    86   42  165 1    
    87   43  166 1    
    88   43  167 1    
    89   43  168 1    
    90   44   45 am   BACKBONE|DICT|INTERRES
    91   44  169 1    
    92   45   46 2    
    93   45   47 1    
    94   47   48 1    
    95   47   49 1    
    96   47  170 1    
    97   48  171 1    
    98   48  172 1    
    99   48  173 1    
   100   49   50 am   BACKBONE|DICT|INTERRES
   101   49  174 1    
   102   50   51 2    
   103   50   52 1    
   104   52   53 1    
   105   52   54 1    
   106   52  175 1    
   107   53  176 1    
   108   53  177 1    
   109   53  178 1    
   110   54   55 am   BACKBONE|DICT|INTERRES
   111   54  179 1    
   112   55   56 2    
   113   55   57 1    
   114   57   58 1    
   115   57   59 1    
   116   57  180 1    
   117   58  181 1    
   118   58  182 1    
   119   58  183 1    
   120   59   60 am   BACKBONE|DICT|INTERRES
   121   59  184 1    
   122   60   61 2    
   123   60   62 1    
   124   62   63 1    
   125   62   64 1    
   126   62  185 1    
   127   63  186 1    
   128   63  187 1    
   129   63  188 1    
   130   64   65 am   BACKBONE|DICT|INTERRES
   131   64  189 1    
   132   65   66 2    
   133   67   68 2    
   134   67   69 am   BACKBONE|DICT|INTERRES
   135   69   70 1    
   136   69  190 1    
   137   70   71 1    
   138   70   72 1    
   139   70  191 1    
   140   71  192 1    
   141   71  193 1    
   142   71  194 1    
   143   72   73 2    
   144   72   74 am   BACKBONE|DICT|INTERRES
   145   74   75 1    
   146   74  195 1    
   147   75   76 1    
   148   75   77 1    
   149   75  196 1    
   150   76  197 1    
   151   76  198 1    
   152   76  199 1    
   153   77   78 2    
   154   77   79 am   BACKBONE|DICT|INTERRES
   155   79   80 1    
   156   79  200 1    
   157   80   81 1    
   158   80   82 1    
   159   80  201 1    
   160   81  202 1    
   161   81  203 1    
   162   81  204 1    
   163   82   83 2    
   164   82   84 am   BACKBONE|DICT|INTERRES
   165   84   85 1    
   166   84  205 1    
   167   85   86 1    
   168   85   87 1    
   169   85  206 1    
   170   86  207 1    
   171   86  208 1    
   172   86  209 1    
   173   87   88 2    
   174   87   89 am   BACKBONE|DICT|INTERRES
   175   89   90 1    
   176   89  210 1    
   177   90   91 1    
   178   90   92 1    
   179   90  211 1    
   180   91  212 1    
   181   91  213 1    
   182   91  214 1    
   183   92   93 2    
   184   92   94 am   BACKBONE|DICT|INTERRES
   185   94   95 1    
   186   94  215 1    
   187   95   96 1    
   188   95   97 1    
   189   95  216 1    
   190   96  217 1    
   191   96  218 1    
   192   96  219 1    
   193   97   98 2    
   194   97   99 am   BACKBONE|DICT|INTERRES
   195   99  100 1    
   196   99  220 1    
   197  100  101 1    
   198  100  102 1    
   199  100  221 1    
   200  101  222 1    
   201  101  223 1    
   202  101  224 1    
   203  102  103 2    
   204  102  104 am   BACKBONE|DICT|INTERRES
   205  104  105 1    
   206  104  225 1    
   207  105  106 1    
   208  105  107 1    
   209  105  226 1    
   210  106  227 1    
   211  106  228 1    
   212  106  229 1    
   213  107  108 2    
   214  107  109 am   BACKBONE|DICT|INTERRES
   215  109  110 1    
   216  109  230 1    
   217  110  111 1    
   218  110  112 1    
   219  110  231 1    
   220  111  232 1    
   221  111  233 1    
   222  111  234 1    
   223  112  113 2    
   224  112  114 am   BACKBONE|DICT|INTERRES
   225  114  115 1    
   226  114  235 1    
   227  115  116 1    
   228  115  117 1    
   229  115  236 1    
   230  116  237 1    
   231  116  238 1    
   232  116  239 1    
   233  117  118 2    
   234  117  119 am   BACKBONE|DICT|INTERRES
   235  119  120 1    
   236  119  240 1    
   237  120  121 1    
   238  120  124 1    
   239  120  241 1    
   240  121  122 am   BACKBONE|DICT|INTERRES
   241  121  123 2    
   242  122  242 1    
   243  122  243 1    
   244  124  125 1    
   245  124  244 1    
   246  124  245 1    
   247  125  126 1    
   248  126  246 1    
   249  126  247 1    
@<TRIPOS>SUBSTRUCTURE
     1 UNK         1 GROUP             0       ****    0 ROOT    
