@<TRIPOS>MOLECULE
3R540
247   249    1
SMALL
USER_CHARGES


@<TRIPOS>ATOM
      1 CA         -1.7819   -7.2643  -47.5090 C.3       0 UNK        -0.1800 
      2 C          -0.7401   -8.0221  -48.3198 C.2       0 UNK         0.5000 
      3 O           0.1780   -7.4088  -48.8647 O.2       0 UNK        -0.5000 
      4 N          -0.8843   -9.3493  -48.4090 N.am      1 UNK        -0.5000 
      5 CA          0.0478  -10.2629  -49.0729 C.3       1 UNK         0.1400 
      6 C6         -0.5834  -11.6542  -49.3529 C.3       23 UNK        -0.0398 
      7 S7         -1.5576  -12.3722  -47.9737 S.3       23 UNK        -0.2404 
      8 C8         -0.5317  -13.7858  -47.4613 C.3       23 UNK        -0.0205 
      9 C9         -0.8841  -15.0722  -48.2012 C.ar      23 UNK        -0.0193 
     10 C10        -0.5291  -15.2475  -49.5426 C.ar      23 UNK        -0.1150 
     11 C11        -0.8149  -16.4355  -50.2208 C.ar      23 UNK        -0.0193 
     12 C12        -1.4672  -17.4639  -49.5287 C.ar      23 UNK        -0.1150 
     13 C13        -1.8194  -17.3118  -48.1856 C.ar      23 UNK        -0.0193 
     14 C14        -1.5327  -16.1123  -47.5287 C.ar      23 UNK        -0.1150 
     15 C15        -2.4947  -18.4551  -47.4470 C.3       23 UNK        -0.0205 
     16 S16        -1.2616  -19.5232  -46.6425 S.3       23 UNK        -0.2404 
     17 C17        -2.3086  -20.9041  -46.0805 C.3       23 UNK        -0.0398 
     18 CA         -1.5751  -22.2626  -46.1707 C.3       11 UNK         0.1400 
     19 N          -0.4387  -22.3660  -45.2533 N.am      11 UNK        -0.5000 
     20 C           0.4261  -23.3910  -45.2222 C.2       10 UNK         0.5000 
     21 O           0.4123  -24.3274  -46.0202 O.2       10 UNK        -0.5000 
     22 CA          1.4402  -23.4018  -44.0678 C.3       10 UNK         0.1400 
     23 CB          2.6547  -22.5194  -44.3925 C.3       10 UNK        -0.1800 
     24 N           0.8289  -22.9702  -42.8105 N.am      10 UNK        -0.5000 
     25 C          -0.0751  -23.6871  -42.1270 C.2       9 UNK         0.5000 
     26 O          -0.4622  -24.8054  -42.4678 O.2       9 UNK        -0.5000 
     27 CA         -0.6761  -23.0247  -40.8736 C.3       9 UNK         0.1400 
     28 CB          0.2561  -23.2016  -39.6659 C.3       9 UNK        -0.1800 
     29 N          -0.9574  -21.6010  -41.0668 N.am      9 UNK        -0.5000 
     30 C          -1.8878  -21.1238  -41.9049 C.2       8 UNK         0.5000 
     31 O          -2.6227  -21.8358  -42.5873 O.2       8 UNK        -0.5000 
     32 CA         -1.9876  -19.5946  -42.0406 C.3       8 UNK         0.1400 
     33 CB         -2.9098  -19.0143  -40.9587 C.3       8 UNK        -0.1800 
     34 N          -0.6990  -18.9010  -41.9986 N.am      8 UNK        -0.5000 
     35 C           0.3355  -19.1104  -42.8236 C.2       7 UNK         0.5000 
     36 O           0.3641  -20.0206  -43.6528 O.2       7 UNK        -0.5000 
     37 CA          1.5230  -18.1320  -42.6959 C.3       7 UNK         0.1400 
     38 CB          2.5837  -18.3432  -43.7902 C.3       7 UNK        -0.1800 
     39 N           1.0835  -16.7333  -42.7229 N.am      7 UNK        -0.5000 
     40 C           0.5917  -16.0580  -41.6734 C.2       6 UNK         0.5000 
     41 O           0.4232  -16.5794  -40.5692 O.2       6 UNK        -0.5000 
     42 CA          0.1742  -14.5851  -41.8870 C.3       6 UNK         0.1400 
     43 CB          0.4077  -13.7196  -40.6309 C.3       6 UNK        -0.1800 
     44 N           0.7624  -13.9496  -43.0712 N.am      6 UNK        -0.5000 
     45 C           2.0611  -13.7295  -43.3190 C.2       5 UNK         0.5000 
     46 O           2.9804  -14.0379  -42.5578 O.2       5 UNK        -0.5000 
     47 CA          2.3813  -13.0748  -44.6756 C.3       5 UNK         0.1400 
     48 CB          3.2813  -11.8439  -44.4798 C.3       5 UNK        -0.1800 
     49 N           3.0203  -14.0000  -45.6150 N.am      5 UNK        -0.5000 
     50 C           2.5505  -15.2005  -45.9917 C.2       4 UNK         0.5000 
     51 O           1.5021  -15.6851  -45.5613 O.2       4 UNK        -0.5000 
     52 CA          3.4058  -15.9916  -47.0091 C.3       4 UNK         0.1400 
     53 CB          2.5901  -17.0436  -47.7929 C.3       4 UNK        -0.1800 
     54 N           4.1764  -15.1305  -47.9198 N.am      4 UNK        -0.5000 
     55 C           3.6779  -14.2783  -48.8272 C.2       3 UNK         0.5000 
     56 O           2.4802  -14.1413  -49.0728 O.2       3 UNK        -0.5000 
     57 CA          4.6856  -13.4008  -49.5838 C.3       3 UNK         0.1400 
     58 CB          4.7365  -13.7779  -51.0726 C.3       3 UNK        -0.1800 
     59 N           4.2835  -12.0028  -49.4516 N.am      3 UNK        -0.5000 
     60 C           4.4839  -11.2663  -48.3512 C.2       2 UNK         0.5000 
     61 O           5.1503  -11.6484  -47.3885 O.2       2 UNK        -0.5000 
     62 CA          3.8118   -9.8826  -48.3149 C.3       2 UNK         0.1400 
     63 CB          4.6779   -8.8410  -49.0398 C.3       2 UNK        -0.1800 
     64 N           2.4721   -9.8967  -48.9081 N.am      2 UNK        -0.5000 
     65 C           1.3753  -10.3559  -48.2885 C.2       1 UNK         0.5000 
     66 O           1.3761  -10.8073  -47.1426 O.2       1 UNK        -0.5000 
     67 C          -2.5601  -23.4283  -45.9671 C.2       11 UNK         0.5000 
     68 O          -2.9035  -24.0917  -46.9440 O.2       11 UNK        -0.5000 
     69 N          -2.9674  -23.6864  -44.7155 N.am      12 UNK        -0.5000 
     70 CA         -3.8755  -24.7722  -44.3357 C.3       12 UNK         0.1400 
     71 CB         -4.1804  -24.6951  -42.8326 C.3       12 UNK        -0.1800 
     72 C          -3.3451  -26.1662  -44.7139 C.2       12 UNK         0.5000 
     73 O          -4.0926  -26.9628  -45.2832 O.2       12 UNK        -0.5000 
     74 N          -2.0518  -26.4101  -44.4562 N.am      13 UNK        -0.5000 
     75 CA         -1.3390  -27.6320  -44.8431 C.3       13 UNK         0.1400 
     76 CB          0.0691  -27.6092  -44.2301 C.3       13 UNK        -0.1800 
     77 C          -1.2595  -27.8442  -46.3695 C.2       13 UNK         0.5000 
     78 O          -1.1964  -28.9876  -46.8215 O.2       13 UNK        -0.5000 
     79 N          -1.2956  -26.7442  -47.1306 N.am      14 UNK        -0.5000 
     80 CA         -1.3055  -26.7081  -48.5907 C.3       14 UNK         0.1400 
     81 CB         -0.4257  -25.5324  -49.0507 C.3       14 UNK        -0.1800 
     82 C          -2.7321  -26.6144  -49.1742 C.2       14 UNK         0.5000 
     83 O          -2.8727  -26.2384  -50.3373 O.2       14 UNK        -0.5000 
     84 N          -3.7652  -26.9363  -48.3785 N.am      15 UNK        -0.5000 
     85 CA         -5.1913  -26.9182  -48.7331 C.3       15 UNK         0.1400 
     86 CB         -5.5054  -27.9680  -49.8199 C.3       15 UNK        -0.1800 
     87 C          -5.6806  -25.5026  -49.1004 C.2       15 UNK         0.5000 
     88 O          -6.2011  -25.2764  -50.1955 O.2       15 UNK        -0.5000 
     89 N          -5.4482  -24.5649  -48.1723 N.am      16 UNK        -0.5000 
     90 CA         -5.6873  -23.1222  -48.2833 C.3       16 UNK         0.1400 
     91 CB         -7.1954  -22.8163  -48.3970 C.3       16 UNK        -0.1800 
     92 C          -4.8506  -22.4896  -49.4129 C.2       16 UNK         0.5000 
     93 O          -5.3613  -21.6614  -50.1650 O.2       16 UNK        -0.5000 
     94 N          -3.5882  -22.9297  -49.5293 N.am      17 UNK        -0.5000 
     95 CA         -2.6345  -22.6077  -50.5981 C.3       17 UNK         0.1400 
     96 CB         -2.1720  -21.1420  -50.4860 C.3       17 UNK        -0.1800 
     97 C          -3.1903  -22.9671  -51.9929 C.2       17 UNK         0.5000 
     98 O          -3.2157  -22.1241  -52.8918 O.2       17 UNK        -0.5000 
     99 N          -3.6749  -24.2119  -52.1138 N.am      18 UNK        -0.5000 
    100 CA        -4.3747  -24.7986  -53.2596 C.3       18 UNK         0.1400 
    101 CB        -3.3858  -25.0644  -54.4119 C.3       18 UNK        -0.1800 
    102 C         -5.6089  -23.9735  -53.6816 C.2       18 UNK         0.5000 
    103 O         -5.7802  -23.6734  -54.8640 O.2       18 UNK        -0.5000 
    104 N         -6.4268  -23.6022  -52.6849 N.am      19 UNK        -0.5000 
    105 CA        -7.5782  -22.6973  -52.7760 C.3       19 UNK         0.1400 
    106 CB        -8.7239  -23.3468  -53.5797 C.3       19 UNK        -0.1800 
    107 C         -7.1840  -21.2948  -53.2928 C.2       19 UNK         0.5000 
    108 O         -7.7951  -20.7791  -54.2309 O.2       19 UNK        -0.5000 
    109 N         -6.1571  -20.7165  -52.6544 N.am      20 UNK        -0.5000 
    110 CA        -5.5495  -19.4083  -52.9068 C.3       20 UNK         0.1400 
    111 CB        -6.5159  -18.2782  -52.4977 C.3       20 UNK        -0.1800 
    112 C         -5.0062  -19.2523  -54.3419 C.2       20 UNK         0.5000 
    113 O         -5.2165  -18.2154  -54.9756 O.2       20 UNK        -0.5000 
    114 N         -4.2915  -20.2774  -54.8277 N.am      21 UNK        -0.5000 
    115 CA        -3.6956  -20.3233  -56.1682 C.3       21 UNK         0.1400 
    116 CB        -3.1048  -21.7181  -56.4161 C.3       21 UNK        -0.1800 
    117 C         -2.6247  -19.2404  -56.4031 C.2       21 UNK         0.5000 
    118 O         -2.4475  -18.7920  -57.5365 O.2       21 UNK        -0.5000 
    119 N         -1.9543  -18.8267  -55.3225 N.am      22 UNK        -0.5000 
    120 CA        -1.0232  -17.6916  -55.2761 C.3       22 UNK         0.1400 
    121 C         -1.7031  -16.2885  -55.2397 C.2       22 UNK         0.5000 
    122 N         -3.0257  -16.1753  -55.1814 N.am      22 UNK        -0.7600 
    123 O         -1.0124  -15.2740  -55.2807 O.2       22 UNK        -0.5000 
    124 C124        0.0242  -17.8704  -54.1461 C.3       23 UNK        -0.0398 
    125 S125       -0.7039  -18.1538  -52.4935 S.3       23 UNK        -0.2404 
    126 C126       -0.3824  -16.5477  -51.6852 C.3       23 UNK        -0.0205 
    127 H127       -2.5368   -7.9325  -47.0936 H         1 UNK         0.0600 
    128 H128       -2.2863   -6.5306  -48.1379 H         1 UNK         0.0600 
    129 H129       -1.3037   -6.7368  -46.6837 H         1 UNK         0.0600 
    130 H130       -1.6404   -9.8039  -47.9163 H         1 UNK         0.3000 
    131 H131        0.2766   -9.8287  -50.0489 H         1 UNK         0.0600 
    132 H132       -1.2638  -11.5661  -50.2008 H         1 UNK         0.0800 
    133 H133        0.1894  -12.3499  -49.6781 H         1 UNK         0.0800 
    134 H134        0.5221  -13.5471  -47.5946 H         1 UNK         0.0800 
    135 H135       -0.6637  -13.9286  -46.3882 H         1 UNK         0.0800 
    136 H136       -0.0057  -14.4632  -50.0660 H         1 UNK         0.1150 
    137 H137       -1.6950  -18.3977  -50.0176 H         1 UNK         0.1150 
    138 H138       -1.7944  -15.9992  -46.4861 H         1 UNK         0.1150 
    139 H139       -3.1836  -18.0654  -46.6962 H         1 UNK         0.0800 
    140 H140       -3.0937  -19.0418  -48.1456 H         1 UNK         0.0800 
    141 H141       -3.2117  -20.9242  -46.6932 H         1 UNK         0.0800 
    142 H142       -2.6357  -20.7023  -45.0605 H         1 UNK         0.0800 
    143 H143       -1.1790  -22.3603  -47.1841 H         1 UNK         0.0600 
    144 H144       -0.3077  -21.5992  -44.5993 H         1 UNK         0.3000 
    145 H145        1.7923  -24.4276  -43.9393 H         1 UNK         0.0600 
    146 H146        3.3747  -22.5184  -43.5742 H         1 UNK         0.0600 
    147 H147        3.1712  -22.8856  -45.2806 H         1 UNK         0.0600 
    148 H148        2.3652  -21.4874  -44.5891 H         1 UNK         0.0600 
    149 H149        1.0318  -22.0282  -42.5091 H         1 UNK         0.3000 
    150 H150       -1.6191  -23.5289  -40.6519 H         1 UNK         0.0600 
    151 H151       -0.1975  -22.8066  -38.7568 H         1 UNK         0.0600 
    152 H152        0.4692  -24.2568  -39.4895 H         1 UNK         0.0600 
    153 H153        1.2102  -22.6941  -39.8136 H         1 UNK         0.0600 
    154 H154       -0.3915  -20.9442  -40.5500 H         1 UNK         0.3000 
    155 H155       -2.4338  -19.3829  -43.0139 H         1 UNK         0.0600 
    156 H156       -3.8881  -19.4965  -40.9787 H         1 UNK         0.0600 
    157 H157       -3.0718  -17.9468  -41.1097 H         1 UNK         0.0600 
    158 H158       -2.4948  -19.1526  -39.9596 H         1 UNK         0.0600 
    159 H159       -0.6083  -18.1437  -41.3301 H         1 UNK         0.3000 
    160 H160        2.0017  -18.3318  -41.7351 H         1 UNK         0.0600 
    161 H161        2.1504  -18.2596  -44.7868 H         1 UNK         0.0600 
    162 H162        3.0354  -19.3320  -43.7099 H         1 UNK         0.0600 
    163 H163        3.3882  -17.6120  -43.7096 H         1 UNK         0.0600 
    164 H164        1.1505  -16.2623  -43.6202 H         1 UNK         0.3000 
    165 H165       -0.9012  -14.6104  -42.0680 H         1 UNK         0.0600 
    166 H166        0.0908  -12.6899  -40.7964 H         1 UNK         0.0600 
    167 H167       -0.1615  -14.0983  -39.7811 H         1 UNK         0.0600 
    168 H168        1.4579  -13.7049  -40.3382 H         1 UNK         0.0600 
    169 H169        0.0990  -13.6958  -43.7897 H         1 UNK         0.3000 
    170 H170        1.4486  -12.7379  -45.1322 H         1 UNK         0.0600 
    171 H171        2.8523  -11.1579  -43.7483 H         1 UNK         0.0600 
    172 H172        4.2761  -12.1208  -44.1288 H         1 UNK         0.0600 
    173 H173        3.3960  -11.2877  -45.4081 H         1 UNK         0.0600 
    174 H174        3.8878  -13.6822  -46.0224 H         1 UNK         0.3000 
    175 H175        4.1412  -16.5342  -46.4136 H         1 UNK         0.0600 
    176 H176        3.2208  -17.5940  -48.4906 H         1 UNK         0.0600 
    177 H177        2.1369  -17.7736  -47.1221 H         1 UNK         0.0600 
    178 H178        1.7794  -16.5886  -48.3614 H         1 UNK         0.0600 
    179 H179        5.1789  -15.1605  -47.7947 H         1 UNK         0.3000 
    180 H180        5.6834  -13.5333  -49.1597 H         1 UNK         0.0600 
    181 H181        3.7641  -13.6616  -51.5533 H         1 UNK         0.0600 
    182 H182        5.0430  -14.8168  -51.1999 H         1 UNK         0.0600 
    183 H183        5.4535  -13.1585  -51.6117 H         1 UNK         0.0600 
    184 H184        3.6836  -11.6370  -50.1753 H         1 UNK         0.3000 
    185 H185        3.7283   -9.5792  -47.2691 H         1 UNK         0.0600 
    186 H186        4.7913   -9.0744  -50.0992 H         1 UNK         0.0600 
    187 H187        4.2436   -7.8442  -48.9602 H         1 UNK         0.0600 
    188 H188        5.6773   -8.7946  -48.6050 H         1 UNK         0.0600 
    189 H189        2.3839   -9.4979  -49.8317 H         1 UNK         0.3000 
    190 H190       -2.6664  -23.0731  -43.9609 H         1 UNK         0.3000 
    191 H191       -4.8115  -24.6193  -44.8765 H         1 UNK         0.0600 
    192 H192       -4.6587  -23.7497  -42.5763 H         1 UNK         0.0600 
    193 H193       -4.8575  -25.4942  -42.5282 H         1 UNK         0.0600 
    194 H194       -3.2744  -24.7845  -42.2326 H         1 UNK         0.0600 
    195 H195       -1.5119  -25.7116  -43.9543 H         1 UNK         0.3000 
    196 H196       -1.8816  -28.4810  -44.4223 H         1 UNK         0.0600 
    197 H197        0.6211  -28.5158  -44.4810 H         1 UNK         0.0600 
    198 H198        0.0248  -27.5460  -43.1427 H         1 UNK         0.0600 
    199 H199        0.6494  -26.7594  -44.5912 H         1 UNK         0.0600 
    200 H200       -1.3453  -25.8435  -46.6703 H         1 UNK         0.3000 
    201 H201       -0.8654  -27.6263  -48.9840 H         1 UNK         0.0600 
    202 H202        0.5928  -25.6377  -48.6765 H         1 UNK         0.0600 
    203 H203       -0.8111  -24.5789  -48.6900 H         1 UNK         0.0600 
    204 H204       -0.3642  -25.4789  -50.1383 H         1 UNK         0.0600 
    205 H205       -3.5621  -27.1785  -47.4162 H         1 UNK         0.3000 
    206 H206       -5.7350  -27.2080  -47.8327 H         1 UNK         0.0600 
    207 H207       -5.0291  -27.7296  -50.7713 H         1 UNK         0.0600 
    208 H208       -5.1711  -28.9602  -49.5170 H         1 UNK         0.0600 
    209 H209       -6.5790  -28.0283  -50.0015 H         1 UNK         0.0600 
    210 H210       -4.9042  -24.8422  -47.3652 H         1 UNK         0.3000 
    211 H211       -5.3323  -22.6755  -47.3538 H         1 UNK         0.0600 
    212 H212       -7.6191  -23.1890  -49.3295 H         1 UNK         0.0600 
    213 H213       -7.3792  -21.7419  -48.3626 H         1 UNK         0.0600 
    214 H214       -7.7507  -23.2661  -47.5741 H         1 UNK         0.0600 
    215 H215       -3.2733  -23.6026  -48.8378 H         1 UNK         0.3000 
    216 H216       -1.7609  -23.2410  -50.4449 H         1 UNK         0.0600 
    217 H217       -2.9906  -20.4421  -50.6539 H         1 UNK         0.0600 
    218 H218       -1.3979  -20.9218  -51.2216 H         1 UNK         0.0600 
    219 H219       -1.7507  -20.9369  -49.5020 H         1 UNK         0.0600 
    220 H220       -3.5590  -24.8448  -51.3246 H         1 UNK         0.3000 
    221 H221       -4.7559  -25.7640  -52.9232 H         1 UNK         0.0600 
    222 H222       -2.9371  -24.1430  -54.7802 H         1 UNK         0.0600 
    223 H223       -2.5781  -25.7213  -54.0891 H         1 UNK         0.0600 
    224 H224       -3.8818  -25.5498  -55.2530 H         1 UNK         0.0600 
    225 H225       -6.2118  -23.9448  -51.7532 H         1 UNK         0.3000 
    226 H226       -7.9350  -22.5558  -51.7550 H         1 UNK         0.0600 
    227 H227       -8.9917  -24.3193  -53.1666 H         1 UNK         0.0600 
    228 H228       -9.6193  -22.7249  -53.5523 H         1 UNK         0.0600 
    229 H229       -8.4576  -23.4890  -54.6274 H         1 UNK         0.0600 
    230 H230       -5.7555  -21.2183  -51.8634 H         1 UNK         0.3000 
    231 H231       -4.6809  -19.3496  -52.2493 H         1 UNK         0.0600 
    232 H232       -6.8484  -18.3997  -51.4667 H         1 UNK         0.0600 
    233 H233       -6.0307  -17.3040  -52.5681 H         1 UNK         0.0600 
    234 H234       -7.4000  -18.2515  -53.1353 H         1 UNK         0.0600 
    235 H235       -4.1054  -21.0708  -54.2180 H         1 UNK         0.3000 
    236 H236       -4.4954  -20.1567  -56.8925 H         1 UNK         0.0600 
    237 H237       -2.3313  -21.9597  -55.6862 H         1 UNK         0.0600 
    238 H238       -3.8754  -22.4862  -56.3604 H         1 UNK         0.0600 
    239 H239       -2.6549  -21.7839  -57.4075 H         1 UNK         0.0600 
    240 H240       -2.1690  -19.2525  -54.4322 H         1 UNK         0.3000 
    241 H241       -0.4640  -17.7002  -56.2136 H         1 UNK         0.0600 
    242 H242       -3.6313  -16.9882  -55.1632 H         1 UNK         0.3800 
    243 H243       -3.4366  -15.2557  -55.1673 H         1 UNK         0.3800 
    244 H244        0.7138  -17.0252  -54.1145 H         1 UNK         0.0800 
    245 H245        0.6461  -18.7367  -54.3751 H         1 UNK         0.0800 
    246 H246       -0.8841  -15.7651  -52.2563 H         1 UNK         0.0800 
    247 H247        0.6876  -16.3411  -51.7425 H         1 UNK         0.0800 
@<TRIPOS>BOND
     1    1    2 1    
     2    1  127 1    
     3    1  128 1    
     4    1  129 1    
     5    2    3 2    
     6    2    4 am   BACKBONE|DICT|INTERRES
     7    4    5 1    
     8    4  130 1    
     9    5    6 1    
    10    5   65 1    
    11    5  131 1    
    12    6    7 1    
    13    6  132 1    
    14    6  133 1    
    15    7    8 1    
    16    8    9 1    
    17    8  134 1    
    18    8  135 1    
    19    9   10 ar   
    20    9   14 ar   
    21   10   11 ar   
    22   10  136 1    
    23   11   12 ar   
    24   11  126 1    
    25   12   13 ar   
    26   12  137 1    
    27   13   14 ar   
    28   13   15 1    
    29   14  138 1    
    30   15   16 1    
    31   15  139 1    
    32   15  140 1    
    33   16   17 1    
    34   17   18 1    
    35   17  141 1    
    36   17  142 1    
    37   18   19 1    
    38   18   67 1    
    39   18  143 1    
    40   19   20 am   BACKBONE|DICT|INTERRES
    41   19  144 1    
    42   20   21 2    
    43   20   22 1    
    44   22   23 1    
    45   22   24 1    
    46   22  145 1    
    47   23  146 1    
    48   23  147 1    
    49   23  148 1    
    50   24   25 am   BACKBONE|DICT|INTERRES
    51   24  149 1    
    52   25   26 2    
    53   25   27 1    
    54   27   28 1    
    55   27   29 1    
    56   27  150 1    
    57   28  151 1    
    58   28  152 1    
    59   28  153 1    
    60   29   30 am   BACKBONE|DICT|INTERRES
    61   29  154 1    
    62   30   31 2    
    63   30   32 1    
    64   32   33 1    
    65   32   34 1    
    66   32  155 1    
    67   33  156 1    
    68   33  157 1    
    69   33  158 1    
    70   34   35 am   BACKBONE|DICT|INTERRES
    71   34  159 1    
    72   35   36 2    
    73   35   37 1    
    74   37   38 1    
    75   37   39 1    
    76   37  160 1    
    77   38  161 1    
    78   38  162 1    
    79   38  163 1    
    80   39   40 am   BACKBONE|DICT|INTERRES
    81   39  164 1    
    82   40   41 2    
    83   40   42 1    
    84   42   43 1    
    85   42   44 1    
    86   42  165 1    
    87   43  166 1    
    88   43  167 1    
    89   43  168 1    
    90   44   45 am   BACKBONE|DICT|INTERRES
    91   44  169 1    
    92   45   46 2    
    93   45   47 1    
    94   47   48 1    
    95   47   49 1    
    96   47  170 1    
    97   48  171 1    
    98   48  172 1    
    99   48  173 1    
   100   49   50 am   BACKBONE|DICT|INTERRES
   101   49  174 1    
   102   50   51 2    
   103   50   52 1    
   104   52   53 1    
   105   52   54 1    
   106   52  175 1    
   107   53  176 1    
   108   53  177 1    
   109   53  178 1    
   110   54   55 am   BACKBONE|DICT|INTERRES
   111   54  179 1    
   112   55   56 2    
   113   55   57 1    
   114   57   58 1    
   115   57   59 1    
   116   57  180 1    
   117   58  181 1    
   118   58  182 1    
   119   58  183 1    
   120   59   60 am   BACKBONE|DICT|INTERRES
   121   59  184 1    
   122   60   61 2    
   123   60   62 1    
   124   62   63 1    
   125   62   64 1    
   126   62  185 1    
   127   63  186 1    
   128   63  187 1    
   129   63  188 1    
   130   64   65 am   BACKBONE|DICT|INTERRES
   131   64  189 1    
   132   65   66 2    
   133   67   68 2    
   134   67   69 am   BACKBONE|DICT|INTERRES
   135   69   70 1    
   136   69  190 1    
   137   70   71 1    
   138   70   72 1    
   139   70  191 1    
   140   71  192 1    
   141   71  193 1    
   142   71  194 1    
   143   72   73 2    
   144   72   74 am   BACKBONE|DICT|INTERRES
   145   74   75 1    
   146   74  195 1    
   147   75   76 1    
   148   75   77 1    
   149   75  196 1    
   150   76  197 1    
   151   76  198 1    
   152   76  199 1    
   153   77   78 2    
   154   77   79 am   BACKBONE|DICT|INTERRES
   155   79   80 1    
   156   79  200 1    
   157   80   81 1    
   158   80   82 1    
   159   80  201 1    
   160   81  202 1    
   161   81  203 1    
   162   81  204 1    
   163   82   83 2    
   164   82   84 am   BACKBONE|DICT|INTERRES
   165   84   85 1    
   166   84  205 1    
   167   85   86 1    
   168   85   87 1    
   169   85  206 1    
   170   86  207 1    
   171   86  208 1    
   172   86  209 1    
   173   87   88 2    
   174   87   89 am   BACKBONE|DICT|INTERRES
   175   89   90 1    
   176   89  210 1    
   177   90   91 1    
   178   90   92 1    
   179   90  211 1    
   180   91  212 1    
   181   91  213 1    
   182   91  214 1    
   183   92   93 2    
   184   92   94 am   BACKBONE|DICT|INTERRES
   185   94   95 1    
   186   94  215 1    
   187   95   96 1    
   188   95   97 1    
   189   95  216 1    
   190   96  217 1    
   191   96  218 1    
   192   96  219 1    
   193   97   98 2    
   194   97   99 am   BACKBONE|DICT|INTERRES
   195   99  100 1    
   196   99  220 1    
   197  100  101 1    
   198  100  102 1    
   199  100  221 1    
   200  101  222 1    
   201  101  223 1    
   202  101  224 1    
   203  102  103 2    
   204  102  104 am   BACKBONE|DICT|INTERRES
   205  104  105 1    
   206  104  225 1    
   207  105  106 1    
   208  105  107 1    
   209  105  226 1    
   210  106  227 1    
   211  106  228 1    
   212  106  229 1    
   213  107  108 2    
   214  107  109 am   BACKBONE|DICT|INTERRES
   215  109  110 1    
   216  109  230 1    
   217  110  111 1    
   218  110  112 1    
   219  110  231 1    
   220  111  232 1    
   221  111  233 1    
   222  111  234 1    
   223  112  113 2    
   224  112  114 am   BACKBONE|DICT|INTERRES
   225  114  115 1    
   226  114  235 1    
   227  115  116 1    
   228  115  117 1    
   229  115  236 1    
   230  116  237 1    
   231  116  238 1    
   232  116  239 1    
   233  117  118 2    
   234  117  119 am   BACKBONE|DICT|INTERRES
   235  119  120 1    
   236  119  240 1    
   237  120  121 1    
   238  120  124 1    
   239  120  241 1    
   240  121  122 am   BACKBONE|DICT|INTERRES
   241  121  123 2    
   242  122  242 1    
   243  122  243 1    
   244  124  125 1    
   245  124  244 1    
   246  124  245 1    
   247  125  126 1    
   248  126  246 1    
   249  126  247 1    
@<TRIPOS>SUBSTRUCTURE
     1 UNK         1 GROUP             0       ****    0 ROOT    
