@<TRIPOS>MOLECULE
3R540
247   249    1
SMALL
USER_CHARGES


@<TRIPOS>ATOM
      1 CA          5.1540  -14.0123  -46.7410 C.3       0 UNK        -0.1800 
      2 C           4.3856  -14.8284  -47.7714 C.2       0 UNK         0.5000 
      3 O           4.5017  -16.0535  -47.7831 O.2       0 UNK        -0.5000 
      4 N           3.6101  -14.1506  -48.6263 N.am      1 UNK        -0.5000 
      5 CA          2.7935  -14.7534  -49.6804 C.3       1 UNK         0.1400 
      6 C6          3.3833  -14.5192  -51.1020 C.3       23 UNK        -0.0398 
      7 S7          4.9979  -15.3448  -51.3334 S.3       23 UNK        -0.2404 
      8 C8          4.5774  -16.7711  -52.3949 C.3       23 UNK        -0.0205 
      9 C9          3.4174  -17.6018  -51.8583 C.ar      23 UNK        -0.0193 
     10 C10         2.2984  -17.8405  -52.6614 C.ar      23 UNK        -0.1150 
     11 C11         1.2128  -18.5705  -52.1704 C.ar      23 UNK        -0.0193 
     12 C12         1.2424  -19.0384  -50.8527 C.ar      23 UNK        -0.1150 
     13 C13         2.3553  -18.8103  -50.0385 C.ar      23 UNK        -0.0193 
     14 C14         3.4522  -18.1193  -50.5598 C.ar      23 UNK        -0.1150 
     15 C15         2.3597  -19.2579  -48.5835 C.3       23 UNK        -0.0205 
     16 S16         2.3616  -21.0697  -48.4034 S.3       23 UNK        -0.2404 
     17 C17         0.5764  -21.4574  -48.4042 C.3       23 UNK        -0.0398 
     18 CA          0.2346  -22.5742  -47.3926 C.3       11 UNK         0.1400 
     19 N           0.4565  -22.1805  -45.9970 N.am      11 UNK        -0.5000 
     20 C           0.5155  -23.0533  -44.9810 C.2       10 UNK         0.5000 
     21 O           0.4443  -24.2732  -45.1264 O.2       10 UNK        -0.5000 
     22 CA          0.6123  -22.4711  -43.5600 C.3       10 UNK         0.1400 
     23 CB          2.0579  -22.0781  -43.2214 C.3       10 UNK        -0.1800 
     24 N          -0.2816  -21.3289  -43.3634 N.am      10 UNK        -0.5000 
     25 C          -1.6196  -21.4036  -43.4148 C.2       9 UNK         0.5000 
     26 O          -2.2333  -22.4585  -43.5739 O.2       9 UNK        -0.5000 
     27 CA         -2.4056  -20.0820  -43.3147 C.3       9 UNK         0.1400 
     28 CB         -2.6163  -19.6858  -41.8469 C.3       9 UNK        -0.1800 
     29 N          -1.7704  -18.9790  -44.0377 N.am      9 UNK        -0.5000 
     30 C          -1.5714  -18.9493  -45.3637 C.2       8 UNK         0.5000 
     31 O          -1.9374  -19.8376  -46.1314 O.2       8 UNK        -0.5000 
     32 CA         -0.7688  -17.7603  -45.9187 C.3       8 UNK         0.1400 
     33 CB         -1.6581  -16.5263  -46.1207 C.3       8 UNK        -0.1800 
     34 N           0.3729  -17.4276  -45.0671 N.am      8 UNK        -0.5000 
     35 C           1.4218  -18.2405  -44.8752 C.2       7 UNK         0.5000 
     36 O           1.5527  -19.3296  -45.4330 O.2       7 UNK        -0.5000 
     37 CA          2.4587  -17.7914  -43.8333 C.3       7 UNK         0.1400 
     38 CB          3.4384  -16.7711  -44.4293 C.3       7 UNK        -0.1800 
     39 N           1.8163  -17.2366  -42.6404 N.am      7 UNK        -0.5000 
     40 C           1.1606  -17.9872  -41.7426 C.2       6 UNK         0.5000 
     41 O           1.0634  -19.2106  -41.8257 O.2       6 UNK        -0.5000 
     42 CA          0.4729  -17.2660  -40.5688 C.3       6 UNK         0.1400 
     43 CB          1.4298  -17.1591  -39.3722 C.3       6 UNK        -0.1800 
     44 N          -0.0322  -15.9343  -40.8972 N.am      6 UNK        -0.5000 
     45 C          -0.9572  -15.6545  -41.8251 C.2       5 UNK         0.5000 
     46 O          -1.4853  -16.5056  -42.5422 O.2       5 UNK        -0.5000 
     47 CA         -1.3396  -14.1697  -42.0050 C.3       5 UNK         0.1400 
     48 CB         -0.8535  -13.2566  -40.8578 C.3       5 UNK        -0.1800 
     49 N          -0.8964  -13.6136  -43.2867 N.am      5 UNK        -0.5000 
     50 C           0.3174  -13.6925  -43.8492 C.2       4 UNK         0.5000 
     51 O           1.2424  -14.3648  -43.3885 O.2       4 UNK        -0.5000 
     52 CA          0.5288  -12.8701  -45.1396 C.3       4 UNK         0.1400 
     53 CB          1.8870  -13.1482  -45.7989 C.3       4 UNK        -0.1800 
     54 N          -0.5219  -13.0655  -46.1413 N.am      4 UNK        -0.5000 
     55 C          -1.7384  -12.5035  -46.1160 C.2       3 UNK         0.5000 
     56 O          -2.1399  -11.8202  -45.1721 O.2       3 UNK        -0.5000 
     57 CA         -2.6676  -12.7642  -47.3217 C.3       3 UNK         0.1400 
     58 CB         -3.6822  -11.6258  -47.5503 C.3       3 UNK        -0.1800 
     59 N          -1.9694  -13.0810  -48.5710 N.am      3 UNK        -0.5000 
     60 C          -1.0724  -12.3275  -49.2221 C.2       2 UNK         0.5000 
     61 O          -0.6713  -11.2275  -48.8364 O.2       2 UNK        -0.5000 
     62 CA         -0.5158  -12.9264  -50.5270 C.3       2 UNK         0.1400 
     63 CB         -0.5829  -11.9024  -51.6719 C.3       2 UNK        -0.1800 
     64 N           0.8612  -13.4126  -50.4159 N.am      2 UNK        -0.5000 
     65 C           1.3422  -14.2688  -49.5018 C.2       1 UNK         0.5000 
     66 O           0.6891  -14.6936  -48.5468 O.2       1 UNK        -0.5000 
     67 C          -1.1915  -23.1200  -47.6184 C.2       11 UNK         0.5000 
     68 O          -1.3465  -24.0727  -48.3783 O.2       11 UNK        -0.5000 
     69 N          -2.1989  -22.5577  -46.9331 N.am      12 UNK        -0.5000 
     70 CA         -3.5843  -23.0378  -46.9546 C.3       12 UNK         0.1400 
     71 CB         -4.5022  -22.0436  -46.2269 C.3       12 UNK        -0.1800 
     72 C          -3.7457  -24.4537  -46.3697 C.2       12 UNK         0.5000 
     73 O          -4.5645  -25.2243  -46.8704 O.2       12 UNK        -0.5000 
     74 N          -2.9558  -24.7716  -45.3360 N.am      13 UNK        -0.5000 
     75 CA         -2.8927  -26.0930  -44.7117 C.3       13 UNK         0.1400 
     76 CB         -2.2652  -25.9517  -43.3161 C.3       13 UNK        -0.1800 
     77 C          -2.1173  -27.1294  -45.5516 C.2       13 UNK         0.5000 
     78 O          -2.3458  -28.3288  -45.3857 O.2       13 UNK        -0.5000 
     79 N          -1.2095  -26.6625  -46.4184 N.am      14 UNK        -0.5000 
     80 CA         -0.4050  -27.4854  -47.3207 C.3       14 UNK         0.1400 
     81 CB          0.8426  -26.6874  -47.7381 C.3       14 UNK        -0.1800 
     82 C          -1.2014  -27.9535  -48.5558 C.2       14 UNK         0.5000 
     83 O          -2.3230  -27.4978  -48.7968 O.2       14 UNK        -0.5000 
     84 N          -0.5906  -28.8612  -49.3302 N.am      15 UNK        -0.5000 
     85 CA         -1.1238  -29.4002  -50.5833 C.3       15 UNK         0.1400 
     86 CB         -0.1445  -30.4453  -51.1392 C.3       15 UNK        -0.1800 
     87 C          -1.3928  -28.2989  -51.6277 C.2       15 UNK         0.5000 
     88 O          -0.5730  -27.3918  -51.7821 O.2       15 UNK        -0.5000 
     89 N          -2.5486  -28.4020  -52.2980 N.am      16 UNK        -0.5000 
     90 CA         -3.1309  -27.4571  -53.2643 C.3       16 UNK         0.1400 
     91 CB         -2.1758  -27.1810  -54.4442 C.3       16 UNK        -0.1800 
     92 C          -3.6787  -26.1509  -52.6436 C.2       16 UNK         0.5000 
     93 O          -4.2906  -25.3633  -53.3674 O.2       16 UNK        -0.5000 
     94 N          -3.5065  -25.9661  -51.3261 N.am      17 UNK        -0.5000 
     95 CA         -3.9804  -24.8491  -50.5066 C.3       17 UNK         0.1400 
     96 CB         -5.5194  -24.9036  -50.3728 C.3       17 UNK        -0.1800 
     97 C          -3.4462  -23.4688  -50.9595 C.2       17 UNK         0.5000 
     98 O          -2.3764  -23.3814  -51.5666 O.2       17 UNK        -0.5000 
     99 N          -4.1910  -22.4101  -50.6232 N.am      18 UNK        -0.5000 
    100 CA        -3.8790  -21.0167  -50.9088 C.3       18 UNK         0.1400 
    101 CB        -3.1162  -20.4015  -49.7197 C.3       18 UNK        -0.1800 
    102 C         -5.2075  -20.3073  -51.1927 C.2       18 UNK         0.5000 
    103 O         -5.8040  -19.7273  -50.2828 O.2       18 UNK        -0.5000 
    104 N         -5.6857  -20.4282  -52.4384 N.am      19 UNK        -0.5000 
    105 CA        -6.9364  -19.8391  -52.9236 C.3       19 UNK         0.1400 
    106 CB        -7.1480  -20.2373  -54.3921 C.3       19 UNK        -0.1800 
    107 C         -6.9402  -18.3079  -52.7647 C.2       19 UNK         0.5000 
    108 O         -6.0084  -17.6504  -53.2330 O.2       19 UNK        -0.5000 
    109 N         -7.9513  -17.7843  -52.0554 N.am      20 UNK        -0.5000 
    110 CA        -8.1081  -16.3779  -51.6526 C.3       20 UNK         0.1400 
    111 CB        -8.4170  -15.4966  -52.8809 C.3       20 UNK        -0.1800 
    112 C         -6.9151  -15.8460  -50.8235 C.2       20 UNK         0.5000 
    113 O         -6.5641  -14.6685  -50.9279 O.2       20 UNK        -0.5000 
    114 N         -6.2721  -16.7469  -50.0610 N.am      21 UNK        -0.5000 
    115 CA        -5.0298  -16.5490  -49.3036 C.3       21 UNK         0.1400 
    116 CB        -5.2643  -15.5778  -48.1295 C.3       21 UNK        -0.1800 
    117 C         -3.8333  -16.1346  -50.1912 C.2       21 UNK         0.5000 
    118 O         -2.8927  -15.5112  -49.6970 O.2       21 UNK        -0.5000 
    119 N         -3.9100  -16.4654  -51.4885 N.am      22 UNK        -0.5000 
    120 CA        -2.9895  -16.0667  -52.5645 C.3       22 UNK         0.1400 
    121 C         -3.0238  -14.5478  -52.9117 C.2       22 UNK         0.5000 
    122 N         -3.9991  -13.7755  -52.4437 N.am      22 UNK        -0.7600 
    123 O         -2.1731  -14.0634  -53.6516 O.2       22 UNK        -0.5000 
    124 C124       -1.5519  -16.6299  -52.3834 C.3       23 UNK        -0.0398 
    125 S125       -1.5732  -18.4532  -52.3326 S.3       23 UNK        -0.2404 
    126 C126        0.0295  -18.8818  -53.0782 C.3       23 UNK        -0.0205 
    127 H127        4.8925  -14.3371  -45.7340 H         1 UNK         0.0600 
    128 H128        4.9367  -12.9470  -46.8215 H         1 UNK         0.0600 
    129 H129        6.2263  -14.1522  -46.8769 H         1 UNK         0.0600 
    130 H130        3.5404  -13.1465  -48.5442 H         1 UNK         0.3000 
    131 H131        2.7291  -15.8281  -49.5191 H         1 UNK         0.0600 
    132 H132        2.6970  -14.8749  -51.8724 H         1 UNK         0.0800 
    133 H133        3.5290  -13.4539  -51.2872 H         1 UNK         0.0800 
    134 H134        4.3570  -16.4022  -53.3978 H         1 UNK         0.0800 
    135 H135        5.4554  -17.4112  -52.4895 H         1 UNK         0.0800 
    136 H136        2.2748  -17.4623  -53.6738 H         1 UNK         0.1150 
    137 H137        0.3929  -19.5791  -50.4631 H         1 UNK         0.1150 
    138 H138        4.3144  -17.9298  -49.9351 H         1 UNK         0.1150 
    139 H139        3.2390  -18.8654  -48.0699 H         1 UNK         0.0800 
    140 H140        1.5032  -18.8224  -48.0710 H         1 UNK         0.0800 
    141 H141        0.3114  -21.7646  -49.4178 H         1 UNK         0.0800 
    142 H142       -0.0082  -20.5623  -48.1862 H         1 UNK         0.0800 
    143 H143        0.9107  -23.4072  -47.5990 H         1 UNK         0.0600 
    144 H144        0.5714  -21.1906  -45.8078 H         1 UNK         0.3000 
    145 H145        0.3068  -23.2539  -42.8626 H         1 UNK         0.0600 
    146 H146        2.1435  -21.7463  -42.1867 H         1 UNK         0.0600 
    147 H147        2.7314  -22.9268  -43.3466 H         1 UNK         0.0600 
    148 H148        2.4214  -21.2749  -43.8616 H         1 UNK         0.0600 
    149 H149        0.1566  -20.4367  -43.1612 H         1 UNK         0.3000 
    150 H150       -3.3872  -20.2435  -43.7635 H         1 UNK         0.0600 
    151 H151       -3.1637  -20.4613  -41.3099 H         1 UNK         0.0600 
    152 H152       -3.1911  -18.7632  -41.7636 H         1 UNK         0.0600 
    153 H153       -1.6680  -19.5393  -41.3313 H         1 UNK         0.0600 
    154 H154       -1.4830  -18.1753  -43.4855 H         1 UNK         0.3000 
    155 H155       -0.3870  -18.0536  -46.8980 H         1 UNK         0.0600 
    156 H156       -1.1156  -15.7404  -46.6442 H         1 UNK         0.0600 
    157 H157       -2.0201  -16.1202  -45.1760 H         1 UNK         0.0600 
    158 H158       -2.5264  -16.7758  -46.7304 H         1 UNK         0.0600 
    159 H159        0.3138  -16.5780  -44.5244 H         1 UNK         0.3000 
    160 H160        3.0349  -18.6703  -43.5358 H         1 UNK         0.0600 
    161 H161        2.9281  -15.8761  -44.7817 H         1 UNK         0.0600 
    162 H162        3.9704  -17.1985  -45.2801 H         1 UNK         0.0600 
    163 H163        4.1861  -16.4652  -43.6977 H         1 UNK         0.0600 
    164 H164        1.7963  -16.2258  -42.5560 H         1 UNK         0.3000 
    165 H165       -0.3812  -17.8729  -40.2643 H         1 UNK         0.0600 
    166 H166        0.9282  -16.7366  -38.5014 H         1 UNK         0.0600 
    167 H167        1.8057  -18.1417  -39.0838 H         1 UNK         0.0600 
    168 H168        2.2922  -16.5319  -39.6018 H         1 UNK         0.0600 
    169 H169        0.3686  -15.1642  -40.3823 H         1 UNK         0.3000 
    170 H170       -2.4299  -14.1386  -42.0134 H         1 UNK         0.0600 
    171 H171       -1.1973  -13.6192  -39.8881 H         1 UNK         0.0600 
    172 H172        0.2341  -13.1809  -40.8247 H         1 UNK         0.0600 
    173 H173       -1.2465  -12.2465  -40.9756 H         1 UNK         0.0600 
    174 H174       -1.5758  -13.0352  -43.7720 H         1 UNK         0.3000 
    175 H175        0.5250  -11.8201  -44.8402 H         1 UNK         0.0600 
    176 H176        1.9556  -14.1830  -46.1341 H         1 UNK         0.0600 
    177 H177        2.0420  -12.5028  -46.6633 H         1 UNK         0.0600 
    178 H178        2.7096  -12.9659  -45.1064 H         1 UNK         0.0600 
    179 H179       -0.2701  -13.6270  -46.9482 H         1 UNK         0.3000 
    180 H180       -3.2325  -13.6578  -47.0607 H         1 UNK         0.0600 
    181 H181       -4.3460  -11.8530  -48.3847 H         1 UNK         0.0600 
    182 H182       -3.1848  -10.6793  -47.7645 H         1 UNK         0.0600 
    183 H183       -4.3104  -11.4749  -46.6717 H         1 UNK         0.0600 
    184 H184       -2.2049  -13.9890  -48.9718 H         1 UNK         0.3000 
    185 H185       -1.1339  -13.7803  -50.8054 H         1 UNK         0.0600 
    186 H186       -0.2685  -12.3441  -52.6175 H         1 UNK         0.0600 
    187 H187       -1.6022  -11.5392  -51.8088 H         1 UNK         0.0600 
    188 H188        0.0523  -11.0369  -51.4794 H         1 UNK         0.0600 
    189 H189        1.4850  -13.0848  -51.1373 H         1 UNK         0.3000 
    190 H190       -2.0154  -21.7201  -46.3870 H         1 UNK         0.3000 
    191 H191       -3.9004  -23.0761  -47.9956 H         1 UNK         0.0600 
    192 H192       -5.5481  -22.3320  -46.3377 H         1 UNK         0.0600 
    193 H193       -4.4008  -21.0345  -46.6247 H         1 UNK         0.0600 
    194 H194       -4.2895  -22.0045  -45.1597 H         1 UNK         0.0600 
    195 H195       -2.3659  -24.0493  -44.9372 H         1 UNK         0.3000 
    196 H196       -3.9116  -26.4657  -44.5883 H         1 UNK         0.0600 
    197 H197       -1.2435  -25.5746  -43.3711 H         1 UNK         0.0600 
    198 H198       -2.8404  -25.2667  -42.6928 H         1 UNK         0.0600 
    199 H199       -2.2340  -26.9128  -42.8015 H         1 UNK         0.0600 
    200 H200       -1.1052  -25.6616  -46.5116 H         1 UNK         0.3000 
    201 H201       -0.0765  -28.3725  -46.7751 H         1 UNK         0.0600 
    202 H202        0.5867  -25.8424  -48.3767 H         1 UNK         0.0600 
    203 H203        1.5429  -27.3115  -48.2939 H         1 UNK         0.0600 
    204 H204        1.3763  -26.3020  -46.8691 H         1 UNK         0.0600 
    205 H205        0.3388  -29.1644  -49.0793 H         1 UNK         0.3000 
    206 H206       -2.0651  -29.9013  -50.3478 H         1 UNK         0.0600 
    207 H207        0.0084  -31.2606  -50.4318 H         1 UNK         0.0600 
    208 H208       -0.5249  -30.8846  -52.0624 H         1 UNK         0.0600 
    209 H209        0.8286  -30.0056  -51.3621 H         1 UNK         0.0600 
    210 H210       -3.1451  -29.1880  -52.0774 H         1 UNK         0.3000 
    211 H211       -4.0019  -27.9704  -53.6744 H         1 UNK         0.0600 
    212 H212       -2.6887  -26.6383  -55.2391 H         1 UNK         0.0600 
    213 H213       -1.8003  -28.1087  -54.8759 H         1 UNK         0.0600 
    214 H214       -1.3198  -26.5763  -54.1445 H         1 UNK         0.0600 
    215 H215       -2.9626  -26.6526  -50.8188 H         1 UNK         0.3000 
    216 H216       -3.5606  -25.0254  -49.5165 H         1 UNK         0.0600 
    217 H217       -5.8771  -24.2387  -49.5861 H         1 UNK         0.0600 
    218 H218       -6.0182  -24.6248  -51.3018 H         1 UNK         0.0600 
    219 H219       -5.8516  -25.9070  -50.1056 H         1 UNK         0.0600 
    220 H220       -5.0801  -22.5650  -50.1687 H         1 UNK         0.3000 
    221 H221       -3.2565  -20.9413  -51.8027 H         1 UNK         0.0600 
    222 H222       -2.1421  -20.8721  -49.5960 H         1 UNK         0.0600 
    223 H223       -3.6633  -20.5137  -48.7846 H         1 UNK         0.0600 
    224 H224       -2.9464  -19.3351  -49.8679 H         1 UNK         0.0600 
    225 H225       -5.1367  -20.9301  -53.1209 H         1 UNK         0.3000 
    226 H226       -7.7522  -20.2614  -52.3334 H         1 UNK         0.0600 
    227 H227       -6.3410  -19.8717  -55.0286 H         1 UNK         0.0600 
    228 H228       -7.2004  -21.3204  -54.5045 H         1 UNK         0.0600 
    229 H229       -8.0818  -19.8254  -54.7771 H         1 UNK         0.0600 
    230 H230       -8.6553  -18.4139  -51.6948 H         1 UNK         0.3000 
    231 H231       -8.9751  -16.3402  -50.9918 H         1 UNK         0.0600 
    232 H232       -7.5645  -15.4321  -53.5580 H         1 UNK         0.0600 
    233 H233       -8.6720  -14.4799  -52.5797 H         1 UNK         0.0600 
    234 H234       -9.2639  -15.8881  -53.4444 H         1 UNK         0.0600 
    235 H235       -6.5947  -17.7078  -50.0889 H         1 UNK         0.3000 
    236 H236       -4.7716  -17.5216  -48.8825 H         1 UNK         0.0600 
    237 H237       -4.4238  -15.5961  -47.4380 H         1 UNK         0.0600 
    238 H238       -5.3888  -14.5496  -48.4711 H         1 UNK         0.0600 
    239 H239       -6.1519  -15.8527  -47.5599 H         1 UNK         0.0600 
    240 H240       -4.7369  -16.9533  -51.8145 H         1 UNK         0.3000 
    241 H241       -3.3972  -16.5365  -53.4602 H         1 UNK         0.0600 
    242 H242       -4.0215  -12.8021  -52.7004 H         1 UNK         0.3800 
    243 H243       -4.7415  -14.1579  -51.8697 H         1 UNK         0.3800 
    244 H244       -1.0862  -16.2518  -51.4727 H         1 UNK         0.0800 
    245 H245       -0.9106  -16.3160  -53.2083 H         1 UNK         0.0800 
    246 H246        0.0350  -19.9512  -53.2922 H         1 UNK         0.0800 
    247 H247        0.1248  -18.3770  -54.0407 H         1 UNK         0.0800 
@<TRIPOS>BOND
     1    1    2 1    
     2    1  127 1    
     3    1  128 1    
     4    1  129 1    
     5    2    3 2    
     6    2    4 am   BACKBONE|DICT|INTERRES
     7    4    5 1    
     8    4  130 1    
     9    5    6 1    
    10    5   65 1    
    11    5  131 1    
    12    6    7 1    
    13    6  132 1    
    14    6  133 1    
    15    7    8 1    
    16    8    9 1    
    17    8  134 1    
    18    8  135 1    
    19    9   10 ar   
    20    9   14 ar   
    21   10   11 ar   
    22   10  136 1    
    23   11   12 ar   
    24   11  126 1    
    25   12   13 ar   
    26   12  137 1    
    27   13   14 ar   
    28   13   15 1    
    29   14  138 1    
    30   15   16 1    
    31   15  139 1    
    32   15  140 1    
    33   16   17 1    
    34   17   18 1    
    35   17  141 1    
    36   17  142 1    
    37   18   19 1    
    38   18   67 1    
    39   18  143 1    
    40   19   20 am   BACKBONE|DICT|INTERRES
    41   19  144 1    
    42   20   21 2    
    43   20   22 1    
    44   22   23 1    
    45   22   24 1    
    46   22  145 1    
    47   23  146 1    
    48   23  147 1    
    49   23  148 1    
    50   24   25 am   BACKBONE|DICT|INTERRES
    51   24  149 1    
    52   25   26 2    
    53   25   27 1    
    54   27   28 1    
    55   27   29 1    
    56   27  150 1    
    57   28  151 1    
    58   28  152 1    
    59   28  153 1    
    60   29   30 am   BACKBONE|DICT|INTERRES
    61   29  154 1    
    62   30   31 2    
    63   30   32 1    
    64   32   33 1    
    65   32   34 1    
    66   32  155 1    
    67   33  156 1    
    68   33  157 1    
    69   33  158 1    
    70   34   35 am   BACKBONE|DICT|INTERRES
    71   34  159 1    
    72   35   36 2    
    73   35   37 1    
    74   37   38 1    
    75   37   39 1    
    76   37  160 1    
    77   38  161 1    
    78   38  162 1    
    79   38  163 1    
    80   39   40 am   BACKBONE|DICT|INTERRES
    81   39  164 1    
    82   40   41 2    
    83   40   42 1    
    84   42   43 1    
    85   42   44 1    
    86   42  165 1    
    87   43  166 1    
    88   43  167 1    
    89   43  168 1    
    90   44   45 am   BACKBONE|DICT|INTERRES
    91   44  169 1    
    92   45   46 2    
    93   45   47 1    
    94   47   48 1    
    95   47   49 1    
    96   47  170 1    
    97   48  171 1    
    98   48  172 1    
    99   48  173 1    
   100   49   50 am   BACKBONE|DICT|INTERRES
   101   49  174 1    
   102   50   51 2    
   103   50   52 1    
   104   52   53 1    
   105   52   54 1    
   106   52  175 1    
   107   53  176 1    
   108   53  177 1    
   109   53  178 1    
   110   54   55 am   BACKBONE|DICT|INTERRES
   111   54  179 1    
   112   55   56 2    
   113   55   57 1    
   114   57   58 1    
   115   57   59 1    
   116   57  180 1    
   117   58  181 1    
   118   58  182 1    
   119   58  183 1    
   120   59   60 am   BACKBONE|DICT|INTERRES
   121   59  184 1    
   122   60   61 2    
   123   60   62 1    
   124   62   63 1    
   125   62   64 1    
   126   62  185 1    
   127   63  186 1    
   128   63  187 1    
   129   63  188 1    
   130   64   65 am   BACKBONE|DICT|INTERRES
   131   64  189 1    
   132   65   66 2    
   133   67   68 2    
   134   67   69 am   BACKBONE|DICT|INTERRES
   135   69   70 1    
   136   69  190 1    
   137   70   71 1    
   138   70   72 1    
   139   70  191 1    
   140   71  192 1    
   141   71  193 1    
   142   71  194 1    
   143   72   73 2    
   144   72   74 am   BACKBONE|DICT|INTERRES
   145   74   75 1    
   146   74  195 1    
   147   75   76 1    
   148   75   77 1    
   149   75  196 1    
   150   76  197 1    
   151   76  198 1    
   152   76  199 1    
   153   77   78 2    
   154   77   79 am   BACKBONE|DICT|INTERRES
   155   79   80 1    
   156   79  200 1    
   157   80   81 1    
   158   80   82 1    
   159   80  201 1    
   160   81  202 1    
   161   81  203 1    
   162   81  204 1    
   163   82   83 2    
   164   82   84 am   BACKBONE|DICT|INTERRES
   165   84   85 1    
   166   84  205 1    
   167   85   86 1    
   168   85   87 1    
   169   85  206 1    
   170   86  207 1    
   171   86  208 1    
   172   86  209 1    
   173   87   88 2    
   174   87   89 am   BACKBONE|DICT|INTERRES
   175   89   90 1    
   176   89  210 1    
   177   90   91 1    
   178   90   92 1    
   179   90  211 1    
   180   91  212 1    
   181   91  213 1    
   182   91  214 1    
   183   92   93 2    
   184   92   94 am   BACKBONE|DICT|INTERRES
   185   94   95 1    
   186   94  215 1    
   187   95   96 1    
   188   95   97 1    
   189   95  216 1    
   190   96  217 1    
   191   96  218 1    
   192   96  219 1    
   193   97   98 2    
   194   97   99 am   BACKBONE|DICT|INTERRES
   195   99  100 1    
   196   99  220 1    
   197  100  101 1    
   198  100  102 1    
   199  100  221 1    
   200  101  222 1    
   201  101  223 1    
   202  101  224 1    
   203  102  103 2    
   204  102  104 am   BACKBONE|DICT|INTERRES
   205  104  105 1    
   206  104  225 1    
   207  105  106 1    
   208  105  107 1    
   209  105  226 1    
   210  106  227 1    
   211  106  228 1    
   212  106  229 1    
   213  107  108 2    
   214  107  109 am   BACKBONE|DICT|INTERRES
   215  109  110 1    
   216  109  230 1    
   217  110  111 1    
   218  110  112 1    
   219  110  231 1    
   220  111  232 1    
   221  111  233 1    
   222  111  234 1    
   223  112  113 2    
   224  112  114 am   BACKBONE|DICT|INTERRES
   225  114  115 1    
   226  114  235 1    
   227  115  116 1    
   228  115  117 1    
   229  115  236 1    
   230  116  237 1    
   231  116  238 1    
   232  116  239 1    
   233  117  118 2    
   234  117  119 am   BACKBONE|DICT|INTERRES
   235  119  120 1    
   236  119  240 1    
   237  120  121 1    
   238  120  124 1    
   239  120  241 1    
   240  121  122 am   BACKBONE|DICT|INTERRES
   241  121  123 2    
   242  122  242 1    
   243  122  243 1    
   244  124  125 1    
   245  124  244 1    
   246  124  245 1    
   247  125  126 1    
   248  126  246 1    
   249  126  247 1    
@<TRIPOS>SUBSTRUCTURE
     1 UNK         1 GROUP             0       ****    0 ROOT    
