@<TRIPOS>MOLECULE
3R540
247   249    1
SMALL
USER_CHARGES


@<TRIPOS>ATOM
      1 CA          3.5443  -10.3298  -47.6087 C.3       0 UNK        -0.1800 
      2 C           2.7875  -11.6417  -47.4619 C.2       0 UNK         0.5000 
      3 O           2.1763  -11.8848  -46.4210 O.2       0 UNK        -0.5000 
      4 N           2.8251  -12.4907  -48.4959 N.am      1 UNK        -0.5000 
      5 CA          2.0926  -13.7567  -48.5734 C.3       1 UNK         0.1400 
      6 C6          2.8053  -14.7596  -49.5179 C.3       23 UNK        -0.0398 
      7 S7          2.1893  -16.4643  -49.3167 S.3       23 UNK        -0.2404 
      8 C8          3.4576  -17.4012  -50.2232 C.3       23 UNK        -0.0205 
      9 C9          3.1925  -18.8932  -50.1127 C.ar      23 UNK        -0.0193 
     10 C10         2.3858  -19.5410  -51.0533 C.ar      23 UNK        -0.1150 
     11 C11         2.0804  -20.8982  -50.9090 C.ar      23 UNK        -0.0193 
     12 C12         2.5974  -21.6087  -49.8240 C.ar      23 UNK        -0.1150 
     13 C13         3.4037  -20.9709  -48.8783 C.ar      23 UNK        -0.0193 
     14 C14         3.7158  -19.6178  -49.0386 C.ar      23 UNK        -0.1150 
     15 C15         3.8609  -21.7272  -47.6407 C.3       23 UNK        -0.0205 
     16 S16         3.1923  -21.0229  -46.0942 S.3       23 UNK        -0.2404 
     17 C17         1.4412  -20.6640  -46.5020 C.3       23 UNK        -0.0398 
     18 CA          0.5156  -21.8833  -46.3024 C.3       11 UNK         0.1400 
     19 N           0.5976  -22.4332  -44.9473 N.am      11 UNK        -0.5000 
     20 C           0.1699  -23.6530  -44.5953 C.2       10 UNK         0.5000 
     21 O          -0.3202  -24.4533  -45.3888 O.2       10 UNK        -0.5000 
     22 CA          0.2724  -24.0375  -43.1061 C.3       10 UNK         0.1400 
     23 CB          1.6013  -24.7566  -42.8318 C.3       10 UNK        -0.1800 
     24 N           0.1561  -22.8915  -42.2050 N.am      10 UNK        -0.5000 
     25 C          -0.9210  -22.1006  -42.0943 C.2       9 UNK         0.5000 
     26 O          -1.9805  -22.3068  -42.6860 O.2       9 UNK        -0.5000 
     27 CA         -0.7556  -20.8312  -41.2322 C.3       9 UNK         0.1400 
     28 CB         -1.2360  -21.0866  -39.7966 C.3       9 UNK        -0.1800 
     29 N           0.6268  -20.3335  -41.2018 N.am      9 UNK        -0.5000 
     30 C           1.2969  -19.9059  -42.2808 C.2       8 UNK         0.5000 
     31 O           0.7897  -19.8327  -43.4008 O.2       8 UNK        -0.5000 
     32 CA          2.7970  -19.6150  -42.0876 C.3       8 UNK         0.1400 
     33 CB          3.5874  -20.9336  -42.0555 C.3       8 UNK        -0.1800 
     34 N           3.3465  -18.7743  -43.1522 N.am      8 UNK        -0.5000 
     35 C           3.1091  -17.4645  -43.2764 C.2       7 UNK         0.5000 
     36 O           2.4094  -16.8277  -42.4851 O.2       7 UNK        -0.5000 
     37 CA          3.7726  -16.7593  -44.4767 C.3       7 UNK         0.1400 
     38 CB          3.1069  -17.1471  -45.8054 C.3       7 UNK        -0.1800 
     39 N           3.6944  -15.3085  -44.3316 N.am      7 UNK        -0.5000 
     40 C           4.5859  -14.5553  -43.6745 C.2       6 UNK         0.5000 
     41 O           5.6400  -14.9920  -43.2102 O.2       6 UNK        -0.5000 
     42 CA          4.2473  -13.0610  -43.5021 C.3       6 UNK         0.1400 
     43 CB          4.9466  -12.2260  -44.5835 C.3       6 UNK        -0.1800 
     44 N           2.8019  -12.8114  -43.5315 N.am      6 UNK        -0.5000 
     45 C           1.9972  -13.0862  -42.4939 C.2       5 UNK         0.5000 
     46 O           2.4127  -13.4489  -41.3920 O.2       5 UNK        -0.5000 
     47 CA          0.4751  -12.9716  -42.6987 C.3       5 UNK         0.1400 
     48 CB          0.0436  -11.9297  -43.7528 C.3       5 UNK        -0.1800 
     49 N          -0.1166  -14.2880  -42.9588 N.am      5 UNK        -0.5000 
     50 C           0.1194  -15.0893  -44.0077 C.2       4 UNK         0.5000 
     51 O           0.8165  -14.7663  -44.9723 O.2       4 UNK        -0.5000 
     52 CA         -0.5789  -16.4619  -44.0256 C.3       4 UNK         0.1400 
     53 CB         -1.2234  -16.8726  -42.6869 C.3       4 UNK        -0.1800 
     54 N          -1.6094  -16.3639  -45.0463 N.am      4 UNK        -0.5000 
     55 C          -1.5635  -16.9373  -46.2539 C.2       3 UNK         0.5000 
     56 O          -0.7796  -17.8253  -46.5835 O.2       3 UNK        -0.5000 
     57 CA         -2.4873  -16.2932  -47.2904 C.3       3 UNK         0.1400 
     58 CB         -3.9574  -16.2854  -46.8116 C.3       3 UNK        -0.1800 
     59 N          -1.9561  -14.9460  -47.4735 N.am      3 UNK        -0.5000 
     60 C          -2.4322  -13.9364  -48.2080 C.2       2 UNK         0.5000 
     61 O          -3.4672  -13.9768  -48.8719 O.2       2 UNK        -0.5000 
     62 CA         -1.5800  -12.6521  -48.1909 C.3       2 UNK         0.1400 
     63 CB         -2.0380  -11.7199  -47.0589 C.3       2 UNK        -0.1800 
     64 N          -0.1510  -12.9354  -48.0251 N.am      2 UNK        -0.5000 
     65 C           0.6280  -13.4712  -48.9739 C.2       1 UNK         0.5000 
     66 O           0.2410  -13.6890  -50.1232 O.2       1 UNK        -0.5000 
     67 C          -0.9399  -21.5314  -46.6651 C.2       11 UNK         0.5000 
     68 O          -1.3772  -21.8177  -47.7798 O.2       11 UNK        -0.5000 
     69 N          -1.6843  -20.9814  -45.6937 N.am      12 UNK        -0.5000 
     70 CA         -3.1151  -20.7052  -45.8212 C.3       12 UNK         0.1400 
     71 CB         -3.5886  -19.8423  -44.6415 C.3       12 UNK        -0.1800 
     72 C          -3.9470  -21.9963  -45.9312 C.2       12 UNK         0.5000 
     73 O          -4.9194  -22.0326  -46.6847 O.2       12 UNK        -0.5000 
     74 N          -3.5308  -23.0374  -45.1961 N.am      13 UNK        -0.5000 
     75 CA         -4.1233  -24.3731  -45.2355 C.3       13 UNK         0.1400 
     76 CB         -3.6382  -25.1780  -44.0206 C.3       13 UNK        -0.1800 
     77 C          -3.8297  -25.1341  -46.5441 C.2       13 UNK         0.5000 
     78 O          -4.6759  -25.9174  -46.9766 O.2       13 UNK        -0.5000 
     79 N          -2.6497  -24.9064  -47.1442 N.am      14 UNK        -0.5000 
     80 CA         -2.2125  -25.5274  -48.3988 C.3       14 UNK         0.1400 
     81 CB         -0.7412  -25.1818  -48.6818 C.3       14 UNK        -0.1800 
     82 C          -3.1064  -25.1440  -49.5904 C.2       14 UNK         0.5000 
     83 O          -3.5452  -26.0328  -50.3216 O.2       14 UNK        -0.5000 
     84 N          -3.3899  -23.8377  -49.7205 N.am      15 UNK        -0.5000 
     85 CA         -4.3866  -23.2361  -50.6147 C.3       15 UNK         0.1400 
     86 CB         -5.8006  -23.5298  -50.0692 C.3       15 UNK        -0.1800 
     87 C          -4.2361  -23.6374  -52.1013 C.2       15 UNK         0.5000 
     88 O          -5.2291  -23.9412  -52.7657 O.2       15 UNK        -0.5000 
     89 N          -2.9913  -23.6414  -52.6011 N.am      16 UNK        -0.5000 
     90 CA         -2.5956  -24.1607  -53.9185 C.3       16 UNK         0.1400 
     91 CB         -1.0647  -24.1139  -54.0359 C.3       16 UNK        -0.1800 
     92 C          -3.2512  -23.4725  -55.1356 C.2       16 UNK         0.5000 
     93 O          -3.2915  -24.0652  -56.2141 O.2       16 UNK        -0.5000 
     94 N          -3.7813  -22.2588  -54.9416 N.am      17 UNK        -0.5000 
     95 CA         -4.5491  -21.4984  -55.9303 C.3       17 UNK         0.1400 
     96 CB         -4.4833  -20.0084  -55.5491 C.3       17 UNK        -0.1800 
     97 C          -6.0202  -21.9551  -56.0522 C.2       17 UNK         0.5000 
     98 O          -6.7641  -21.3555  -56.8289 O.2       17 UNK        -0.5000 
     99 N          -6.4271  -22.9558  -55.2533 N.am      18 UNK        -0.5000 
    100 CA        -7.8092  -23.3560  -54.9547 C.3       18 UNK         0.1400 
    101 CB        -8.5844  -23.7830  -56.2190 C.3       18 UNK        -0.1800 
    102 C         -8.5370  -22.2837  -54.1145 C.2       18 UNK         0.5000 
    103 O         -9.7603  -22.1530  -54.1811 O.2       18 UNK        -0.5000 
    104 N         -7.7493  -21.5413  -53.3308 N.am      19 UNK        -0.5000 
    105 CA        -8.1321  -20.4670  -52.4318 C.3       19 UNK         0.1400 
    106 CB        -8.4039  -19.1782  -53.2265 C.3       19 UNK        -0.1800 
    107 C         -6.9612  -20.2740  -51.4618 C.2       19 UNK         0.5000 
    108 O         -5.8094  -20.5144  -51.8434 O.2       19 UNK        -0.5000 
    109 N         -7.2683  -19.8324  -50.2353 N.am      20 UNK        -0.5000 
    110 CA        -6.3232  -19.6855  -49.1204 C.3       20 UNK         0.1400 
    111 CB        -7.0901  -19.2552  -47.8609 C.3       20 UNK        -0.1800 
    112 C         -5.1483  -18.7257  -49.3859 C.2       20 UNK         0.5000 
    113 O         -4.1206  -18.8422  -48.7235 O.2       20 UNK        -0.5000 
    114 N         -5.3004  -17.8256  -50.3683 N.am      21 UNK        -0.5000 
    115 CA        -4.2570  -16.9279  -50.8687 C.3       21 UNK         0.1400 
    116 CB        -4.8576  -16.0266  -51.9577 C.3       21 UNK        -0.1800 
    117 C         -3.0065  -17.6567  -51.4036 C.2       21 UNK         0.5000 
    118 O         -1.9220  -17.0750  -51.3861 O.2       21 UNK        -0.5000 
    119 N         -3.1767  -18.9081  -51.8569 N.am      22 UNK        -0.5000 
    120 CA        -2.1336  -19.8616  -52.2724 C.3       22 UNK         0.1400 
    121 C         -1.3493  -19.4896  -53.5663 C.2       22 UNK         0.5000 
    122 N         -1.0686  -18.2223  -53.8298 N.am      22 UNK        -0.7600 
    123 O         -1.0206  -20.3649  -54.3599 O.2       22 UNK        -0.5000 
    124 C124       -1.1786  -20.2199  -51.1005 C.3       23 UNK        -0.0398 
    125 S125       -0.4886  -21.9057  -51.2146 S.3       23 UNK        -0.2404 
    126 C126        1.1707  -21.5994  -51.9047 C.3       23 UNK        -0.0205 
    127 H127        4.3542  -10.2780  -46.8806 H         1 UNK         0.0600 
    128 H128        2.8718   -9.4892  -47.4328 H         1 UNK         0.0600 
    129 H129        3.9740  -10.2190  -48.6054 H         1 UNK         0.0600 
    130 H130        3.3246  -12.2234  -49.3322 H         1 UNK         0.3000 
    131 H131        2.0795  -14.2047  -47.5763 H         1 UNK         0.0600 
    132 H132        3.8729  -14.7700  -49.2932 H         1 UNK         0.0800 
    133 H133        2.7189  -14.4610  -50.5641 H         1 UNK         0.0800 
    134 H134        3.4619  -17.0931  -51.2699 H         1 UNK         0.0800 
    135 H135        4.4452  -17.1669  -49.8227 H         1 UNK         0.0800 
    136 H136        1.9707  -18.9806  -51.8794 H         1 UNK         0.1150 
    137 H137        2.3371  -22.6506  -49.6993 H         1 UNK         0.1150 
    138 H138        4.3190  -19.1162  -48.2948 H         1 UNK         0.1150 
    139 H139        3.5655  -22.7759  -47.6984 H         1 UNK         0.0800 
    140 H140        4.9505  -21.7170  -47.5947 H         1 UNK         0.0800 
    141 H141        1.3492  -20.2803  -47.5176 H         1 UNK         0.0800 
    142 H142        1.1212  -19.8330  -45.8738 H         1 UNK         0.0800 
    143 H143        0.8419  -22.6591  -46.9989 H         1 UNK         0.0600 
    144 H144        0.9469  -21.8007  -44.2391 H         1 UNK         0.3000 
    145 H145       -0.5445  -24.7256  -42.8813 H         1 UNK         0.0600 
    146 H146        1.6590  -25.1003  -41.7989 H         1 UNK         0.0600 
    147 H147        1.7091  -25.6338  -43.4713 H         1 UNK         0.0600 
    148 H148        2.4573  -24.1068  -43.0192 H         1 UNK         0.0600 
    149 H149        0.9787  -22.6508  -41.6733 H         1 UNK         0.3000 
    150 H150       -1.3850  -20.0547  -41.6711 H         1 UNK         0.0600 
    151 H151       -0.6288  -21.8421  -39.2964 H         1 UNK         0.0600 
    152 H152       -2.2692  -21.4367  -39.7877 H         1 UNK         0.0600 
    153 H153       -1.1984  -20.1749  -39.2001 H         1 UNK         0.0600 
    154 H154        1.1009  -20.3759  -40.3109 H         1 UNK         0.3000 
    155 H155        2.9304  -19.1011  -41.1332 H         1 UNK         0.0600 
    156 H156        3.4696  -21.4975  -42.9820 H         1 UNK         0.0600 
    157 H157        3.2571  -21.5745  -41.2373 H         1 UNK         0.0600 
    158 H158        4.6523  -20.7512  -41.9090 H         1 UNK         0.0600 
    159 H159        3.8779  -19.2493  -43.8673 H         1 UNK         0.3000 
    160 H160        4.8204  -17.0641  -44.5177 H         1 UNK         0.0600 
    161 H161        3.2568  -18.2008  -46.0263 H         1 UNK         0.0600 
    162 H162        3.5369  -16.5859  -46.6346 H         1 UNK         0.0600 
    163 H163        2.0326  -16.9659  -45.8013 H         1 UNK         0.0600 
    164 H164        2.8159  -14.8859  -44.6129 H         1 UNK         0.3000 
    165 H165        4.6368  -12.7393  -42.5338 H         1 UNK         0.0600 
    166 H166        4.6502  -11.1783  -44.5324 H         1 UNK         0.0600 
    167 H167        6.0295  -12.2656  -44.4607 H         1 UNK         0.0600 
    168 H168        4.7234  -12.5982  -45.5828 H         1 UNK         0.0600 
    169 H169        2.3992  -12.5387  -44.4230 H         1 UNK         0.3000 
    170 H170        0.0696  -12.6379  -41.7423 H         1 UNK         0.0600 
    171 H171        0.5409  -10.9733  -43.5871 H         1 UNK         0.0600 
    172 H172        0.2657  -12.2439  -44.7700 H         1 UNK         0.0600 
    173 H173       -1.0294  -11.7480  -43.6969 H         1 UNK         0.0600 
    174 H174       -0.6895  -14.6540  -42.2118 H         1 UNK         0.3000 
    175 H175        0.1671  -17.2130  -44.2915 H         1 UNK         0.0600 
    176 H176       -0.4788  -16.9135  -41.8906 H         1 UNK         0.0600 
    177 H177       -2.0164  -16.1904  -42.3792 H         1 UNK         0.0600 
    178 H178       -1.6599  -17.8680  -42.7637 H         1 UNK         0.0600 
    179 H179       -2.2799  -15.6210  -44.9109 H         1 UNK         0.3000 
    180 H180       -2.3983  -16.8443  -48.2277 H         1 UNK         0.0600 
    181 H181       -4.1214  -15.5889  -45.9891 H         1 UNK         0.0600 
    182 H182       -4.2618  -17.2757  -46.4704 H         1 UNK         0.0600 
    183 H183       -4.6349  -16.0085  -47.6187 H         1 UNK         0.0600 
    184 H184       -1.0747  -14.7867  -47.0022 H         1 UNK         0.3000 
    185 H185       -1.7259  -12.1364  -49.1425 H         1 UNK         0.0600 
    186 H186       -3.0856  -11.4430  -47.1830 H         1 UNK         0.0600 
    187 H187       -1.9385  -12.1942  -46.0821 H         1 UNK         0.0600 
    188 H188       -1.4567  -10.7977  -47.0457 H         1 UNK         0.0600 
    189 H189        0.2717  -12.7125  -47.1310 H         1 UNK         0.3000 
    190 H190       -1.2523  -20.7794  -44.8031 H         1 UNK         0.3000 
    191 H191       -3.2594  -20.1342  -46.7377 H         1 UNK         0.0600 
    192 H192       -3.0177  -18.9177  -44.5732 H         1 UNK         0.0600 
    193 H193       -4.6374  -19.5679  -44.7603 H         1 UNK         0.0600 
    194 H194       -3.4928  -20.3650  -43.6900 H         1 UNK         0.0600 
    195 H195       -2.7654  -22.8937  -44.5473 H         1 UNK         0.3000 
    196 H196       -5.2066  -24.2613  -45.1542 H         1 UNK         0.0600 
    197 H197       -4.1294  -26.1508  -43.9774 H         1 UNK         0.0600 
    198 H198       -3.8589  -24.6593  -43.0873 H         1 UNK         0.0600 
    199 H199       -2.5640  -25.3566  -44.0597 H         1 UNK         0.0600 
    200 H200       -1.9770  -24.3097  -46.6778 H         1 UNK         0.3000 
    201 H201       -2.2815  -26.6093  -48.2686 H         1 UNK         0.0600 
    202 H202       -0.4014  -25.6541  -49.6043 H         1 UNK         0.0600 
    203 H203       -0.0914  -25.5334  -47.8806 H         1 UNK         0.0600 
    204 H204       -0.5871  -24.1088  -48.7917 H         1 UNK         0.0600 
    205 H205       -2.9392  -23.2003  -49.0748 H         1 UNK         0.3000 
    206 H206       -4.2232  -22.1592  -50.5668 H         1 UNK         0.0600 
    207 H207       -5.9089  -23.1755  -49.0443 H         1 UNK         0.0600 
    208 H208       -6.5699  -23.0396  -50.6648 H         1 UNK         0.0600 
    209 H209       -6.0190  -24.5981  -50.0757 H         1 UNK         0.0600 
    210 H210       -2.2336  -23.3682  -51.9888 H         1 UNK         0.3000 
    211 H211       -2.9015  -25.2084  -53.9485 H         1 UNK         0.0600 
    212 H212       -0.5862  -24.6526  -53.2177 H         1 UNK         0.0600 
    213 H213       -0.6937  -23.0887  -54.0272 H         1 UNK         0.0600 
    214 H214       -0.7293  -24.5734  -54.9665 H         1 UNK         0.0600 
    215 H215       -3.7055  -21.8555  -54.0213 H         1 UNK         0.3000 
    216 H216       -4.0882  -21.6219  -56.9124 H         1 UNK         0.0600 
    217 H217       -5.0577  -19.3939  -56.2435 H         1 UNK         0.0600 
    218 H218       -3.4585  -19.6411  -55.5800 H         1 UNK         0.0600 
    219 H219       -4.8788  -19.8285  -54.5485 H         1 UNK         0.0600 
    220 H220       -5.7376  -23.3681  -54.6327 H         1 UNK         0.3000 
    221 H221       -7.7294  -24.2341  -54.3124 H         1 UNK         0.0600 
    222 H222       -8.8240  -22.9345  -56.8599 H         1 UNK         0.0600 
    223 H223       -8.0144  -24.5013  -56.8081 H         1 UNK         0.0600 
    224 H224       -9.5280  -24.2593  -55.9507 H         1 UNK         0.0600 
    225 H225       -6.7584  -21.7477  -53.3049 H         1 UNK         0.3000 
    226 H226       -9.0227  -20.7625  -51.8736 H         1 UNK         0.0600 
    227 H227       -8.6698  -18.3558  -52.5614 H         1 UNK         0.0600 
    228 H228       -7.5291  -18.8694  -53.8009 H         1 UNK         0.0600 
    229 H229       -9.2307  -19.3098  -53.9245 H         1 UNK         0.0600 
    230 H230       -8.2362  -19.6410  -50.0187 H         1 UNK         0.3000 
    231 H231       -5.8879  -20.6685  -48.9319 H         1 UNK         0.0600 
    232 H232       -7.5736  -18.2868  -47.9950 H         1 UNK         0.0600 
    233 H233       -6.4184  -19.1726  -47.0049 H         1 UNK         0.0600 
    234 H234       -7.8570  -19.9838  -47.5975 H         1 UNK         0.0600 
    235 H235       -6.1839  -17.8051  -50.8548 H         1 UNK         0.3000 
    236 H236       -3.9373  -16.2986  -50.0384 H         1 UNK         0.0600 
    237 H237       -5.6887  -15.4381  -51.5686 H         1 UNK         0.0600 
    238 H238       -4.1138  -15.3235  -52.3353 H         1 UNK         0.0600 
    239 H239       -5.2220  -16.6080  -52.8057 H         1 UNK         0.0600 
    240 H240       -4.1187  -19.2839  -51.8470 H         1 UNK         0.3000 
    241 H241       -2.6988  -20.7599  -52.5189 H         1 UNK         0.0600 
    242 H242       -0.5746  -17.9753  -54.6721 H         1 UNK         0.3800 
    243 H243       -1.2990  -17.5169  -53.1370 H         1 UNK         0.3800 
    244 H244       -0.3879  -19.4772  -50.9930 H         1 UNK         0.0800 
    245 H245       -1.7271  -20.1890  -50.1571 H         1 UNK         0.0800 
    246 H246        1.6143  -22.5564  -52.1827 H         1 UNK         0.0800 
    247 H247        1.0917  -21.0251  -52.8278 H         1 UNK         0.0800 
@<TRIPOS>BOND
     1    1    2 1    
     2    1  127 1    
     3    1  128 1    
     4    1  129 1    
     5    2    3 2    
     6    2    4 am   BACKBONE|DICT|INTERRES
     7    4    5 1    
     8    4  130 1    
     9    5    6 1    
    10    5   65 1    
    11    5  131 1    
    12    6    7 1    
    13    6  132 1    
    14    6  133 1    
    15    7    8 1    
    16    8    9 1    
    17    8  134 1    
    18    8  135 1    
    19    9   10 ar   
    20    9   14 ar   
    21   10   11 ar   
    22   10  136 1    
    23   11   12 ar   
    24   11  126 1    
    25   12   13 ar   
    26   12  137 1    
    27   13   14 ar   
    28   13   15 1    
    29   14  138 1    
    30   15   16 1    
    31   15  139 1    
    32   15  140 1    
    33   16   17 1    
    34   17   18 1    
    35   17  141 1    
    36   17  142 1    
    37   18   19 1    
    38   18   67 1    
    39   18  143 1    
    40   19   20 am   BACKBONE|DICT|INTERRES
    41   19  144 1    
    42   20   21 2    
    43   20   22 1    
    44   22   23 1    
    45   22   24 1    
    46   22  145 1    
    47   23  146 1    
    48   23  147 1    
    49   23  148 1    
    50   24   25 am   BACKBONE|DICT|INTERRES
    51   24  149 1    
    52   25   26 2    
    53   25   27 1    
    54   27   28 1    
    55   27   29 1    
    56   27  150 1    
    57   28  151 1    
    58   28  152 1    
    59   28  153 1    
    60   29   30 am   BACKBONE|DICT|INTERRES
    61   29  154 1    
    62   30   31 2    
    63   30   32 1    
    64   32   33 1    
    65   32   34 1    
    66   32  155 1    
    67   33  156 1    
    68   33  157 1    
    69   33  158 1    
    70   34   35 am   BACKBONE|DICT|INTERRES
    71   34  159 1    
    72   35   36 2    
    73   35   37 1    
    74   37   38 1    
    75   37   39 1    
    76   37  160 1    
    77   38  161 1    
    78   38  162 1    
    79   38  163 1    
    80   39   40 am   BACKBONE|DICT|INTERRES
    81   39  164 1    
    82   40   41 2    
    83   40   42 1    
    84   42   43 1    
    85   42   44 1    
    86   42  165 1    
    87   43  166 1    
    88   43  167 1    
    89   43  168 1    
    90   44   45 am   BACKBONE|DICT|INTERRES
    91   44  169 1    
    92   45   46 2    
    93   45   47 1    
    94   47   48 1    
    95   47   49 1    
    96   47  170 1    
    97   48  171 1    
    98   48  172 1    
    99   48  173 1    
   100   49   50 am   BACKBONE|DICT|INTERRES
   101   49  174 1    
   102   50   51 2    
   103   50   52 1    
   104   52   53 1    
   105   52   54 1    
   106   52  175 1    
   107   53  176 1    
   108   53  177 1    
   109   53  178 1    
   110   54   55 am   BACKBONE|DICT|INTERRES
   111   54  179 1    
   112   55   56 2    
   113   55   57 1    
   114   57   58 1    
   115   57   59 1    
   116   57  180 1    
   117   58  181 1    
   118   58  182 1    
   119   58  183 1    
   120   59   60 am   BACKBONE|DICT|INTERRES
   121   59  184 1    
   122   60   61 2    
   123   60   62 1    
   124   62   63 1    
   125   62   64 1    
   126   62  185 1    
   127   63  186 1    
   128   63  187 1    
   129   63  188 1    
   130   64   65 am   BACKBONE|DICT|INTERRES
   131   64  189 1    
   132   65   66 2    
   133   67   68 2    
   134   67   69 am   BACKBONE|DICT|INTERRES
   135   69   70 1    
   136   69  190 1    
   137   70   71 1    
   138   70   72 1    
   139   70  191 1    
   140   71  192 1    
   141   71  193 1    
   142   71  194 1    
   143   72   73 2    
   144   72   74 am   BACKBONE|DICT|INTERRES
   145   74   75 1    
   146   74  195 1    
   147   75   76 1    
   148   75   77 1    
   149   75  196 1    
   150   76  197 1    
   151   76  198 1    
   152   76  199 1    
   153   77   78 2    
   154   77   79 am   BACKBONE|DICT|INTERRES
   155   79   80 1    
   156   79  200 1    
   157   80   81 1    
   158   80   82 1    
   159   80  201 1    
   160   81  202 1    
   161   81  203 1    
   162   81  204 1    
   163   82   83 2    
   164   82   84 am   BACKBONE|DICT|INTERRES
   165   84   85 1    
   166   84  205 1    
   167   85   86 1    
   168   85   87 1    
   169   85  206 1    
   170   86  207 1    
   171   86  208 1    
   172   86  209 1    
   173   87   88 2    
   174   87   89 am   BACKBONE|DICT|INTERRES
   175   89   90 1    
   176   89  210 1    
   177   90   91 1    
   178   90   92 1    
   179   90  211 1    
   180   91  212 1    
   181   91  213 1    
   182   91  214 1    
   183   92   93 2    
   184   92   94 am   BACKBONE|DICT|INTERRES
   185   94   95 1    
   186   94  215 1    
   187   95   96 1    
   188   95   97 1    
   189   95  216 1    
   190   96  217 1    
   191   96  218 1    
   192   96  219 1    
   193   97   98 2    
   194   97   99 am   BACKBONE|DICT|INTERRES
   195   99  100 1    
   196   99  220 1    
   197  100  101 1    
   198  100  102 1    
   199  100  221 1    
   200  101  222 1    
   201  101  223 1    
   202  101  224 1    
   203  102  103 2    
   204  102  104 am   BACKBONE|DICT|INTERRES
   205  104  105 1    
   206  104  225 1    
   207  105  106 1    
   208  105  107 1    
   209  105  226 1    
   210  106  227 1    
   211  106  228 1    
   212  106  229 1    
   213  107  108 2    
   214  107  109 am   BACKBONE|DICT|INTERRES
   215  109  110 1    
   216  109  230 1    
   217  110  111 1    
   218  110  112 1    
   219  110  231 1    
   220  111  232 1    
   221  111  233 1    
   222  111  234 1    
   223  112  113 2    
   224  112  114 am   BACKBONE|DICT|INTERRES
   225  114  115 1    
   226  114  235 1    
   227  115  116 1    
   228  115  117 1    
   229  115  236 1    
   230  116  237 1    
   231  116  238 1    
   232  116  239 1    
   233  117  118 2    
   234  117  119 am   BACKBONE|DICT|INTERRES
   235  119  120 1    
   236  119  240 1    
   237  120  121 1    
   238  120  124 1    
   239  120  241 1    
   240  121  122 am   BACKBONE|DICT|INTERRES
   241  121  123 2    
   242  122  242 1    
   243  122  243 1    
   244  124  125 1    
   245  124  244 1    
   246  124  245 1    
   247  125  126 1    
   248  126  246 1    
   249  126  247 1    
@<TRIPOS>SUBSTRUCTURE
     1 UNK         1 GROUP             0       ****    0 ROOT    
