@<TRIPOS>MOLECULE
3R540
247   249    1
SMALL
USER_CHARGES


@<TRIPOS>ATOM
      1 CA          1.1474  -13.9759  -47.5290 C.3       0 UNK        -0.1800 
      2 C           2.3916  -13.1072  -47.6135 C.2       0 UNK         0.5000 
      3 O           2.4598  -12.0709  -46.9540 O.2       0 UNK        -0.5000 
      4 N           3.3673  -13.5137  -48.4345 N.am      1 UNK        -0.5000 
      5 CA          4.5961  -12.7543  -48.6825 C.3       1 UNK         0.1400 
      6 C6          5.2313  -13.1010  -50.0507 C.3       23 UNK        -0.0398 
      7 S7          5.7049  -14.8578  -50.2549 S.3       23 UNK        -0.2404 
      8 C8          4.7187  -15.3735  -51.6948 C.3       23 UNK        -0.0205 
      9 C9          3.4862  -16.1691  -51.2925 C.ar      23 UNK        -0.0193 
     10 C10         2.2354  -15.5527  -51.1875 C.ar      23 UNK        -0.1150 
     11 C11         1.0941  -16.3123  -50.9069 C.ar      23 UNK        -0.0193 
     12 C12         1.2139  -17.6924  -50.7204 C.ar      23 UNK        -0.1150 
     13 C13         2.4612  -18.3180  -50.8045 C.ar      23 UNK        -0.0193 
     14 C14         3.5929  -17.5471  -51.0847 C.ar      23 UNK        -0.1150 
     15 C15         2.5897  -19.8285  -50.6509 C.3       23 UNK        -0.0205 
     16 S16         2.2272  -20.3940  -48.9576 S.3       23 UNK        -0.2404 
     17 C17         0.4333  -20.7195  -49.0514 C.3       23 UNK        -0.0398 
     18 CA          0.0128  -21.8990  -48.1459 C.3       11 UNK         0.1400 
     19 N           0.0082  -21.5298  -46.7287 N.am      11 UNK        -0.5000 
     20 C          -0.1726  -22.3809  -45.7104 C.2       10 UNK         0.5000 
     21 O          -0.3055  -23.5971  -45.8500 O.2       10 UNK        -0.5000 
     22 CA         -0.2716  -21.7624  -44.3034 C.3       10 UNK         0.1400 
     23 CB          1.1181  -21.3961  -43.7617 C.3       10 UNK        -0.1800 
     24 N          -1.1440  -20.5864  -44.2679 N.am      10 UNK        -0.5000 
     25 C          -2.4608  -20.6172  -44.5213 C.2       9 UNK         0.5000 
     26 O          -3.0844  -21.6496  -44.7653 O.2       9 UNK        -0.5000 
     27 CA         -3.2011  -19.2680  -44.5507 C.3       9 UNK         0.1400 
     28 CB         -3.5319  -18.7913  -43.1287 C.3       9 UNK        -0.1800 
     29 N          -2.4506  -18.2299  -45.2552 N.am      9 UNK        -0.5000 
     30 C          -2.1302  -18.2707  -46.5561 C.2       8 UNK         0.5000 
     31 O          -2.4821  -19.1664  -47.3199 O.2       8 UNK        -0.5000 
     32 CA         -1.2131  -17.1532  -47.0786 C.3       8 UNK         0.1400 
     33 CB         -2.0162  -15.8781  -47.3719 C.3       8 UNK        -0.1800 
     34 N          -0.1196  -16.8609  -46.1506 N.am      8 UNK        -0.5000 
     35 C           0.8506  -17.7324  -45.8379 C.2       7 UNK         0.5000 
     36 O           0.9368  -18.8577  -46.3216 O.2       7 UNK        -0.5000 
     37 CA          1.8564  -17.3040  -44.7582 C.3       7 UNK         0.1400 
     38 CB          3.0368  -16.5404  -45.3716 C.3       7 UNK        -0.1800 
     39 N           1.2252  -16.5080  -43.7046 N.am      7 UNK        -0.5000 
     40 C           0.3818  -17.0326  -42.8029 C.2       6 UNK         0.5000 
     41 O           0.0779  -18.2262  -42.7696 O.2       6 UNK        -0.5000 
     42 CA         -0.2631  -16.0635  -41.7977 C.3       6 UNK         0.1400 
     43 CB          0.7175  -15.7118  -40.6699 C.3       6 UNK        -0.1800 
     44 N          -0.7545  -14.8309  -42.4108 N.am      6 UNK        -0.5000 
     45 C          -1.7051  -14.7482  -43.3482 C.2       5 UNK         0.5000 
     46 O          -2.2540  -15.7328  -43.8406 O.2       5 UNK        -0.5000 
     47 CA         -2.1043  -13.3424  -43.8430 C.3       5 UNK         0.1400 
     48 CB         -3.1886  -12.7245  -42.9404 C.3       5 UNK        -0.1800 
     49 N          -0.9769  -12.4214  -44.0456 N.am      5 UNK        -0.5000 
     50 C          -0.1449  -11.8947  -43.1370 C.2       4 UNK         0.5000 
     51 O          -0.2333  -12.0767  -41.9205 O.2       4 UNK        -0.5000 
     52 CA          1.0258  -11.0669  -43.6950 C.3       4 UNK         0.1400 
     53 CB          0.9215   -9.6004  -43.2484 C.3       4 UNK        -0.1800 
     54 N           2.3278  -11.6033  -43.2926 N.am      4 UNK        -0.5000 
     55 C           2.7540  -12.8536  -43.5142 C.2       3 UNK         0.5000 
     56 O           2.0771  -13.7399  -44.0429 O.2       3 UNK        -0.5000 
     57 CA          4.1918  -13.1743  -43.0992 C.3       3 UNK         0.1400 
     58 CB          4.2248  -14.2073  -41.9579 C.3       3 UNK        -0.1800 
     59 N           4.8628  -13.6916  -44.2831 N.am      3 UNK        -0.5000 
     60 C           6.1826  -13.8029  -44.4609 C.2       2 UNK         0.5000 
     61 O           7.0181  -13.4942  -43.6103 O.2       2 UNK        -0.5000 
     62 CA          6.6518  -14.3406  -45.8256 C.3       2 UNK         0.1400 
     63 CB          6.8978  -15.8558  -45.7610 C.3       2 UNK        -0.1800 
     64 N           5.7077  -14.0517  -46.9086 N.am      2 UNK        -0.5000 
     65 C           5.6106  -12.8640  -47.5237 C.2       1 UNK         0.5000 
     66 O           6.2817  -11.8787  -47.2128 O.2       1 UNK        -0.5000 
     67 C          -1.3408  -22.4885  -48.5900 C.2       11 UNK         0.5000 
     68 O          -1.3503  -23.5265  -49.2519 O.2       11 UNK        -0.5000 
     69 N          -2.4531  -21.8594  -48.1828 N.am      12 UNK        -0.5000 
     70 CA         -3.8101  -22.3457  -48.4285 C.3       12 UNK         0.1400 
     71 CB         -4.8425  -21.3200  -47.9405 C.3       12 UNK        -0.1800 
     72 C          -4.0685  -23.7141  -47.7805 C.2       12 UNK         0.5000 
     73 O          -4.6136  -24.5935  -48.4427 O.2       12 UNK        -0.5000 
     74 N          -3.6433  -23.8887  -46.5210 N.am      13 UNK        -0.5000 
     75 CA         -3.7390  -25.1493  -45.7832 C.3       13 UNK         0.1400 
     76 CB         -3.3043  -24.9367  -44.3256 C.3       13 UNK        -0.1800 
     77 C          -2.9346  -26.2860  -46.4395 C.2       13 UNK         0.5000 
     78 O          -3.4569  -27.3927  -46.5772 O.2       13 UNK        -0.5000 
     79 N          -1.7062  -25.9829  -46.8838 N.am      14 UNK        -0.5000 
     80 CA         -0.8390  -26.9022  -47.6268 C.3       14 UNK         0.1400 
     81 CB          0.5490  -26.2673  -47.7992 C.3       14 UNK        -0.1800 
     82 C          -1.4249  -27.3165  -48.9920 C.2       14 UNK         0.5000 
     83 O          -1.2678  -28.4679  -49.3990 O.2       14 UNK        -0.5000 
     84 N          -2.1214  -26.3830  -49.6516 N.am      15 UNK        -0.5000 
     85 CA         -2.8439  -26.5861  -50.9081 C.3       15 UNK         0.1400 
     86 CB         -2.8997  -25.2435  -51.6526 C.3       15 UNK        -0.1800 
     87 C          -4.2625  -27.1681  -50.7198 C.2       15 UNK         0.5000 
     88 O          -4.9914  -27.2865  -51.7054 O.2       15 UNK        -0.5000 
     89 N          -4.6526  -27.4917  -49.4762 N.am      16 UNK        -0.5000 
     90 CA         -5.9569  -28.0280  -49.0631 C.3       16 UNK         0.1400 
     91 CB         -6.1334  -29.4703  -49.5813 C.3       16 UNK        -0.1800 
     92 C          -7.1455  -27.1092  -49.4288 C.2       16 UNK         0.5000 
     93 O          -8.2332  -27.5958  -49.7421 O.2       16 UNK        -0.5000 
     94 N          -6.8977  -25.7920  -49.3995 N.am      17 UNK        -0.5000 
     95 CA         -7.7870  -24.6790  -49.7447 C.3       17 UNK         0.1400 
     96 CB         -8.9987  -24.6285  -48.7917 C.3       17 UNK        -0.1800 
     97 C          -8.2024  -24.6222  -51.2314 C.2       17 UNK         0.5000 
     98 O          -9.0958  -23.8462  -51.5749 O.2       17 UNK        -0.5000 
     99 N          -7.5535  -25.4146  -52.0969 N.am      18 UNK        -0.5000 
    100 CA        -7.8429  -25.4719  -53.5310 C.3       18 UNK         0.1400 
    101 CB        -7.3789  -26.8295  -54.0809 C.3       18 UNK        -0.1800 
    102 C         -7.1911  -24.3231  -54.3234 C.2       18 UNK         0.5000 
    103 O         -7.6580  -24.0073  -55.4187 O.2       18 UNK        -0.5000 
    104 N         -6.1261  -23.7296  -53.7727 N.am      19 UNK        -0.5000 
    105 CA        -5.3124  -22.6800  -54.3774 C.3       19 UNK         0.1400 
    106 CB        -4.4587  -23.2739  -55.5202 C.3       19 UNK        -0.1800 
    107 C         -4.4298  -22.0437  -53.2893 C.2       19 UNK         0.5000 
    108 O         -4.5551  -22.3959  -52.1147 O.2       19 UNK        -0.5000 
    109 N         -3.5415  -21.1321  -53.7113 N.am      20 UNK        -0.5000 
    110 CA        -2.4229  -20.5523  -52.9526 C.3       20 UNK         0.1400 
    111 CB        -1.4226  -21.6544  -52.5494 C.3       20 UNK        -0.1800 
    112 C         -2.8161  -19.6563  -51.7579 C.2       20 UNK         0.5000 
    113 O         -1.9574  -19.3298  -50.9396 O.2       20 UNK        -0.5000 
    114 N         -4.0874  -19.2422  -51.6914 N.am      21 UNK        -0.5000 
    115 CA        -4.6098  -18.3418  -50.6616 C.3       21 UNK         0.1400 
    116 CB        -6.1131  -18.6131  -50.4912 C.3       21 UNK        -0.1800 
    117 C         -4.3601  -16.8537  -50.9759 C.2       21 UNK         0.5000 
    118 O         -4.4823  -16.0242  -50.0754 O.2       21 UNK        -0.5000 
    119 N         -4.0390  -16.5388  -52.2394 N.am      22 UNK        -0.5000 
    120 CA        -3.7763  -15.1838  -52.7642 C.3       22 UNK         0.1400 
    121 C         -5.0087  -14.2241  -52.7553 C.2       22 UNK         0.5000 
    122 N         -6.2341  -14.7214  -52.6385 N.am      22 UNK        -0.7600 
    123 O         -4.8623  -13.0123  -52.8925 O.2       22 UNK        -0.5000 
    124 C124       -2.5026  -14.5283  -52.1562 C.3       23 UNK        -0.0398 
    125 S125       -0.9895  -15.4885  -52.5037 S.3       23 UNK        -0.2404 
    126 C126       -0.2728  -15.6499  -50.8411 C.3       23 UNK        -0.0205 
    127 H127        1.3075  -14.9587  -47.9737 H         1 UNK         0.0600 
    128 H128        0.8537  -14.1121  -46.4886 H         1 UNK         0.0600 
    129 H129        0.3257  -13.4895  -48.0536 H         1 UNK         0.0600 
    130 H130        3.2687  -14.3735  -48.9563 H         1 UNK         0.3000 
    131 H131        4.3184  -11.6990  -48.7378 H         1 UNK         0.0600 
    132 H132        4.5377  -12.8127  -50.8407 H         1 UNK         0.0800 
    133 H133        6.1208  -12.4907  -50.2168 H         1 UNK         0.0800 
    134 H134        4.4399  -14.5164  -52.3088 H         1 UNK         0.0800 
    135 H135        5.3498  -15.9931  -52.3338 H         1 UNK         0.0800 
    136 H136        2.1428  -14.4892  -51.3587 H         1 UNK         0.1150 
    137 H137        0.3311  -18.2818  -50.5256 H         1 UNK         0.1150 
    138 H138        4.5596  -18.0235  -51.1712 H         1 UNK         0.1150 
    139 H139        1.9435  -20.3268  -51.3743 H         1 UNK         0.0800 
    140 H140        3.6045  -20.1446  -50.8967 H         1 UNK         0.0800 
    141 H141        0.1791  -20.9320  -50.0884 H         1 UNK         0.0800 
    142 H142       -0.1136  -19.8141  -48.7851 H         1 UNK         0.0800 
    143 H143        0.7478  -22.6979  -48.2667 H         1 UNK         0.0600 
    144 H144        0.1726  -20.5462  -46.5255 H         1 UNK         0.3000 
    145 H145       -0.7034  -22.5152  -43.6407 H         1 UNK         0.0600 
    146 H146        1.0552  -21.0084  -42.7447 H         1 UNK         0.0600 
    147 H147        1.7693  -22.2707  -43.7380 H         1 UNK         0.0600 
    148 H148        1.6063  -20.6409  -44.3773 H         1 UNK         0.0600 
    149 H149       -0.7102  -19.6997  -44.0354 H         1 UNK         0.3000 
    150 H150       -4.1414  -19.4172  -45.0851 H         1 UNK         0.0600 
    151 H151       -4.1093  -19.5430  -42.5891 H         1 UNK         0.0600 
    152 H152       -4.1252  -17.8769  -43.1487 H         1 UNK         0.0600 
    153 H153       -2.6302  -18.5903  -42.5498 H         1 UNK         0.0600 
    154 H154       -2.1690  -17.4216  -44.7066 H         1 UNK         0.3000 
    155 H155       -0.7740  -17.4991  -48.0168 H         1 UNK         0.0600 
    156 H156       -1.4071  -15.1289  -47.8735 H         1 UNK         0.0600 
    157 H157       -2.4231  -15.4324  -46.4655 H         1 UNK         0.0600 
    158 H158       -2.8571  -16.0971  -48.0289 H         1 UNK         0.0600 
    159 H159       -0.1550  -15.9826  -45.6567 H         1 UNK         0.3000 
    160 H160        2.2566  -18.2126  -44.3031 H         1 UNK         0.0600 
    161 H161        2.7212  -15.6088  -45.8365 H         1 UNK         0.0600 
    162 H162        3.5321  -17.1386  -46.1376 H         1 UNK         0.0600 
    163 H163        3.7783  -16.3041  -44.6095 H         1 UNK         0.0600 
    164 H164        1.4225  -15.5102  -43.6968 H         1 UNK         0.3000 
    165 H165       -1.1204  -16.5748  -41.3550 H         1 UNK         0.0600 
    166 H166        1.5620  -15.1319  -41.0411 H         1 UNK         0.0600 
    167 H167        0.2278  -15.1264  -39.8916 H         1 UNK         0.0600 
    168 H168        1.1150  -16.6120  -40.1992 H         1 UNK         0.0600 
    169 H169       -0.3683  -13.9561  -42.0673 H         1 UNK         0.3000 
    170 H170       -2.5477  -13.4790  -44.8304 H         1 UNK         0.0600 
    171 H171       -4.0673  -13.3691  -42.8950 H         1 UNK         0.0600 
    172 H172       -2.8393  -12.5822  -41.9176 H         1 UNK         0.0600 
    173 H173       -3.5148  -11.7570  -43.3217 H         1 UNK         0.0600 
    174 H174       -0.7729  -12.2261  -45.0156 H         1 UNK         0.3000 
    175 H175        0.9877  -11.0920  -44.7859 H         1 UNK         0.0600 
    176 H176        1.7052   -8.9927  -43.7012 H         1 UNK         0.0600 
    177 H177       -0.0353   -9.1693  -43.5458 H         1 UNK         0.0600 
    178 H178        1.0031   -9.5026  -42.1651 H         1 UNK         0.0600 
    179 H179        2.9483  -10.9535  -42.8332 H         1 UNK         0.3000 
    180 H180        4.6918  -12.2591  -42.7756 H         1 UNK         0.0600 
    181 H181        3.7657  -15.1508  -42.2556 H         1 UNK         0.0600 
    182 H182        3.6872  -13.8375  -41.0842 H         1 UNK         0.0600 
    183 H183        5.2459  -14.4196  -41.6417 H         1 UNK         0.0600 
    184 H184        4.2425  -13.9318  -45.0442 H         1 UNK         0.3000 
    185 H185        7.6049  -13.8594  -46.0562 H         1 UNK         0.0600 
    186 H186        7.3024  -16.2287  -46.7022 H         1 UNK         0.0600 
    187 H187        7.6180  -16.1008  -44.9792 H         1 UNK         0.0600 
    188 H188        5.9836  -16.4085  -45.5478 H         1 UNK         0.0600 
    189 H189        5.1380  -14.8158  -47.2402 H         1 UNK         0.3000 
    190 H190       -2.3727  -20.9705  -47.6935 H         1 UNK         0.3000 
    191 H191       -3.9274  -22.4580  -49.5077 H         1 UNK         0.0600 
    192 H192       -4.7013  -20.3586  -48.4286 H         1 UNK         0.0600 
    193 H193       -5.8574  -21.6518  -48.1630 H         1 UNK         0.0600 
    194 H194       -4.7763  -21.1586  -46.8647 H         1 UNK         0.0600 
    195 H195       -3.2426  -23.0985  -46.0223 H         1 UNK         0.3000 
    196 H196       -4.7890  -25.4488  -45.7809 H         1 UNK         0.0600 
    197 H197       -3.3820  -25.8632  -43.7553 H         1 UNK         0.0600 
    198 H198       -3.9344  -24.1970  -43.8315 H         1 UNK         0.0600 
    199 H199       -2.2718  -24.5939  -44.2573 H         1 UNK         0.0600 
    200 H200       -1.3344  -25.0555  -46.6976 H         1 UNK         0.3000 
    201 H201       -0.7259  -27.8082  -47.0279 H         1 UNK         0.0600 
    202 H202        1.0000  -26.0378  -46.8336 H         1 UNK         0.0600 
    203 H203        0.4999  -25.3413  -48.3726 H         1 UNK         0.0600 
    204 H204        1.2259  -26.9432  -48.3230 H         1 UNK         0.0600 
    205 H205       -2.1533  -25.4441  -49.2672 H         1 UNK         0.3000 
    206 H206       -2.2886  -27.2923  -51.5283 H         1 UNK         0.0600 
    207 H207       -3.4090  -25.3347  -52.6127 H         1 UNK         0.0600 
    208 H208       -3.4302  -24.4942  -51.0654 H         1 UNK         0.0600 
    209 H209       -1.8988  -24.8607  -51.8520 H         1 UNK         0.0600 
    210 H210       -4.0021  -27.3177  -48.7200 H         1 UNK         0.3000 
    211 H211       -5.9342  -28.0695  -47.9733 H         1 UNK         0.0600 
    212 H212       -6.2227  -29.5017  -50.6677 H         1 UNK         0.0600 
    213 H213       -7.0312  -29.9292  -49.1657 H         1 UNK         0.0600 
    214 H214       -5.2887  -30.0972  -49.2957 H         1 UNK         0.0600 
    215 H215       -5.9629  -25.4993  -49.1119 H         1 UNK         0.3000 
    216 H216       -7.2003  -23.7756  -49.5718 H         1 UNK         0.0600 
    217 H217       -8.6807  -24.6475  -47.7492 H         1 UNK         0.0600 
    218 H218       -9.6764  -25.4672  -48.9523 H         1 UNK         0.0600 
    219 H219       -9.5738  -23.7133  -48.9362 H         1 UNK         0.0600 
    220 H220       -6.8247  -26.0301  -51.7547 H         1 UNK         0.3000 
    221 H221       -8.9233  -25.4039  -53.6757 H         1 UNK         0.0600 
    222 H222       -6.2955  -26.9384  -54.0227 H         1 UNK         0.0600 
    223 H223       -7.8297  -27.6552  -53.5299 H         1 UNK         0.0600 
    224 H224       -7.6622  -26.9429  -55.1280 H         1 UNK         0.0600 
    225 H225       -5.8352  -23.9914  -52.8391 H         1 UNK         0.3000 
    226 H226       -5.9709  -21.9043  -54.7727 H         1 UNK         0.0600 
    227 H227       -5.0782  -23.7458  -56.2826 H         1 UNK         0.0600 
    228 H228       -3.8734  -22.5065  -56.0271 H         1 UNK         0.0600 
    229 H229       -3.7628  -24.0263  -55.1468 H         1 UNK         0.0600 
    230 H230       -3.5551  -20.8868  -54.6916 H         1 UNK         0.3000 
    231 H231       -1.9083  -19.8926  -53.6526 H         1 UNK         0.0600 
    232 H232       -1.2092  -22.3233  -53.3830 H         1 UNK         0.0600 
    233 H233       -1.8005  -22.2580  -51.7236 H         1 UNK         0.0600 
    234 H234       -0.4727  -21.2209  -52.2391 H         1 UNK         0.0600 
    235 H235       -4.7377  -19.5749  -52.3874 H         1 UNK         0.3000 
    236 H236       -4.1119  -18.5541  -49.7135 H         1 UNK         0.0600 
    237 H237       -6.5322  -18.0012  -49.6914 H         1 UNK         0.0600 
    238 H238       -6.6691  -18.3900  -51.4025 H         1 UNK         0.0600 
    239 H239       -6.2995  -19.6558  -50.2331 H         1 UNK         0.0600 
    240 H240       -3.9661  -17.2892  -52.9095 H         1 UNK         0.3000 
    241 H241       -3.5749  -15.3289  -53.8261 H         1 UNK         0.0600 
    242 H242       -6.3789  -15.7126  -52.5375 H         1 UNK         0.3800 
    243 H243       -7.0251  -14.0966  -52.6456 H         1 UNK         0.3800 
    244 H244       -2.3423  -13.5342  -52.5762 H         1 UNK         0.0800 
    245 H245       -2.6215  -14.3834  -51.0818 H         1 UNK         0.0800 
    246 H246       -0.1854  -14.6649  -50.3803 H         1 UNK         0.0800 
    247 H247       -0.9504  -16.2331  -50.2155 H         1 UNK         0.0800 
@<TRIPOS>BOND
     1    1    2 1    
     2    1  127 1    
     3    1  128 1    
     4    1  129 1    
     5    2    3 2    
     6    2    4 am   BACKBONE|DICT|INTERRES
     7    4    5 1    
     8    4  130 1    
     9    5    6 1    
    10    5   65 1    
    11    5  131 1    
    12    6    7 1    
    13    6  132 1    
    14    6  133 1    
    15    7    8 1    
    16    8    9 1    
    17    8  134 1    
    18    8  135 1    
    19    9   10 ar   
    20    9   14 ar   
    21   10   11 ar   
    22   10  136 1    
    23   11   12 ar   
    24   11  126 1    
    25   12   13 ar   
    26   12  137 1    
    27   13   14 ar   
    28   13   15 1    
    29   14  138 1    
    30   15   16 1    
    31   15  139 1    
    32   15  140 1    
    33   16   17 1    
    34   17   18 1    
    35   17  141 1    
    36   17  142 1    
    37   18   19 1    
    38   18   67 1    
    39   18  143 1    
    40   19   20 am   BACKBONE|DICT|INTERRES
    41   19  144 1    
    42   20   21 2    
    43   20   22 1    
    44   22   23 1    
    45   22   24 1    
    46   22  145 1    
    47   23  146 1    
    48   23  147 1    
    49   23  148 1    
    50   24   25 am   BACKBONE|DICT|INTERRES
    51   24  149 1    
    52   25   26 2    
    53   25   27 1    
    54   27   28 1    
    55   27   29 1    
    56   27  150 1    
    57   28  151 1    
    58   28  152 1    
    59   28  153 1    
    60   29   30 am   BACKBONE|DICT|INTERRES
    61   29  154 1    
    62   30   31 2    
    63   30   32 1    
    64   32   33 1    
    65   32   34 1    
    66   32  155 1    
    67   33  156 1    
    68   33  157 1    
    69   33  158 1    
    70   34   35 am   BACKBONE|DICT|INTERRES
    71   34  159 1    
    72   35   36 2    
    73   35   37 1    
    74   37   38 1    
    75   37   39 1    
    76   37  160 1    
    77   38  161 1    
    78   38  162 1    
    79   38  163 1    
    80   39   40 am   BACKBONE|DICT|INTERRES
    81   39  164 1    
    82   40   41 2    
    83   40   42 1    
    84   42   43 1    
    85   42   44 1    
    86   42  165 1    
    87   43  166 1    
    88   43  167 1    
    89   43  168 1    
    90   44   45 am   BACKBONE|DICT|INTERRES
    91   44  169 1    
    92   45   46 2    
    93   45   47 1    
    94   47   48 1    
    95   47   49 1    
    96   47  170 1    
    97   48  171 1    
    98   48  172 1    
    99   48  173 1    
   100   49   50 am   BACKBONE|DICT|INTERRES
   101   49  174 1    
   102   50   51 2    
   103   50   52 1    
   104   52   53 1    
   105   52   54 1    
   106   52  175 1    
   107   53  176 1    
   108   53  177 1    
   109   53  178 1    
   110   54   55 am   BACKBONE|DICT|INTERRES
   111   54  179 1    
   112   55   56 2    
   113   55   57 1    
   114   57   58 1    
   115   57   59 1    
   116   57  180 1    
   117   58  181 1    
   118   58  182 1    
   119   58  183 1    
   120   59   60 am   BACKBONE|DICT|INTERRES
   121   59  184 1    
   122   60   61 2    
   123   60   62 1    
   124   62   63 1    
   125   62   64 1    
   126   62  185 1    
   127   63  186 1    
   128   63  187 1    
   129   63  188 1    
   130   64   65 am   BACKBONE|DICT|INTERRES
   131   64  189 1    
   132   65   66 2    
   133   67   68 2    
   134   67   69 am   BACKBONE|DICT|INTERRES
   135   69   70 1    
   136   69  190 1    
   137   70   71 1    
   138   70   72 1    
   139   70  191 1    
   140   71  192 1    
   141   71  193 1    
   142   71  194 1    
   143   72   73 2    
   144   72   74 am   BACKBONE|DICT|INTERRES
   145   74   75 1    
   146   74  195 1    
   147   75   76 1    
   148   75   77 1    
   149   75  196 1    
   150   76  197 1    
   151   76  198 1    
   152   76  199 1    
   153   77   78 2    
   154   77   79 am   BACKBONE|DICT|INTERRES
   155   79   80 1    
   156   79  200 1    
   157   80   81 1    
   158   80   82 1    
   159   80  201 1    
   160   81  202 1    
   161   81  203 1    
   162   81  204 1    
   163   82   83 2    
   164   82   84 am   BACKBONE|DICT|INTERRES
   165   84   85 1    
   166   84  205 1    
   167   85   86 1    
   168   85   87 1    
   169   85  206 1    
   170   86  207 1    
   171   86  208 1    
   172   86  209 1    
   173   87   88 2    
   174   87   89 am   BACKBONE|DICT|INTERRES
   175   89   90 1    
   176   89  210 1    
   177   90   91 1    
   178   90   92 1    
   179   90  211 1    
   180   91  212 1    
   181   91  213 1    
   182   91  214 1    
   183   92   93 2    
   184   92   94 am   BACKBONE|DICT|INTERRES
   185   94   95 1    
   186   94  215 1    
   187   95   96 1    
   188   95   97 1    
   189   95  216 1    
   190   96  217 1    
   191   96  218 1    
   192   96  219 1    
   193   97   98 2    
   194   97   99 am   BACKBONE|DICT|INTERRES
   195   99  100 1    
   196   99  220 1    
   197  100  101 1    
   198  100  102 1    
   199  100  221 1    
   200  101  222 1    
   201  101  223 1    
   202  101  224 1    
   203  102  103 2    
   204  102  104 am   BACKBONE|DICT|INTERRES
   205  104  105 1    
   206  104  225 1    
   207  105  106 1    
   208  105  107 1    
   209  105  226 1    
   210  106  227 1    
   211  106  228 1    
   212  106  229 1    
   213  107  108 2    
   214  107  109 am   BACKBONE|DICT|INTERRES
   215  109  110 1    
   216  109  230 1    
   217  110  111 1    
   218  110  112 1    
   219  110  231 1    
   220  111  232 1    
   221  111  233 1    
   222  111  234 1    
   223  112  113 2    
   224  112  114 am   BACKBONE|DICT|INTERRES
   225  114  115 1    
   226  114  235 1    
   227  115  116 1    
   228  115  117 1    
   229  115  236 1    
   230  116  237 1    
   231  116  238 1    
   232  116  239 1    
   233  117  118 2    
   234  117  119 am   BACKBONE|DICT|INTERRES
   235  119  120 1    
   236  119  240 1    
   237  120  121 1    
   238  120  124 1    
   239  120  241 1    
   240  121  122 am   BACKBONE|DICT|INTERRES
   241  121  123 2    
   242  122  242 1    
   243  122  243 1    
   244  124  125 1    
   245  124  244 1    
   246  124  245 1    
   247  125  126 1    
   248  126  246 1    
   249  126  247 1    
@<TRIPOS>SUBSTRUCTURE
     1 UNK         1 GROUP             0       ****    0 ROOT    
