@<TRIPOS>MOLECULE
3R540
247   249    1
SMALL
USER_CHARGES


@<TRIPOS>ATOM
      1 CA         -2.7957  -15.8011  -42.3292 C.3       0 UNK        -0.1800 
      2 C          -2.7155  -16.4635  -43.6963 C.2       0 UNK         0.5000 
      3 O          -2.9923  -17.6558  -43.8222 O.2       0 UNK        -0.5000 
      4 N          -2.3458  -15.6895  -44.7183 N.am      1 UNK        -0.5000 
      5 CA         -2.2527  -16.1081  -46.1135 C.3       1 UNK         0.1400 
      6 C6         -0.8961  -16.7982  -46.3972 C.3       23 UNK        -0.0398 
      7 S7         -0.8549  -17.7422  -47.9596 S.3       23 UNK        -0.2404 
      8 C8          0.6058  -17.0227  -48.7823 C.3       23 UNK        -0.0205 
      9 C9          1.2313  -17.9304  -49.8381 C.ar      23 UNK        -0.0193 
     10 C10         1.8255  -17.3660  -50.9706 C.ar      23 UNK        -0.1150 
     11 C11         2.4533  -18.1742  -51.9237 C.ar      23 UNK        -0.0193 
     12 C12         2.5202  -19.5555  -51.7205 C.ar      23 UNK        -0.1150 
     13 C13         1.9096  -20.1372  -50.6073 C.ar      23 UNK        -0.0193 
     14 C14         1.2629  -19.3204  -49.6776 C.ar      23 UNK        -0.1150 
     15 C15         1.8830  -21.6499  -50.4528 C.3       23 UNK        -0.0205 
     16 S16         3.1468  -22.2953  -49.3033 S.3       23 UNK        -0.2404 
     17 C17         2.4996  -21.9041  -47.6368 C.3       23 UNK        -0.0398 
     18 CA          1.4923  -22.9514  -47.0937 C.3       11 UNK         0.1400 
     19 N           1.5098  -23.0371  -45.6335 N.am      11 UNK        -0.5000 
     20 C           1.0016  -24.0566  -44.9256 C.2       10 UNK         0.5000 
     21 O           0.5493  -25.0843  -45.4314 O.2       10 UNK        -0.5000 
     22 CA          0.9474  -23.8692  -43.3967 C.3       10 UNK         0.1400 
     23 CB          2.2793  -24.2798  -42.7517 C.3       10 UNK        -0.1800 
     24 N           0.6292  -22.4908  -43.0164 N.am      10 UNK        -0.5000 
     25 C          -0.5472  -21.8952  -43.2593 C.2       9 UNK         0.5000 
     26 O          -1.5139  -22.4809  -43.7465 O.2       9 UNK        -0.5000 
     27 CA         -0.6467  -20.3861  -42.9579 C.3       9 UNK         0.1400 
     28 CB         -1.2598  -20.1562  -41.5704 C.3       9 UNK        -0.1800 
     29 N           0.6303  -19.6683  -43.0759 N.am      9 UNK        -0.5000 
     30 C           1.3243  -19.5499  -44.2206 C.2       8 UNK         0.5000 
     31 O           0.9664  -20.0823  -45.2713 O.2       8 UNK        -0.5000 
     32 CA          2.6320  -18.7333  -44.2190 C.3       8 UNK         0.1400 
     33 CB          2.5888  -17.6270  -45.2853 C.3       8 UNK        -0.1800 
     34 N           2.9270  -18.1285  -42.9216 N.am      8 UNK        -0.5000 
     35 C           3.6862  -18.6868  -41.9672 C.2       7 UNK         0.5000 
     36 O           4.2476  -19.7752  -42.0938 O.2       7 UNK        -0.5000 
     37 CA          3.8212  -17.9172  -40.6341 C.3       7 UNK         0.1400 
     38 CB          5.1026  -17.0701  -40.6312 C.3       7 UNK        -0.1800 
     39 N           2.6779  -17.0476  -40.3467 N.am      7 UNK        -0.5000 
     40 C           1.4179  -17.4734  -40.1848 C.2       6 UNK         0.5000 
     41 O           1.1144  -18.6638  -40.1327 O.2       6 UNK        -0.5000 
     42 CA          0.3013  -16.4104  -40.1400 C.3       6 UNK         0.1400 
     43 CB         -0.2284  -16.2416  -38.7085 C.3       6 UNK        -0.1800 
     44 N           0.6733  -15.0933  -40.6709 N.am      6 UNK        -0.5000 
     45 C           1.0959  -14.8341  -41.9165 C.2       5 UNK         0.5000 
     46 O           1.2544  -15.7027  -42.7772 O.2       5 UNK        -0.5000 
     47 CA          1.4628  -13.3650  -42.2013 C.3       5 UNK         0.1400 
     48 CB          2.7030  -12.9534  -41.3883 C.3       5 UNK        -0.1800 
     49 N           1.7398  -13.0985  -43.6121 N.am      5 UNK        -0.5000 
     50 C           0.8318  -13.0606  -44.5932 C.2       4 UNK         0.5000 
     51 O          -0.3722  -13.2758  -44.4329 O.2       4 UNK        -0.5000 
     52 CA          1.3779  -12.6889  -45.9799 C.3       4 UNK         0.1400 
     53 CB          2.0822  -13.8723  -46.6676 C.3       4 UNK        -0.1800 
     54 N           0.3070  -12.1816  -46.8333 N.am      4 UNK        -0.5000 
     55 C           0.4813  -11.3046  -47.8307 C.2       3 UNK         0.5000 
     56 O           1.5810  -10.8375  -48.1348 O.2       3 UNK        -0.5000 
     57 CA         -0.7808  -10.8674  -48.6079 C.3       3 UNK         0.1400 
     58 CB         -0.4573  -10.2173  -49.9702 C.3       3 UNK        -0.1800 
     59 N          -1.7689  -11.9392  -48.7678 N.am      3 UNK        -0.5000 
     60 C          -1.6039  -13.1111  -49.3976 C.2       2 UNK         0.5000 
     61 O          -0.5671  -13.4605  -49.9643 O.2       2 UNK        -0.5000 
     62 CA         -2.8066  -14.0728  -49.3423 C.3       2 UNK         0.1400 
     63 CB         -3.0385  -14.7687  -50.6922 C.3       2 UNK        -0.1800 
     64 N          -2.6269  -15.0951  -48.3142 N.am      2 UNK        -0.5000 
     65 C          -2.5092  -14.8725  -47.0003 C.2       1 UNK         0.5000 
     66 O          -2.6070  -13.7520  -46.4911 O.2       1 UNK        -0.5000 
     67 C           0.0557  -22.6931  -47.5865 C.2       11 UNK         0.5000 
     68 O          -0.3864  -23.3689  -48.5123 O.2       11 UNK        -0.5000 
     69 N          -0.6675  -21.7701  -46.9306 N.am      12 UNK        -0.5000 
     70 CA         -2.0667  -21.4356  -47.2210 C.3       12 UNK         0.1400 
     71 CB         -2.5798  -20.3688  -46.2415 C.3       12 UNK        -0.1800 
     72 C          -2.9955  -22.6603  -47.1821 C.2       12 UNK         0.5000 
     73 O          -3.8093  -22.8271  -48.0891 O.2       12 UNK        -0.5000 
     74 N          -2.8280  -23.5076  -46.1572 N.am      13 UNK        -0.5000 
     75 CA         -3.5408  -24.7729  -45.9872 C.3       13 UNK         0.1400 
     76 CB         -3.1816  -25.3803  -44.6230 C.3       13 UNK        -0.1800 
     77 C          -3.2630  -25.7737  -47.1239 C.2       13 UNK         0.5000 
     78 O          -4.2056  -26.3632  -47.6543 O.2       13 UNK        -0.5000 
     79 N          -1.9860  -25.9126  -47.5102 N.am      14 UNK        -0.5000 
     80 CA         -1.5448  -26.7407  -48.6376 C.3       14 UNK         0.1400 
     81 CB         -0.0120  -26.8455  -48.6279 C.3       14 UNK        -0.1800 
     82 C          -2.0547  -26.2167  -49.9955 C.2       14 UNK         0.5000 
     83 O          -2.3921  -27.0125  -50.8718 O.2       14 UNK        -0.5000 
     84 N          -2.1543  -24.8880  -50.1176 N.am      15 UNK        -0.5000 
     85 CA         -2.7274  -24.1553  -51.2456 C.3       15 UNK         0.1400 
     86 CB         -2.0801  -22.7597  -51.3049 C.3       15 UNK        -0.1800 
     87 C          -4.2700  -24.0680  -51.2089 C.2       15 UNK         0.5000 
     88 O          -4.8331  -23.2453  -51.9288 O.2       15 UNK        -0.5000 
     89 N          -4.9331  -24.8966  -50.3866 N.am      16 UNK        -0.5000 
     90 CA         -6.3880  -25.0438  -50.2608 C.3       16 UNK         0.1400 
     91 CB         -6.9839  -25.6443  -51.5518 C.3       16 UNK        -0.1800 
     92 C          -7.0874  -23.7412  -49.8208 C.2       16 UNK         0.5000 
     93 O          -8.0476  -23.3026  -50.4563 O.2       16 UNK        -0.5000 
     94 N          -6.5661  -23.1502  -48.7376 N.am      17 UNK        -0.5000 
     95 CA         -6.9368  -21.8561  -48.1571 C.3       17 UNK         0.1400 
     96 CB         -8.4154  -21.8239  -47.7141 C.3       17 UNK        -0.1800 
     97 C          -6.5338  -20.6855  -49.0756 C.2       17 UNK         0.5000 
     98 O          -7.3181  -19.7576  -49.2811 O.2       17 UNK        -0.5000 
     99 N          -5.2992  -20.7644  -49.5960 N.am      18 UNK        -0.5000 
    100 CA        -4.6390  -19.7950  -50.4770 C.3       18 UNK         0.1400 
    101 CB        -4.3246  -18.4967  -49.7028 C.3       18 UNK        -0.1800 
    102 C         -5.4123  -19.5480  -51.7910 C.2       18 UNK         0.5000 
    103 O         -5.6126  -18.3979  -52.1906 O.2       18 UNK        -0.5000 
    104 N         -5.8424  -20.6363  -52.4454 N.am      19 UNK        -0.5000 
    105 CA        -6.5039  -20.6131  -53.7493 C.3       19 UNK         0.1400 
    106 CB        -7.0518  -22.0108  -54.0747 C.3       19 UNK        -0.1800 
    107 C         -5.5216  -20.1361  -54.8325 C.2       19 UNK         0.5000 
    108 O         -4.4115  -20.6652  -54.9197 O.2       19 UNK        -0.5000 
    109 N         -5.9238  -19.1073  -55.5937 N.am      20 UNK        -0.5000 
    110 CA        -5.0967  -18.3654  -56.5586 C.3       20 UNK         0.1400 
    111 CB        -4.7687  -19.2426  -57.7850 C.3       20 UNK        -0.1800 
    112 C         -3.8361  -17.7432  -55.9110 C.2       20 UNK         0.5000 
    113 O         -2.7897  -17.6456  -56.5551 O.2       20 UNK        -0.5000 
    114 N         -3.9631  -17.3710  -54.6283 N.am      21 UNK        -0.5000 
    115 CA        -2.9378  -16.9144  -53.6889 C.3       21 UNK         0.1400 
    116 CB        -2.2407  -15.6243  -54.1657 C.3       21 UNK        -0.1800 
    117 C         -1.9262  -18.0112  -53.3114 C.2       21 UNK         0.5000 
    118 O         -1.8332  -18.3638  -52.1367 O.2       21 UNK        -0.5000 
    119 N         -1.1916  -18.5192  -54.3049 N.am      22 UNK        -0.5000 
    120 CA        -0.0518  -19.4313  -54.1278 C.3       22 UNK         0.1400 
    121 C         -0.3579  -20.9203  -54.4572 C.2       22 UNK         0.5000 
    122 N         -1.5822  -21.3087  -54.7880 N.am      22 UNK        -0.7600 
    123 O          0.5392  -21.7568  -54.4002 O.2       22 UNK        -0.5000 
    124 C124        1.2043  -18.9283  -54.8934 C.3       23 UNK        -0.0398 
    125 S125        1.7219  -17.2369  -54.4243 S.3       23 UNK        -0.2404 
    126 C126        3.0260  -17.5589  -53.1908 C.3       23 UNK        -0.0205 
    127 H127       -3.7582  -15.3039  -42.2101 H         1 UNK         0.0600 
    128 H128       -2.0063  -15.0595  -42.2051 H         1 UNK         0.0600 
    129 H129       -2.6986  -16.5432  -41.5373 H         1 UNK         0.0600 
    130 H130       -2.1317  -14.7065  -44.5762 H         1 UNK         0.3000 
    131 H131       -3.0612  -16.8151  -46.3131 H         1 UNK         0.0600 
    132 H132       -0.6751  -17.5129  -45.6035 H         1 UNK         0.0800 
    133 H133       -0.0894  -16.0698  -46.3587 H         1 UNK         0.0800 
    134 H134        1.3757  -16.8115  -48.0410 H         1 UNK         0.0800 
    135 H135        0.3195  -16.0651  -49.2207 H         1 UNK         0.0800 
    136 H136        1.7891  -16.2958  -51.1198 H         1 UNK         0.1150 
    137 H137        3.0023  -20.1841  -52.4561 H         1 UNK         0.1150 
    138 H138        0.7717  -19.7702  -48.8291 H         1 UNK         0.1150 
    139 H139        0.8867  -21.9623  -50.1529 H         1 UNK         0.0800 
    140 H140        2.0450  -22.1172  -51.4255 H         1 UNK         0.0800 
    141 H141        2.1127  -20.8888  -47.5861 H         1 UNK         0.0800 
    142 H142        3.3769  -21.8916  -46.9888 H         1 UNK         0.0800 
    143 H143        1.7940  -23.9317  -47.4700 H         1 UNK         0.0600 
    144 H144        1.7849  -22.1989  -45.1419 H         1 UNK         0.3000 
    145 H145        0.1619  -24.5212  -43.0085 H         1 UNK         0.0600 
    146 H146        2.2257  -24.2192  -41.6646 H         1 UNK         0.0600 
    147 H147        2.5349  -25.3092  -43.0068 H         1 UNK         0.0600 
    148 H148        3.1019  -23.6449  -43.0835 H         1 UNK         0.0600 
    149 H149        1.3699  -21.9437  -42.6026 H         1 UNK         0.3000 
    150 H150       -1.3261  -19.9500  -43.6904 H         1 UNK         0.0600 
    151 H151       -2.2386  -20.6316  -41.4949 H         1 UNK         0.0600 
    152 H152       -1.4029  -19.0939  -41.3736 H         1 UNK         0.0600 
    153 H153       -0.6336  -20.5697  -40.7794 H         1 UNK         0.0600 
    154 H154        0.9856  -19.2344  -42.2330 H         1 UNK         0.3000 
    155 H155        3.4335  -19.4220  -44.4934 H         1 UNK         0.0600 
    156 H156        1.7945  -16.9081  -45.0881 H         1 UNK         0.0600 
    157 H157        2.4176  -18.0466  -46.2772 H         1 UNK         0.0600 
    158 H158        3.5308  -17.0801  -45.3242 H         1 UNK         0.0600 
    159 H159        2.4687  -17.2398  -42.7381 H         1 UNK         0.3000 
    160 H160        3.8929  -18.6553  -39.8327 H         1 UNK         0.0600 
    161 H161        5.0757  -16.2976  -41.4009 H         1 UNK         0.0600 
    162 H162        5.9809  -17.6895  -40.8180 H         1 UNK         0.0600 
    163 H163        5.2507  -16.5809  -39.6682 H         1 UNK         0.0600 
    164 H164        2.8448  -16.0533  -40.3765 H         1 UNK         0.3000 
    165 H165       -0.5094  -16.7929  -40.7604 H         1 UNK         0.0600 
    166 H166       -1.0931  -15.5782  -38.6832 H         1 UNK         0.0600 
    167 H167       -0.5447  -17.1991  -38.2921 H         1 UNK         0.0600 
    168 H168        0.5328  -15.8299  -38.0446 H         1 UNK         0.0600 
    169 H169        0.5928  -14.3234  -40.0221 H         1 UNK         0.3000 
    170 H170        0.6188  -12.7430  -41.8961 H         1 UNK         0.0600 
    171 H171        2.5332  -13.0572  -40.3160 H         1 UNK         0.0600 
    172 H172        3.5715  -13.5623  -41.6435 H         1 UNK         0.0600 
    173 H173        2.9627  -11.9098  -41.5679 H         1 UNK         0.0600 
    174 H174        2.7090  -12.9427  -43.8464 H         1 UNK         0.3000 
    175 H175        2.1100  -11.8939  -45.8210 H         1 UNK         0.0600 
    176 H176        1.3655  -14.5865  -47.0650 H         1 UNK         0.0600 
    177 H177        2.6913  -13.5279  -47.5034 H         1 UNK         0.0600 
    178 H178        2.7433  -14.4053  -45.9831 H         1 UNK         0.0600 
    179 H179       -0.6248  -12.5058  -46.5959 H         1 UNK         0.3000 
    180 H180       -1.2594  -10.1061  -47.9905 H         1 UNK         0.0600 
    181 H181        0.0829  -10.8999  -50.6269 H         1 UNK         0.0600 
    182 H182        0.1615   -9.3283  -49.8432 H         1 UNK         0.0600 
    183 H183       -1.3664   -9.9060  -50.4846 H         1 UNK         0.0600 
    184 H184       -2.6404  -11.7936  -48.2763 H         1 UNK         0.3000 
    185 H185       -3.7045  -13.4997  -49.1022 H         1 UNK         0.0600 
    186 H186       -3.1281  -14.0402  -51.4989 H         1 UNK         0.0600 
    187 H187       -2.2164  -15.4409  -50.9432 H         1 UNK         0.0600 
    188 H188       -3.9587  -15.3529  -50.6792 H         1 UNK         0.0600 
    189 H189       -2.4811  -16.0374  -48.6499 H         1 UNK         0.3000 
    190 H190       -0.2075  -21.2234  -46.2076 H         1 UNK         0.3000 
    191 H191       -2.0898  -21.0147  -48.2280 H         1 UNK         0.0600 
    192 H192       -2.8563  -20.7937  -45.2770 H         1 UNK         0.0600 
    193 H193       -3.4687  -19.8775  -46.6376 H         1 UNK         0.0600 
    194 H194       -1.8353  -19.5988  -46.0540 H         1 UNK         0.0600 
    195 H195       -2.1756  -23.2504  -45.4218 H         1 UNK         0.3000 
    196 H196       -4.6105  -24.5537  -45.9916 H         1 UNK         0.0600 
    197 H197       -3.7089  -26.3213  -44.4619 H         1 UNK         0.0600 
    198 H198       -3.4569  -24.7090  -43.8093 H         1 UNK         0.0600 
    199 H199       -2.1129  -25.5821  -44.5403 H         1 UNK         0.0600 
    200 H200       -1.2716  -25.3775  -47.0336 H         1 UNK         0.3000 
    201 H201       -1.9537  -27.7431  -48.4953 H         1 UNK         0.0600 
    202 H202        0.3493  -27.2554  -47.6845 H         1 UNK         0.0600 
    203 H203        0.4623  -25.8749  -48.7730 H         1 UNK         0.0600 
    204 H204        0.3380  -27.5029  -49.4246 H         1 UNK         0.0600 
    205 H205       -1.7812  -24.3161  -49.3638 H         1 UNK         0.3000 
    206 H206       -2.4687  -24.6794  -52.1676 H         1 UNK         0.0600 
    207 H207       -1.0013  -22.8354  -51.4383 H         1 UNK         0.0600 
    208 H208       -2.4636  -22.1730  -52.1405 H         1 UNK         0.0600 
    209 H209       -2.2644  -22.1941  -50.3922 H         1 UNK         0.0600 
    210 H210       -4.3852  -25.4975  -49.7847 H         1 UNK         0.3000 
    211 H211       -6.5529  -25.7647  -49.4587 H         1 UNK         0.0600 
    212 H212       -6.8893  -24.9636  -52.3986 H         1 UNK         0.0600 
    213 H213       -8.0449  -25.8632  -51.4264 H         1 UNK         0.0600 
    214 H214       -6.4893  -26.5789  -51.8162 H         1 UNK         0.0600 
    215 H215       -5.7077  -23.5421  -48.3658 H         1 UNK         0.3000 
    216 H216       -6.3317  -21.7499  -47.2554 H         1 UNK         0.0600 
    217 H217       -8.6276  -20.9200  -47.1423 H         1 UNK         0.0600 
    218 H218       -8.6549  -22.6747  -47.0764 H         1 UNK         0.0600 
    219 H219       -9.0991  -21.8362  -48.5630 H         1 UNK         0.0600 
    220 H220       -4.7508  -21.5814  -49.3477 H         1 UNK         0.3000 
    221 H221       -3.6860  -20.2379  -50.7677 H         1 UNK         0.0600 
    222 H222       -5.2313  -17.9693  -49.4058 H         1 UNK         0.0600 
    223 H223       -3.7458  -18.7050  -48.8037 H         1 UNK         0.0600 
    224 H224       -3.7342  -17.8130  -50.3122 H         1 UNK         0.0600 
    225 H225       -5.5777  -21.5572  -52.1015 H         1 UNK         0.3000 
    226 H226       -7.3455  -19.9201  -53.6887 H         1 UNK         0.0600 
    227 H227       -7.7232  -22.3642  -53.2915 H         1 UNK         0.0600 
    228 H228       -7.6136  -22.0008  -55.0093 H         1 UNK         0.0600 
    229 H229       -6.2505  -22.7428  -54.1819 H         1 UNK         0.0600 
    230 H230       -6.8508  -18.7335  -55.4424 H         1 UNK         0.3000 
    231 H231       -5.7031  -17.5275  -56.9050 H         1 UNK         0.0600 
    232 H232       -5.6738  -19.6665  -58.2199 H         1 UNK         0.0600 
    233 H233       -4.1019  -20.0664  -57.5286 H         1 UNK         0.0600 
    234 H234       -4.2790  -18.6577  -58.5643 H         1 UNK         0.0600 
    235 H235       -4.8559  -17.5576  -54.1881 H         1 UNK         0.3000 
    236 H236       -3.4807  -16.6682  -52.7763 H         1 UNK         0.0600 
    237 H237       -1.5369  -15.2655  -53.4136 H         1 UNK         0.0600 
    238 H238       -1.6758  -15.7732  -55.0858 H         1 UNK         0.0600 
    239 H239       -2.9642  -14.8282  -54.3406 H         1 UNK         0.0600 
    240 H240       -1.3951  -18.2151  -55.2513 H         1 UNK         0.3000 
    241 H241        0.2050  -19.4479  -53.0698 H         1 UNK         0.0600 
    242 H242       -1.7409  -22.2808  -54.9944 H         1 UNK         0.3800 
    243 H243       -2.3734  -20.6757  -54.8045 H         1 UNK         0.3800 
    244 H244        2.0486  -19.6026  -54.7423 H         1 UNK         0.0800 
    245 H245        1.0096  -18.9320  -55.9669 H         1 UNK         0.0800 
    246 H246        3.5212  -16.6181  -52.9461 H         1 UNK         0.0800 
    247 H247        3.7927  -18.2031  -53.6241 H         1 UNK         0.0800 
@<TRIPOS>BOND
     1    1    2 1    
     2    1  127 1    
     3    1  128 1    
     4    1  129 1    
     5    2    3 2    
     6    2    4 am   BACKBONE|DICT|INTERRES
     7    4    5 1    
     8    4  130 1    
     9    5    6 1    
    10    5   65 1    
    11    5  131 1    
    12    6    7 1    
    13    6  132 1    
    14    6  133 1    
    15    7    8 1    
    16    8    9 1    
    17    8  134 1    
    18    8  135 1    
    19    9   10 ar   
    20    9   14 ar   
    21   10   11 ar   
    22   10  136 1    
    23   11   12 ar   
    24   11  126 1    
    25   12   13 ar   
    26   12  137 1    
    27   13   14 ar   
    28   13   15 1    
    29   14  138 1    
    30   15   16 1    
    31   15  139 1    
    32   15  140 1    
    33   16   17 1    
    34   17   18 1    
    35   17  141 1    
    36   17  142 1    
    37   18   19 1    
    38   18   67 1    
    39   18  143 1    
    40   19   20 am   BACKBONE|DICT|INTERRES
    41   19  144 1    
    42   20   21 2    
    43   20   22 1    
    44   22   23 1    
    45   22   24 1    
    46   22  145 1    
    47   23  146 1    
    48   23  147 1    
    49   23  148 1    
    50   24   25 am   BACKBONE|DICT|INTERRES
    51   24  149 1    
    52   25   26 2    
    53   25   27 1    
    54   27   28 1    
    55   27   29 1    
    56   27  150 1    
    57   28  151 1    
    58   28  152 1    
    59   28  153 1    
    60   29   30 am   BACKBONE|DICT|INTERRES
    61   29  154 1    
    62   30   31 2    
    63   30   32 1    
    64   32   33 1    
    65   32   34 1    
    66   32  155 1    
    67   33  156 1    
    68   33  157 1    
    69   33  158 1    
    70   34   35 am   BACKBONE|DICT|INTERRES
    71   34  159 1    
    72   35   36 2    
    73   35   37 1    
    74   37   38 1    
    75   37   39 1    
    76   37  160 1    
    77   38  161 1    
    78   38  162 1    
    79   38  163 1    
    80   39   40 am   BACKBONE|DICT|INTERRES
    81   39  164 1    
    82   40   41 2    
    83   40   42 1    
    84   42   43 1    
    85   42   44 1    
    86   42  165 1    
    87   43  166 1    
    88   43  167 1    
    89   43  168 1    
    90   44   45 am   BACKBONE|DICT|INTERRES
    91   44  169 1    
    92   45   46 2    
    93   45   47 1    
    94   47   48 1    
    95   47   49 1    
    96   47  170 1    
    97   48  171 1    
    98   48  172 1    
    99   48  173 1    
   100   49   50 am   BACKBONE|DICT|INTERRES
   101   49  174 1    
   102   50   51 2    
   103   50   52 1    
   104   52   53 1    
   105   52   54 1    
   106   52  175 1    
   107   53  176 1    
   108   53  177 1    
   109   53  178 1    
   110   54   55 am   BACKBONE|DICT|INTERRES
   111   54  179 1    
   112   55   56 2    
   113   55   57 1    
   114   57   58 1    
   115   57   59 1    
   116   57  180 1    
   117   58  181 1    
   118   58  182 1    
   119   58  183 1    
   120   59   60 am   BACKBONE|DICT|INTERRES
   121   59  184 1    
   122   60   61 2    
   123   60   62 1    
   124   62   63 1    
   125   62   64 1    
   126   62  185 1    
   127   63  186 1    
   128   63  187 1    
   129   63  188 1    
   130   64   65 am   BACKBONE|DICT|INTERRES
   131   64  189 1    
   132   65   66 2    
   133   67   68 2    
   134   67   69 am   BACKBONE|DICT|INTERRES
   135   69   70 1    
   136   69  190 1    
   137   70   71 1    
   138   70   72 1    
   139   70  191 1    
   140   71  192 1    
   141   71  193 1    
   142   71  194 1    
   143   72   73 2    
   144   72   74 am   BACKBONE|DICT|INTERRES
   145   74   75 1    
   146   74  195 1    
   147   75   76 1    
   148   75   77 1    
   149   75  196 1    
   150   76  197 1    
   151   76  198 1    
   152   76  199 1    
   153   77   78 2    
   154   77   79 am   BACKBONE|DICT|INTERRES
   155   79   80 1    
   156   79  200 1    
   157   80   81 1    
   158   80   82 1    
   159   80  201 1    
   160   81  202 1    
   161   81  203 1    
   162   81  204 1    
   163   82   83 2    
   164   82   84 am   BACKBONE|DICT|INTERRES
   165   84   85 1    
   166   84  205 1    
   167   85   86 1    
   168   85   87 1    
   169   85  206 1    
   170   86  207 1    
   171   86  208 1    
   172   86  209 1    
   173   87   88 2    
   174   87   89 am   BACKBONE|DICT|INTERRES
   175   89   90 1    
   176   89  210 1    
   177   90   91 1    
   178   90   92 1    
   179   90  211 1    
   180   91  212 1    
   181   91  213 1    
   182   91  214 1    
   183   92   93 2    
   184   92   94 am   BACKBONE|DICT|INTERRES
   185   94   95 1    
   186   94  215 1    
   187   95   96 1    
   188   95   97 1    
   189   95  216 1    
   190   96  217 1    
   191   96  218 1    
   192   96  219 1    
   193   97   98 2    
   194   97   99 am   BACKBONE|DICT|INTERRES
   195   99  100 1    
   196   99  220 1    
   197  100  101 1    
   198  100  102 1    
   199  100  221 1    
   200  101  222 1    
   201  101  223 1    
   202  101  224 1    
   203  102  103 2    
   204  102  104 am   BACKBONE|DICT|INTERRES
   205  104  105 1    
   206  104  225 1    
   207  105  106 1    
   208  105  107 1    
   209  105  226 1    
   210  106  227 1    
   211  106  228 1    
   212  106  229 1    
   213  107  108 2    
   214  107  109 am   BACKBONE|DICT|INTERRES
   215  109  110 1    
   216  109  230 1    
   217  110  111 1    
   218  110  112 1    
   219  110  231 1    
   220  111  232 1    
   221  111  233 1    
   222  111  234 1    
   223  112  113 2    
   224  112  114 am   BACKBONE|DICT|INTERRES
   225  114  115 1    
   226  114  235 1    
   227  115  116 1    
   228  115  117 1    
   229  115  236 1    
   230  116  237 1    
   231  116  238 1    
   232  116  239 1    
   233  117  118 2    
   234  117  119 am   BACKBONE|DICT|INTERRES
   235  119  120 1    
   236  119  240 1    
   237  120  121 1    
   238  120  124 1    
   239  120  241 1    
   240  121  122 am   BACKBONE|DICT|INTERRES
   241  121  123 2    
   242  122  242 1    
   243  122  243 1    
   244  124  125 1    
   245  124  244 1    
   246  124  245 1    
   247  125  126 1    
   248  126  246 1    
   249  126  247 1    
@<TRIPOS>SUBSTRUCTURE
     1 UNK         1 GROUP             0       ****    0 ROOT    
