@<TRIPOS>MOLECULE
3R540
247   249    1
SMALL
USER_CHARGES


@<TRIPOS>ATOM
      1 CA          2.9454  -17.7764  -47.8564 C.3       0 UNK        -0.1800 
      2 C           3.3457  -16.4013  -48.3553 C.2       0 UNK         0.5000 
      3 O           2.5195  -15.4904  -48.3943 O.2       0 UNK        -0.5000 
      4 N           4.6214  -16.2490  -48.7218 N.am      1 UNK        -0.5000 
      5 CA          5.2377  -15.0093  -49.1954 C.3       1 UNK         0.1400 
      6 C6          6.4862  -15.3094  -50.0620 C.3       23 UNK        -0.0398 
      7 S7          6.0595  -15.9858  -51.7047 S.3       23 UNK        -0.2404 
      8 C8          6.0357  -17.7968  -51.4356 C.3       23 UNK        -0.0205 
      9 C9          4.6458  -18.4201  -51.2680 C.ar      23 UNK        -0.0193 
     10 C10         3.4921  -17.8326  -51.8046 C.ar      23 UNK        -0.1150 
     11 C11         2.2461  -18.4552  -51.6851 C.ar      23 UNK        -0.0193 
     12 C12         2.1494  -19.6816  -51.0232 C.ar      23 UNK        -0.1150 
     13 C13         3.2901  -20.2888  -50.4910 C.ar      23 UNK        -0.0193 
     14 C14         4.5303  -19.6525  -50.6150 C.ar      23 UNK        -0.1150 
     15 C15         3.1948  -21.6576  -49.8321 C.3       23 UNK        -0.0205 
     16 S16         3.3350  -21.5785  -48.0186 S.3       23 UNK        -0.2404 
     17 C17         1.7113  -20.9098  -47.5232 C.3       23 UNK        -0.0398 
     18 CA          0.7232  -22.0114  -47.0738 C.3       11 UNK         0.1400 
     19 N          -0.1916  -21.5512  -46.0263 N.am      11 UNK        -0.5000 
     20 C          -1.0002  -22.3575  -45.3242 C.2       10 UNK         0.5000 
     21 O          -1.0295  -23.5797  -45.4609 O.2       10 UNK        -0.5000 
     22 CA         -1.9704  -21.6900  -44.3348 C.3       10 UNK         0.1400 
     23 CB         -1.2646  -21.3739  -43.0083 C.3       10 UNK        -0.1800 
     24 N          -2.5832  -20.4773  -44.8771 N.am      10 UNK        -0.5000 
     25 C          -3.3944  -20.4545  -45.9445 C.2       9 UNK         0.5000 
     26 O          -3.7447  -21.4626  -46.5586 O.2       9 UNK        -0.5000 
     27 CA         -3.8638  -19.0741  -46.4329 C.3       9 UNK         0.1400 
     28 CB         -5.0282  -18.5563  -45.5776 C.3       9 UNK        -0.1800 
     29 N          -2.7949  -18.0758  -46.4568 N.am      9 UNK        -0.5000 
     30 C          -1.6838  -18.1567  -47.2029 C.2       8 UNK         0.5000 
     31 O          -1.4421  -19.0806  -47.9807 O.2       8 UNK        -0.5000 
     32 CA         -0.6318  -17.0532  -46.9831 C.3       8 UNK         0.1400 
     33 CB         -1.0331  -15.7296  -47.6466 C.3       8 UNK        -0.1800 
     34 N          -0.3537  -16.8193  -45.5666 N.am      8 UNK        -0.5000 
     35 C           0.1292  -17.7414  -44.7225 C.2       7 UNK         0.5000 
     36 O           0.4506  -18.8804  -45.0581 O.2       7 UNK        -0.5000 
     37 CA          0.2121  -17.3374  -43.2424 C.3       7 UNK         0.1400 
     38 CB          1.4834  -16.5199  -42.9682 C.3       7 UNK        -0.1800 
     39 N          -0.9720  -16.5855  -42.8233 N.am      7 UNK        -0.5000 
     40 C          -2.1968  -17.1209  -42.7063 C.2       6 UNK         0.5000 
     41 O          -2.4432  -18.3103  -42.9011 O.2       6 UNK        -0.5000 
     42 CA         -3.3473  -16.1605  -42.3550 C.3       6 UNK         0.1400 
     43 CB         -3.4172  -15.9309  -40.8381 C.3       6 UNK        -0.1800 
     44 N          -3.2322  -14.8715  -43.0364 N.am      6 UNK        -0.5000 
     45 C          -3.3182  -14.7012  -44.3636 C.2       5 UNK         0.5000 
     46 O          -3.5526  -15.6126  -45.1560 O.2       5 UNK        -0.5000 
     47 CA         -3.0482  -13.2816  -44.8966 C.3       5 UNK         0.1400 
     48 CB         -4.3534  -12.4762  -44.9729 C.3       5 UNK        -0.1800 
     49 N          -2.0678  -12.5418  -44.0966 N.am      5 UNK        -0.5000 
     50 C          -0.7864  -12.8997  -43.9428 C.2       4 UNK         0.5000 
     51 O          -0.2877  -13.8998  -44.4642 O.2       4 UNK        -0.5000 
     52 CA          0.0668  -12.0143  -43.0185 C.3       4 UNK         0.1400 
     53 CB          0.6932  -12.8419  -41.8845 C.3       4 UNK        -0.1800 
     54 N           1.1270  -11.3447  -43.7647 N.am      4 UNK        -0.5000 
     55 C           0.9423  -10.3153  -44.6024 C.2       3 UNK         0.5000 
     56 O          -0.1521   -9.7856  -44.8001 O.2       3 UNK        -0.5000 
     57 CA          2.1886   -9.7711  -45.3303 C.3       3 UNK         0.1400 
     58 CB          2.7148   -8.5121  -44.6234 C.3       3 UNK        -0.1800 
     59 N           3.2776  -10.7474  -45.4336 N.am      3 UNK        -0.5000 
     60 C           3.2626  -11.8078  -46.2502 C.2       2 UNK         0.5000 
     61 O           2.3325  -12.0653  -47.0189 O.2       2 UNK        -0.5000 
     62 CA          4.4837  -12.7368  -46.1783 C.3       2 UNK         0.1400 
     63 CB          4.4464  -13.5990  -44.9034 C.3       2 UNK        -0.1800 
     64 N           4.4802  -13.6093  -47.3446 N.am      2 UNK        -0.5000 
     65 C           5.5450  -14.0907  -47.9911 C.2       1 UNK         0.5000 
     66 O           6.7088  -13.8644  -47.6540 O.2       1 UNK        -0.5000 
     67 C          -0.0369  -22.6063  -48.2751 C.2       11 UNK         0.5000 
     68 O           0.3457  -23.6679  -48.7644 O.2       11 UNK        -0.5000 
     69 N          -1.1193  -21.9409  -48.7049 N.am      12 UNK        -0.5000 
     70 CA         -2.0040  -22.4168  -49.7695 C.3       12 UNK         0.1400 
     71 CB         -3.0230  -21.3248  -50.1198 C.3       12 UNK        -0.1800 
     72 C          -2.7012  -23.7427  -49.4081 C.2       12 UNK         0.5000 
     73 O          -2.7422  -24.6518  -50.2379 O.2       12 UNK        -0.5000 
     74 N          -3.1724  -23.8557  -48.1579 N.am      13 UNK        -0.5000 
     75 CA         -3.7396  -25.0822  -47.5977 C.3       13 UNK         0.1400 
     76 CB         -4.3420  -24.7888  -46.2160 C.3       13 UNK        -0.1800 
     77 C          -2.7138  -26.2302  -47.5227 C.2       13 UNK         0.5000 
     78 O          -3.0336  -27.3527  -47.9144 O.2       13 UNK        -0.5000 
     79 N          -1.4880  -25.9274  -47.0688 N.am      14 UNK        -0.5000 
     80 CA         -0.3606  -26.8644  -47.0090 C.3       14 UNK         0.1400 
     81 CB          0.8055  -26.2206  -46.2442 C.3       14 UNK        -0.1800 
     82 C           0.1017  -27.3506  -48.3969 C.2       14 UNK         0.5000 
     83 O           0.5055  -28.5057  -48.5333 O.2       14 UNK        -0.5000 
     84 N          -0.0120  -26.4794  -49.4081 N.am      15 UNK        -0.5000 
     85 CA          0.2227  -26.7756  -50.8233 C.3       15 UNK         0.1400 
     86 CB          0.4789  -25.4552  -51.5696 C.3       15 UNK        -0.1800 
     87 C          -0.9189  -27.5777  -51.4898 C.2       15 UNK         0.5000 
     88 O          -0.8113  -27.8924  -52.6757 O.2       15 UNK        -0.5000 
     89 N          -1.9794  -27.8953  -50.7310 N.am      16 UNK        -0.5000 
     90 CA         -3.1720  -28.6550  -51.1177 C.3       16 UNK         0.1400 
     91 CB         -2.8090  -30.0794  -51.5892 C.3       16 UNK        -0.1800 
     92 C          -4.0968  -27.9059  -52.0986 C.2       16 UNK         0.5000 
     93 O          -4.8743  -28.5423  -52.8132 O.2       16 UNK        -0.5000 
     94 N          -4.0306  -26.5695  -52.0896 N.am      17 UNK        -0.5000 
     95 CA         -4.9995  -25.6848  -52.7300 C.3       17 UNK         0.1400 
     96 CB         -4.2516  -24.4583  -53.2850 C.3       17 UNK        -0.1800 
     97 C          -6.0753  -25.2748  -51.7047 C.2       17 UNK         0.5000 
     98 O          -6.0421  -25.7123  -50.5502 O.2       17 UNK        -0.5000 
     99 N          -7.0144  -24.4233  -52.1346 N.am      18 UNK        -0.5000 
    100 CA        -7.9544  -23.7394  -51.2452 C.3       18 UNK         0.1400 
    101 CB        -9.0124  -23.0158  -52.0920 C.3       18 UNK        -0.1800 
    102 C         -7.2106  -22.7376  -50.3421 C.2       18 UNK         0.5000 
    103 O         -6.2417  -22.1209  -50.7909 O.2       18 UNK        -0.5000 
    104 N         -7.6864  -22.5649  -49.1034 N.am      19 UNK        -0.5000 
    105 CA        -7.0890  -21.7032  -48.0769 C.3       19 UNK         0.1400 
    106 CB        -7.5675  -22.1796  -46.6936 C.3       19 UNK        -0.1800 
    107 C         -7.3535  -20.1970  -48.3099 C.2       19 UNK         0.5000 
    108 O         -7.7648  -19.4875  -47.3908 O.2       19 UNK        -0.5000 
    109 N         -7.1183  -19.7342  -49.5403 N.am      20 UNK        -0.5000 
    110 CA        -7.1131  -18.3295  -49.9301 C.3       20 UNK         0.1400 
    111 CB        -7.5035  -18.2283  -51.4124 C.3       20 UNK        -0.1800 
    112 C         -5.7083  -17.7518  -49.7062 C.2       20 UNK         0.5000 
    113 O         -4.7211  -18.4773  -49.8442 O.2       20 UNK        -0.5000 
    114 N         -5.6295  -16.4520  -49.4013 N.am      21 UNK        -0.5000 
    115 CA        -4.3863  -15.7252  -49.1322 C.3       21 UNK         0.1400 
    116 CB        -4.7217  -14.4542  -48.3325 C.3       21 UNK        -0.1800 
    117 C         -3.5815  -15.4322  -50.4186 C.2       21 UNK         0.5000 
    118 O         -3.4016  -14.2704  -50.7859 O.2       21 UNK        -0.5000 
    119 N         -3.1428  -16.5034  -51.0913 N.am      22 UNK        -0.5000 
    120 CA        -2.4078  -16.5170  -52.3699 C.3       22 UNK         0.1400 
    121 C         -3.2235  -16.0035  -53.5990 C.2       22 UNK         0.5000 
    122 N         -4.5416  -15.8684  -53.5144 N.am      22 UNK        -0.7600 
    123 O         -2.6630  -15.7580  -54.6637 O.2       22 UNK        -0.5000 
    124 C124       -0.9967  -15.8683  -52.2744 C.3       23 UNK        -0.0398 
    125 S125        0.1267  -16.7558  -51.1392 S.3       23 UNK        -0.2404 
    126 C126        1.0165  -17.8205  -52.3150 C.3       23 UNK        -0.0205 
    127 H127        3.7856  -18.4708  -47.8578 H         1 UNK         0.0600 
    128 H128        2.1725  -18.1791  -48.5082 H         1 UNK         0.0600 
    129 H129        2.5569  -17.7145  -46.8402 H         1 UNK         0.0600 
    130 H130        5.2445  -17.0391  -48.6498 H         1 UNK         0.3000 
    131 H131        4.5189  -14.4755  -49.8215 H         1 UNK         0.0600 
    132 H132        7.0434  -14.3898  -50.2496 H         1 UNK         0.0800 
    133 H133        7.1786  -15.9757  -49.5451 H         1 UNK         0.0800 
    134 H134        6.6647  -18.0462  -50.5802 H         1 UNK         0.0800 
    135 H135        6.5043  -18.2677  -52.3005 H         1 UNK         0.0800 
    136 H136        3.5554  -16.8937  -52.3348 H         1 UNK         0.1150 
    137 H137        1.1883  -20.1699  -50.9397 H         1 UNK         0.1150 
    138 H138        5.4128  -20.1322  -50.2151 H         1 UNK         0.1150 
    139 H139        2.2675  -22.1595  -50.1107 H         1 UNK         0.0800 
    140 H140        3.9993  -22.2885  -50.2127 H         1 UNK         0.0800 
    141 H141        1.2877  -20.2822  -48.3082 H         1 UNK         0.0800 
    142 H142        1.9175  -20.2392  -46.6898 H         1 UNK         0.0800 
    143 H143        1.3014  -22.8224  -46.6256 H         1 UNK         0.0600 
    144 H144       -0.1917  -20.5557  -45.8220 H         1 UNK         0.3000 
    145 H145       -2.7723  -22.4017  -44.1285 H         1 UNK         0.0600 
    146 H146       -1.9676  -20.9859  -42.2711 H         1 UNK         0.0600 
    147 H147       -0.8110  -22.2704  -42.5840 H         1 UNK         0.0600 
    148 H148       -0.4736  -20.6352  -43.1380 H         1 UNK         0.0600 
    149 H149       -2.3831  -19.6098  -44.3887 H         1 UNK         0.3000 
    150 H150       -4.2233  -19.2040  -47.4529 H         1 UNK         0.0600 
    151 H151       -5.8220  -19.2999  -45.5025 H         1 UNK         0.0600 
    152 H152       -5.4640  -17.6567  -46.0131 H         1 UNK         0.0600 
    153 H153       -4.7081  -18.3171  -44.5634 H         1 UNK         0.0600 
    154 H154       -2.9272  -17.2611  -45.8628 H         1 UNK         0.3000 
    155 H155        0.2880  -17.3908  -47.4548 H         1 UNK         0.0600 
    156 H156       -1.9330  -15.3081  -47.2040 H         1 UNK         0.0600 
    157 H157       -1.2208  -15.8700  -48.7095 H         1 UNK         0.0600 
    158 H158       -0.2378  -14.9892  -47.5552 H         1 UNK         0.0600 
    159 H159       -0.5544  -15.8932  -45.2067 H         1 UNK         0.3000 
    160 H160        0.2630  -18.2507  -42.6457 H         1 UNK         0.0600 
    161 H161        1.5267  -15.6178  -43.5784 H         1 UNK         0.0600 
    162 H162        2.3751  -17.1057  -43.1948 H         1 UNK         0.0600 
    163 H163        1.5463  -16.2236  -41.9211 H         1 UNK         0.0600 
    164 H164       -0.8604  -15.5896  -42.7061 H         1 UNK         0.3000 
    165 H165       -4.2810  -16.6287  -42.6734 H         1 UNK         0.0600 
    166 H166       -4.2762  -15.3147  -40.5719 H         1 UNK         0.0600 
    167 H167       -3.5202  -16.8772  -40.3052 H         1 UNK         0.0600 
    168 H168       -2.5200  -15.4380  -40.4616 H         1 UNK         0.0600 
    169 H169       -3.0442  -14.0647  -42.4602 H         1 UNK         0.3000 
    170 H170       -2.6471  -13.3789  -45.9070 H         1 UNK         0.0600 
    171 H171       -5.1025  -12.9983  -45.5693 H         1 UNK         0.0600 
    172 H172       -4.7819  -12.3079  -43.9841 H         1 UNK         0.0600 
    173 H173       -4.1899  -11.5043  -45.4388 H         1 UNK         0.0600 
    174 H174       -2.3951  -11.6949  -43.6541 H         1 UNK         0.3000 
    175 H175       -0.5722  -11.2546  -42.5631 H         1 UNK         0.0600 
    176 H176        1.4112  -13.5695  -42.2632 H         1 UNK         0.0600 
    177 H177        1.2145  -12.2008  -41.1736 H         1 UNK         0.0600 
    178 H178       -0.0696  -13.3888  -41.3288 H         1 UNK         0.0600 
    179 H179        2.0525  -11.7374  -43.6872 H         1 UNK         0.3000 
    180 H180        1.8806   -9.4895  -46.3396 H         1 UNK         0.0600 
    181 H181        3.0510   -8.7304  -43.6090 H         1 UNK         0.0600 
    182 H182        1.9383   -7.7491  -44.5544 H         1 UNK         0.0600 
    183 H183        3.5509   -8.0735  -45.1684 H         1 UNK         0.0600 
    184 H184        4.0771  -10.5957  -44.8350 H         1 UNK         0.3000 
    185 H185        5.3844  -12.1194  -46.1817 H         1 UNK         0.0600 
    186 H186        5.3053  -14.2686  -44.8553 H         1 UNK         0.0600 
    187 H187        4.4692  -12.9805  -44.0056 H         1 UNK         0.0600 
    188 H188        3.5439  -14.2107  -44.8600 H         1 UNK         0.0600 
    189 H189        3.5541  -13.8536  -47.6876 H         1 UNK         0.3000 
    190 H190       -1.3564  -21.0496  -48.2780 H         1 UNK         0.3000 
    191 H191       -1.3881  -22.5960  -50.6529 H         1 UNK         0.0600 
    192 H192       -3.7010  -21.1194  -49.2909 H         1 UNK         0.0600 
    193 H193       -3.6301  -21.6217  -50.9750 H         1 UNK         0.0600 
    194 H194       -2.5286  -20.3894  -50.3831 H         1 UNK         0.0600 
    195 H195       -3.1383  -23.0454  -47.5460 H         1 UNK         0.3000 
    196 H196       -4.5487  -25.4016  -48.2575 H         1 UNK         0.0600 
    197 H197       -4.8258  -25.6756  -45.8053 H         1 UNK         0.0600 
    198 H198       -5.0943  -24.0031  -46.2743 H         1 UNK         0.0600 
    199 H199       -3.5829  -24.4681  -45.5028 H         1 UNK         0.0600 
    200 H200       -1.3157  -24.9904  -46.7132 H         1 UNK         0.3000 
    201 H201       -0.6900  -27.7410  -46.4476 H         1 UNK         0.0600 
    202 H202        0.5081  -25.9415  -45.2333 H         1 UNK         0.0600 
    203 H203        1.1696  -25.3240  -46.7458 H         1 UNK         0.0600 
    204 H204        1.6448  -26.9116  -46.1572 H         1 UNK         0.0600 
    205 H205       -0.2776  -25.5239  -49.1898 H         1 UNK         0.3000 
    206 H206        1.1257  -27.3844  -50.8993 H         1 UNK         0.0600 
    207 H207        1.3129  -24.9084  -51.1292 H         1 UNK         0.0600 
    208 H208        0.7274  -25.6356  -52.6160 H         1 UNK         0.0600 
    209 H209       -0.3955  -24.8051  -51.5482 H         1 UNK         0.0600 
    210 H210       -1.9885  -27.5610  -49.7747 H         1 UNK         0.3000 
    211 H211       -3.7539  -28.7629  -50.2016 H         1 UNK         0.0600 
    212 H212       -2.3071  -30.0731  -52.5569 H         1 UNK         0.0600 
    213 H213       -3.7028  -30.6957  -51.6923 H         1 UNK         0.0600 
    214 H214       -2.1550  -30.5773  -50.8733 H         1 UNK         0.0600 
    215 H215       -3.4167  -26.1172  -51.4180 H         1 UNK         0.3000 
    216 H216       -5.4922  -26.1961  -53.5594 H         1 UNK         0.0600 
    217 H217       -4.9074  -23.8383  -53.8966 H         1 UNK         0.0600 
    218 H218       -3.4145  -24.7588  -53.9155 H         1 UNK         0.0600 
    219 H219       -3.8591  -23.8269  -52.4877 H         1 UNK         0.0600 
    220 H220       -6.9698  -24.0840  -53.0839 H         1 UNK         0.3000 
    221 H221       -8.4510  -24.4851  -50.6208 H         1 UNK         0.0600 
    222 H222       -8.5638  -22.2585  -52.7366 H         1 UNK         0.0600 
    223 H223       -9.5581  -23.7159  -52.7250 H         1 UNK         0.0600 
    224 H224       -9.7440  -22.5139  -51.4575 H         1 UNK         0.0600 
    225 H225       -8.5132  -23.0736  -48.8253 H         1 UNK         0.3000 
    226 H226       -6.0057  -21.8389  -48.1109 H         1 UNK         0.0600 
    227 H227       -7.3631  -23.2399  -46.5466 H         1 UNK         0.0600 
    228 H228       -7.0552  -21.6394  -45.8963 H         1 UNK         0.0600 
    229 H229       -8.6392  -22.0248  -46.5634 H         1 UNK         0.0600 
    230 H230       -6.7174  -20.3882  -50.2076 H         1 UNK         0.3000 
    231 H231       -7.8368  -17.7721  -49.3317 H         1 UNK         0.0600 
    232 H232       -8.4933  -18.6503  -51.5877 H         1 UNK         0.0600 
    233 H233       -6.7964  -18.7583  -52.0524 H         1 UNK         0.0600 
    234 H234       -7.5306  -17.1887  -51.7409 H         1 UNK         0.0600 
    235 H235       -6.4802  -15.9109  -49.3433 H         1 UNK         0.3000 
    236 H236       -3.7592  -16.3520  -48.4976 H         1 UNK         0.0600 
    237 H237       -3.8196  -13.8883  -48.0979 H         1 UNK         0.0600 
    238 H238       -5.3902  -13.7930  -48.8850 H         1 UNK         0.0600 
    239 H239       -5.2010  -14.7047  -47.3861 H         1 UNK         0.0600 
    240 H240       -3.4067  -17.4144  -50.7243 H         1 UNK         0.3000 
    241 H241       -2.2534  -17.5737  -52.5904 H         1 UNK         0.0600 
    242 H242       -5.0589  -15.5484  -54.3181 H         1 UNK         0.3800 
    243 H243       -5.0216  -16.0661  -52.6527 H         1 UNK         0.3800 
    244 H244       -1.0739  -14.8330  -51.9413 H         1 UNK         0.0800 
    245 H245       -0.5202  -15.8204  -53.2542 H         1 UNK         0.0800 
    246 H246        1.3180  -17.2374  -53.1863 H         1 UNK         0.0800 
    247 H247        0.3404  -18.5941  -52.6824 H         1 UNK         0.0800 
@<TRIPOS>BOND
     1    1    2 1    
     2    1  127 1    
     3    1  128 1    
     4    1  129 1    
     5    2    3 2    
     6    2    4 am   BACKBONE|DICT|INTERRES
     7    4    5 1    
     8    4  130 1    
     9    5    6 1    
    10    5   65 1    
    11    5  131 1    
    12    6    7 1    
    13    6  132 1    
    14    6  133 1    
    15    7    8 1    
    16    8    9 1    
    17    8  134 1    
    18    8  135 1    
    19    9   10 ar   
    20    9   14 ar   
    21   10   11 ar   
    22   10  136 1    
    23   11   12 ar   
    24   11  126 1    
    25   12   13 ar   
    26   12  137 1    
    27   13   14 ar   
    28   13   15 1    
    29   14  138 1    
    30   15   16 1    
    31   15  139 1    
    32   15  140 1    
    33   16   17 1    
    34   17   18 1    
    35   17  141 1    
    36   17  142 1    
    37   18   19 1    
    38   18   67 1    
    39   18  143 1    
    40   19   20 am   BACKBONE|DICT|INTERRES
    41   19  144 1    
    42   20   21 2    
    43   20   22 1    
    44   22   23 1    
    45   22   24 1    
    46   22  145 1    
    47   23  146 1    
    48   23  147 1    
    49   23  148 1    
    50   24   25 am   BACKBONE|DICT|INTERRES
    51   24  149 1    
    52   25   26 2    
    53   25   27 1    
    54   27   28 1    
    55   27   29 1    
    56   27  150 1    
    57   28  151 1    
    58   28  152 1    
    59   28  153 1    
    60   29   30 am   BACKBONE|DICT|INTERRES
    61   29  154 1    
    62   30   31 2    
    63   30   32 1    
    64   32   33 1    
    65   32   34 1    
    66   32  155 1    
    67   33  156 1    
    68   33  157 1    
    69   33  158 1    
    70   34   35 am   BACKBONE|DICT|INTERRES
    71   34  159 1    
    72   35   36 2    
    73   35   37 1    
    74   37   38 1    
    75   37   39 1    
    76   37  160 1    
    77   38  161 1    
    78   38  162 1    
    79   38  163 1    
    80   39   40 am   BACKBONE|DICT|INTERRES
    81   39  164 1    
    82   40   41 2    
    83   40   42 1    
    84   42   43 1    
    85   42   44 1    
    86   42  165 1    
    87   43  166 1    
    88   43  167 1    
    89   43  168 1    
    90   44   45 am   BACKBONE|DICT|INTERRES
    91   44  169 1    
    92   45   46 2    
    93   45   47 1    
    94   47   48 1    
    95   47   49 1    
    96   47  170 1    
    97   48  171 1    
    98   48  172 1    
    99   48  173 1    
   100   49   50 am   BACKBONE|DICT|INTERRES
   101   49  174 1    
   102   50   51 2    
   103   50   52 1    
   104   52   53 1    
   105   52   54 1    
   106   52  175 1    
   107   53  176 1    
   108   53  177 1    
   109   53  178 1    
   110   54   55 am   BACKBONE|DICT|INTERRES
   111   54  179 1    
   112   55   56 2    
   113   55   57 1    
   114   57   58 1    
   115   57   59 1    
   116   57  180 1    
   117   58  181 1    
   118   58  182 1    
   119   58  183 1    
   120   59   60 am   BACKBONE|DICT|INTERRES
   121   59  184 1    
   122   60   61 2    
   123   60   62 1    
   124   62   63 1    
   125   62   64 1    
   126   62  185 1    
   127   63  186 1    
   128   63  187 1    
   129   63  188 1    
   130   64   65 am   BACKBONE|DICT|INTERRES
   131   64  189 1    
   132   65   66 2    
   133   67   68 2    
   134   67   69 am   BACKBONE|DICT|INTERRES
   135   69   70 1    
   136   69  190 1    
   137   70   71 1    
   138   70   72 1    
   139   70  191 1    
   140   71  192 1    
   141   71  193 1    
   142   71  194 1    
   143   72   73 2    
   144   72   74 am   BACKBONE|DICT|INTERRES
   145   74   75 1    
   146   74  195 1    
   147   75   76 1    
   148   75   77 1    
   149   75  196 1    
   150   76  197 1    
   151   76  198 1    
   152   76  199 1    
   153   77   78 2    
   154   77   79 am   BACKBONE|DICT|INTERRES
   155   79   80 1    
   156   79  200 1    
   157   80   81 1    
   158   80   82 1    
   159   80  201 1    
   160   81  202 1    
   161   81  203 1    
   162   81  204 1    
   163   82   83 2    
   164   82   84 am   BACKBONE|DICT|INTERRES
   165   84   85 1    
   166   84  205 1    
   167   85   86 1    
   168   85   87 1    
   169   85  206 1    
   170   86  207 1    
   171   86  208 1    
   172   86  209 1    
   173   87   88 2    
   174   87   89 am   BACKBONE|DICT|INTERRES
   175   89   90 1    
   176   89  210 1    
   177   90   91 1    
   178   90   92 1    
   179   90  211 1    
   180   91  212 1    
   181   91  213 1    
   182   91  214 1    
   183   92   93 2    
   184   92   94 am   BACKBONE|DICT|INTERRES
   185   94   95 1    
   186   94  215 1    
   187   95   96 1    
   188   95   97 1    
   189   95  216 1    
   190   96  217 1    
   191   96  218 1    
   192   96  219 1    
   193   97   98 2    
   194   97   99 am   BACKBONE|DICT|INTERRES
   195   99  100 1    
   196   99  220 1    
   197  100  101 1    
   198  100  102 1    
   199  100  221 1    
   200  101  222 1    
   201  101  223 1    
   202  101  224 1    
   203  102  103 2    
   204  102  104 am   BACKBONE|DICT|INTERRES
   205  104  105 1    
   206  104  225 1    
   207  105  106 1    
   208  105  107 1    
   209  105  226 1    
   210  106  227 1    
   211  106  228 1    
   212  106  229 1    
   213  107  108 2    
   214  107  109 am   BACKBONE|DICT|INTERRES
   215  109  110 1    
   216  109  230 1    
   217  110  111 1    
   218  110  112 1    
   219  110  231 1    
   220  111  232 1    
   221  111  233 1    
   222  111  234 1    
   223  112  113 2    
   224  112  114 am   BACKBONE|DICT|INTERRES
   225  114  115 1    
   226  114  235 1    
   227  115  116 1    
   228  115  117 1    
   229  115  236 1    
   230  116  237 1    
   231  116  238 1    
   232  116  239 1    
   233  117  118 2    
   234  117  119 am   BACKBONE|DICT|INTERRES
   235  119  120 1    
   236  119  240 1    
   237  120  121 1    
   238  120  124 1    
   239  120  241 1    
   240  121  122 am   BACKBONE|DICT|INTERRES
   241  121  123 2    
   242  122  242 1    
   243  122  243 1    
   244  124  125 1    
   245  124  244 1    
   246  124  245 1    
   247  125  126 1    
   248  126  246 1    
   249  126  247 1    
@<TRIPOS>SUBSTRUCTURE
     1 UNK         1 GROUP             0       ****    0 ROOT    
