@<TRIPOS>MOLECULE
3R540
247   249    1
SMALL
USER_CHARGES


@<TRIPOS>ATOM
      1 CA         -1.6076  -10.2472  -49.7058 C.3       0 UNK        -0.1800 
      2 C          -0.1704  -10.7161  -49.8834 C.2       0 UNK         0.5000 
      3 O           0.7573   -9.9206  -49.7324 O.2       0 UNK        -0.5000 
      4 N           0.0148  -12.0014  -50.2089 N.am      1 UNK        -0.5000 
      5 CA          1.3191  -12.6608  -50.3238 C.3       1 UNK         0.1400 
      6 C6          1.1800  -14.0301  -51.0268 C.3       23 UNK        -0.0398 
      7 S7          2.7308  -14.6083  -51.7879 S.3       23 UNK        -0.2404 
      8 C8          3.1364  -16.0406  -50.7416 C.3       23 UNK        -0.0205 
      9 C9          2.2440  -17.2501  -50.9967 C.ar      23 UNK        -0.0193 
     10 C10         2.2745  -17.8972  -52.2352 C.ar      23 UNK        -0.1150 
     11 C11         1.5381  -19.0663  -52.4468 C.ar      23 UNK        -0.0193 
     12 C12         0.7675  -19.5912  -51.4043 C.ar      23 UNK        -0.1150 
     13 C13         0.7181  -18.9505  -50.1613 C.ar      23 UNK        -0.0193 
     14 C14         1.4510  -17.7745  -49.9709 C.ar      23 UNK        -0.1150 
     15 C15        -0.0466  -19.5665  -48.9944 C.3       23 UNK        -0.0205 
     16 S16        -1.7788  -19.9789  -49.3931 S.3       23 UNK        -0.2404 
     17 C17        -2.3603  -20.5686  -47.7681 C.3       23 UNK        -0.0398 
     18 CA         -1.6605  -21.8850  -47.3257 C.3       11 UNK         0.1400 
     19 N          -0.7765  -21.6672  -46.1770 N.am      11 UNK        -0.5000 
     20 C           0.2210  -22.4839  -45.8128 C.2       10 UNK         0.5000 
     21 O           0.5214  -23.5078  -46.4230 O.2       10 UNK        -0.5000 
     22 CA          0.9711  -22.1195  -44.5187 C.3       10 UNK         0.1400 
     23 CB          2.0363  -21.0477  -44.7972 C.3       10 UNK        -0.1800 
     24 N           0.0635  -21.6532  -43.4681 N.am      10 UNK        -0.5000 
     25 C          -0.8690  -22.4264  -42.8884 C.2       9 UNK         0.5000 
     26 O          -0.9959  -23.6252  -43.1319 O.2       9 UNK        -0.5000 
     27 CA         -1.8618  -21.7580  -41.9152 C.3       9 UNK         0.1400 
     28 CB         -1.3784  -21.9214  -40.4669 C.3       9 UNK        -0.1800 
     29 N          -2.0935  -20.3397  -42.1810 N.am      9 UNK        -0.5000 
     30 C          -2.5153  -19.8029  -43.3353 C.2       8 UNK         0.5000 
     31 O          -2.8656  -20.4672  -44.3123 O.2       8 UNK        -0.5000 
     32 CA         -2.4572  -18.2636  -43.4348 C.3       8 UNK         0.1400 
     33 CB         -3.8509  -17.6561  -43.2238 C.3       8 UNK        -0.1800 
     34 N          -1.5110  -17.6448  -42.4945 N.am      8 UNK        -0.5000 
     35 C          -0.1925  -17.8847  -42.4646 C.2       7 UNK         0.5000 
     36 O           0.3719  -18.6554  -43.2423 O.2       7 UNK        -0.5000 
     37 CA          0.6091  -17.2063  -41.3477 C.3       7 UNK         0.1400 
     38 CB          1.5578  -18.2038  -40.6537 C.3       7 UNK        -0.1800 
     39 N           1.3638  -16.0872  -41.8979 N.am      7 UNK        -0.5000 
     40 C           1.8203  -15.0559  -41.1755 C.2       6 UNK         0.5000 
     41 O           1.6482  -14.9432  -39.9606 O.2       6 UNK        -0.5000 
     42 CA          2.5846  -13.9539  -41.9304 C.3       6 UNK         0.1400 
     43 CB          3.9957  -14.4263  -42.3142 C.3       6 UNK        -0.1800 
     44 N           1.8723  -13.4950  -43.1216 N.am      6 UNK        -0.5000 
     45 C           0.7262  -12.7986  -43.1037 C.2       5 UNK         0.5000 
     46 O           0.1753  -12.4106  -42.0727 O.2       5 UNK        -0.5000 
     47 CA          0.0729  -12.5004  -44.4665 C.3       5 UNK         0.1400 
     48 CB          0.6885  -11.2500  -45.1132 C.3       5 UNK        -0.1800 
     49 N           0.1830  -13.6266  -45.3905 N.am      5 UNK        -0.5000 
     50 C          -0.4314  -14.8066  -45.2342 C.2       4 UNK         0.5000 
     51 O          -1.2371  -15.0461  -44.3360 O.2       4 UNK        -0.5000 
     52 CA         -0.0609  -15.9114  -46.2387 C.3       4 UNK         0.1400 
     53 CB         -0.9322  -15.8084  -47.5009 C.3       4 UNK        -0.1800 
     54 N           1.3566  -15.8690  -46.6073 N.am      4 UNK        -0.5000 
     55 C           2.3584  -16.2139  -45.7847 C.2       3 UNK         0.5000 
     56 O           2.1908  -16.6055  -44.6318 O.2       3 UNK        -0.5000 
     57 CA          3.7931  -16.0497  -46.3192 C.3       3 UNK         0.1400 
     58 CB          4.2231  -17.2830  -47.1277 C.3       3 UNK        -0.1800 
     59 N           3.9675  -14.8380  -47.1231 N.am      3 UNK        -0.5000 
     60 C           3.9018  -13.5982  -46.6192 C.2       2 UNK         0.5000 
     61 O           3.6861  -13.3548  -45.4327 O.2       2 UNK        -0.5000 
     62 CA          4.0609  -12.4331  -47.6124 C.3       2 UNK         0.1400 
     63 CB          5.5422  -12.2140  -47.9551 C.3       2 UNK        -0.1800 
     64 N           3.2898  -12.5670  -48.8537 N.am      2 UNK        -0.5000 
     65 C           1.9708  -12.7918  -48.9317 C.2       1 UNK         0.5000 
     66 O           1.2674  -13.0939  -47.9660 O.2       1 UNK        -0.5000 
     67 C          -2.6609  -23.0269  -47.0547 C.2       11 UNK         0.5000 
     68 O          -2.9823  -23.7859  -47.9735 O.2       11 UNK        -0.5000 
     69 N          -3.1048  -23.1591  -45.7955 N.am      12 UNK        -0.5000 
     70 CA         -3.9229  -24.2773  -45.3239 C.3       12 UNK         0.1400 
     71 CB         -4.4241  -24.0099  -43.8982 C.3       12 UNK        -0.1800 
     72 C          -3.1725  -25.6193  -45.4116 C.2       12 UNK         0.5000 
     73 O          -3.7258  -26.5910  -45.9246 O.2       12 UNK        -0.5000 
     74 N          -1.9121  -25.6364  -44.9594 N.am      13 UNK        -0.5000 
     75 CA         -1.0192  -26.7910  -45.0489 C.3       13 UNK         0.1400 
     76 CB          0.2487  -26.5210  -44.2244 C.3       13 UNK        -0.1800 
     77 C          -0.6567  -27.1586  -46.5000 C.2       13 UNK         0.5000 
     78 O          -0.6051  -28.3451  -46.8265 O.2       13 UNK        -0.5000 
     79 N          -0.4118  -26.1418  -47.3383 N.am      14 UNK        -0.5000 
     80 CA         -0.0232  -26.3050  -48.7371 C.3       14 UNK         0.1400 
     81 CB          0.5155  -24.9757  -49.2895 C.3       14 UNK        -0.1800 
     82 C          -1.1545  -26.8339  -49.6340 C.2       14 UNK         0.5000 
     83 O          -0.9144  -27.7598  -50.4109 O.2       14 UNK        -0.5000 
     84 N          -2.3449  -26.2222  -49.5507 N.am      15 UNK        -0.5000 
     85 CA         -3.4136  -26.4337  -50.5307 C.3       15 UNK         0.1400 
     86 CB         -3.1318  -25.5706  -51.7795 C.3       15 UNK        -0.1800 
     87 C          -4.8192  -26.1744  -49.9633 C.2       15 UNK         0.5000 
     88 O          -5.7125  -25.8105  -50.7285 O.2       15 UNK        -0.5000 
     89 N          -5.0119  -26.3216  -48.6425 N.am      16 UNK        -0.5000 
     90 CA         -6.2832  -26.1010  -47.9279 C.3       16 UNK         0.1400 
     91 CB         -7.3149  -27.1812  -48.3159 C.3       16 UNK        -0.1800 
     92 C          -6.8411  -24.6667  -48.0878 C.2       16 UNK         0.5000 
     93 O          -8.0522  -24.4619  -48.0012 O.2       16 UNK        -0.5000 
     94 N          -5.9370  -23.7108  -48.3544 N.am      17 UNK        -0.5000 
     95 CA         -6.1698  -22.3060  -48.6984 C.3       17 UNK         0.1400 
     96 CB         -6.8485  -21.5504  -47.5391 C.3       17 UNK        -0.1800 
     97 C          -6.8774  -22.0828  -50.0534 C.2       17 UNK         0.5000 
     98 O          -7.1806  -20.9360  -50.3862 O.2       17 UNK        -0.5000 
     99 N          -7.0682  -23.1452  -50.8531 N.am      18 UNK        -0.5000 
    100 CA        -7.6775  -23.0918  -52.1872 C.3       18 UNK         0.1400 
    101 CB        -8.0429  -24.5132  -52.6408 C.3       18 UNK        -0.1800 
    102 C         -6.7803  -22.4008  -53.2327 C.2       18 UNK         0.5000 
    103 O         -7.2812  -21.9606  -54.2678 O.2       18 UNK        -0.5000 
    104 N         -5.4798  -22.2858  -52.9261 N.am      19 UNK        -0.5000 
    105 CA        -4.4988  -21.4999  -53.6731 C.3       19 UNK         0.1400 
    106 CB        -3.0943  -21.8160  -53.1346 C.3       19 UNK        -0.1800 
    107 C         -4.7595  -19.9809  -53.6170 C.2       19 UNK         0.5000 
    108 O         -4.2685  -19.2647  -54.4888 O.2       19 UNK        -0.5000 
    109 N         -5.5040  -19.5147  -52.5981 N.am      20 UNK        -0.5000 
    110 CA        -5.9206  -18.1247  -52.3676 C.3       20 UNK         0.1400 
    111 CB        -6.9899  -17.7148  -53.4008 C.3       20 UNK        -0.1800 
    112 C         -4.7340  -17.1384  -52.3070 C.2       20 UNK         0.5000 
    113 O         -4.7945  -16.0528  -52.8880 O.2       20 UNK        -0.5000 
    114 N         -3.6515  -17.5720  -51.6422 N.am      21 UNK        -0.5000 
    115 CA        -2.3539  -16.8944  -51.5221 C.3       21 UNK         0.1400 
    116 CB        -2.4994  -15.5658  -50.7508 C.3       21 UNK        -0.1800 
    117 C         -1.6043  -16.7264  -52.8631 C.2       21 UNK         0.5000 
    118 O         -0.6783  -15.9216  -52.9383 O.2       21 UNK        -0.5000 
    119 N         -2.0088  -17.4784  -53.8965 N.am      22 UNK        -0.5000 
    120 CA        -1.4392  -17.4723  -55.2541 C.3       22 UNK         0.1400 
    121 C         -1.6106  -16.1260  -56.0243 C.2       22 UNK         0.5000 
    122 N         -2.5480  -15.2654  -55.6431 N.am      22 UNK        -0.7600 
    123 O         -0.9142  -15.8674  -57.0026 O.2       22 UNK        -0.5000 
    124 C124        0.0098  -18.0342  -55.3025 C.3       23 UNK        -0.0398 
    125 S125        0.0804  -19.7657  -54.7232 S.3       23 UNK        -0.2404 
    126 C126        1.6341  -19.8007  -53.7770 C.3       23 UNK        -0.0205 
    127 H127       -2.3221  -11.0510  -49.8854 H         1 UNK         0.0600 
    128 H128       -1.8268   -9.4359  -50.4000 H         1 UNK         0.0600 
    129 H129       -1.7583   -9.8795  -48.6907 H         1 UNK         0.0600 
    130 H130       -0.7899  -12.6047  -50.2913 H         1 UNK         0.3000 
    131 H131        1.9471  -12.0159  -50.9426 H         1 UNK         0.0600 
    132 H132        0.7726  -14.7894  -50.3578 H         1 UNK         0.0800 
    133 H133        0.4654  -13.9374  -51.8444 H         1 UNK         0.0800 
    134 H134        4.1718  -16.3273  -50.9306 H         1 UNK         0.0800 
    135 H135        3.0902  -15.7373  -49.6969 H         1 UNK         0.0800 
    136 H136        2.8953  -17.5004  -53.0261 H         1 UNK         0.1150 
    137 H137        0.2204  -20.5112  -51.5565 H         1 UNK         0.1150 
    138 H138        1.4396  -17.2926  -49.0056 H         1 UNK         0.1150 
    139 H139        0.4800  -20.4712  -48.6891 H         1 UNK         0.0800 
    140 H140       -0.0329  -18.9009  -48.1304 H         1 UNK         0.0800 
    141 H141       -2.2085  -19.7701  -47.0399 H         1 UNK         0.0800 
    142 H142       -3.4434  -20.6783  -47.8335 H         1 UNK         0.0800 
    143 H143       -1.0366  -22.2452  -48.1454 H         1 UNK         0.0600 
    144 H144       -1.0094  -20.8934  -45.5700 H         1 UNK         0.3000 
    145 H145        1.4756  -23.0183  -44.1576 H         1 UNK         0.0600 
    146 H146        2.5900  -20.7968  -43.8923 H         1 UNK         0.0600 
    147 H147        2.7586  -21.3985  -45.5353 H         1 UNK         0.0600 
    148 H148        1.5950  -20.1276  -45.1828 H         1 UNK         0.0600 
    149 H149        0.1099  -20.6653  -43.2378 H         1 UNK         0.3000 
    150 H150       -2.8213  -22.2660  -42.0143 H         1 UNK         0.0600 
    151 H151       -1.2242  -22.9735  -40.2232 H         1 UNK         0.0600 
    152 H152       -2.1093  -21.5298  -39.7592 H         1 UNK         0.0600 
    153 H153       -0.4336  -21.4032  -40.2974 H         1 UNK         0.0600 
    154 H154       -1.8331  -19.7024  -41.4437 H         1 UNK         0.3000 
    155 H155       -2.1271  -18.0180  -44.4459 H         1 UNK         0.0600 
    156 H156       -3.8373  -16.5777  -43.3844 H         1 UNK         0.0600 
    157 H157       -4.2236  -17.8430  -42.2160 H         1 UNK         0.0600 
    158 H158       -4.5718  -18.0785  -43.9252 H         1 UNK         0.0600 
    159 H159       -1.9017  -16.9809  -41.8415 H         1 UNK         0.3000 
    160 H160       -0.0964  -16.8302  -40.6036 H         1 UNK         0.0600 
    161 H161        2.3332  -18.5592  -41.3337 H         1 UNK         0.0600 
    162 H162        1.0122  -19.0761  -40.2921 H         1 UNK         0.0600 
    163 H163        2.0511  -17.7518  -39.7932 H         1 UNK         0.0600 
    164 H164        1.5640  -16.1409  -42.8955 H         1 UNK         0.3000 
    165 H165        2.6917  -13.1021  -41.2555 H         1 UNK         0.0600 
    166 H166        3.9674  -15.2541  -43.0226 H         1 UNK         0.0600 
    167 H167        4.5709  -13.6188  -42.7674 H         1 UNK         0.0600 
    168 H168        4.5466  -14.7645  -41.4358 H         1 UNK         0.0600 
    169 H169        2.2991  -13.7098  -44.0167 H         1 UNK         0.3000 
    170 H170       -0.9880  -12.3075  -44.2944 H         1 UNK         0.0600 
    171 H171        0.5877  -10.3827  -44.4597 H         1 UNK         0.0600 
    172 H172        1.7503  -11.3844  -45.3204 H         1 UNK         0.0600 
    173 H173        0.1940  -11.0092  -46.0547 H         1 UNK         0.0600 
    174 H174        0.7695  -13.4900  -46.2101 H         1 UNK         0.3000 
    175 H175       -0.2609  -16.8746  -45.7639 H         1 UNK         0.0600 
    176 H176       -1.9913  -15.8616  -47.2458 H         1 UNK         0.0600 
    177 H177       -0.7716  -14.8674  -48.0275 H         1 UNK         0.0600 
    178 H178       -0.7305  -16.6202  -48.1976 H         1 UNK         0.0600 
    179 H179        1.5823  -15.4397  -47.4916 H         1 UNK         0.3000 
    180 H180        4.4562  -15.9738  -45.4546 H         1 UNK         0.0600 
    181 H181        3.6137  -17.4224  -48.0190 H         1 UNK         0.0600 
    182 H182        4.1334  -18.1900  -46.5280 H         1 UNK         0.0600 
    183 H183        5.2640  -17.2050  -47.4420 H         1 UNK         0.0600 
    184 H184        4.1678  -14.9522  -48.1045 H         1 UNK         0.3000 
    185 H185        3.6970  -11.5346  -47.1100 H         1 UNK         0.0600 
    186 H186        5.6804  -11.3102  -48.5489 H         1 UNK         0.0600 
    187 H187        6.1407  -12.0997  -47.0501 H         1 UNK         0.0600 
    188 H188        5.9547  -13.0520  -48.5183 H         1 UNK         0.0600 
    189 H189        3.7894  -12.3527  -49.7049 H         1 UNK         0.3000 
    190 H190       -2.8378  -22.4599  -45.1130 H         1 UNK         0.3000 
    191 H191       -4.7982  -24.3366  -45.9679 H         1 UNK         0.0600 
    192 H192       -5.1843  -24.7394  -43.6165 H         1 UNK         0.0600 
    193 H193       -4.8739  -23.0204  -43.8118 H         1 UNK         0.0600 
    194 H194       -3.6227  -24.0852  -43.1652 H         1 UNK         0.0600 
    195 H195       -1.5428  -24.8122  -44.4923 H         1 UNK         0.3000 
    196 H196       -1.5337  -27.6475  -44.6083 H         1 UNK         0.0600 
    197 H197        0.9288  -27.3729  -44.2613 H         1 UNK         0.0600 
    198 H198        0.0061  -26.3432  -43.1766 H         1 UNK         0.0600 
    199 H199        0.7911  -25.6498  -44.5934 H         1 UNK         0.0600 
    200 H200       -0.3962  -25.1963  -46.9703 H         1 UNK         0.3000 
    201 H201        0.7921  -27.0310  -48.7734 H         1 UNK         0.0600 
    202 H202        1.3913  -24.6427  -48.7326 H         1 UNK         0.0600 
    203 H203       -0.2343  -24.1863  -49.2425 H         1 UNK         0.0600 
    204 H204        0.8168  -25.0788  -50.3327 H         1 UNK         0.0600 
    205 H205       -2.4721  -25.4532  -48.8983 H         1 UNK         0.3000 
    206 H206       -3.4201  -27.4823  -50.8346 H         1 UNK         0.0600 
    207 H207       -2.1643  -25.8085  -52.2213 H         1 UNK         0.0600 
    208 H208       -3.8813  -25.7293  -52.5560 H         1 UNK         0.0600 
    209 H209       -3.1329  -24.5095  -51.5294 H         1 UNK         0.0600 
    210 H210       -4.2341  -26.6078  -48.0591 H         1 UNK         0.3000 
    211 H211       -6.0791  -26.2249  -46.8653 H         1 UNK         0.0600 
    212 H212       -7.6431  -27.0778  -49.3507 H         1 UNK         0.0600 
    213 H213       -8.2025  -27.1202  -47.6852 H         1 UNK         0.0600 
    214 H214       -6.9014  -28.1822  -48.1934 H         1 UNK         0.0600 
    215 H215       -4.9635  -23.9957  -48.3914 H         1 UNK         0.3000 
    216 H216       -5.1771  -21.8758  -48.8270 H         1 UNK         0.0600 
    217 H217       -6.3059  -21.6954  -46.6046 H         1 UNK         0.0600 
    218 H218       -6.8755  -20.4777  -47.7336 H         1 UNK         0.0600 
    219 H219       -7.8768  -21.8783  -47.3864 H         1 UNK         0.0600 
    220 H220       -6.7451  -24.0581  -50.5489 H         1 UNK         0.3000 
    221 H221       -8.5998  -22.5122  -52.1118 H         1 UNK         0.0600 
    222 H222       -7.1552  -25.1209  -52.8177 H         1 UNK         0.0600 
    223 H223       -8.6568  -25.0219  -51.8973 H         1 UNK         0.0600 
    224 H224       -8.6107  -24.4895  -53.5717 H         1 UNK         0.0600 
    225 H225       -5.1627  -22.7103  -52.0679 H         1 UNK         0.3000 
    226 H226       -4.5440  -21.8021  -54.7214 H         1 UNK         0.0600 
    227 H227       -2.8414  -22.8649  -53.2869 H         1 UNK         0.0600 
    228 H228       -2.3358  -21.2269  -53.6508 H         1 UNK         0.0600 
    229 H229       -3.0083  -21.5967  -52.0695 H         1 UNK         0.0600 
    230 H230       -5.8769  -20.1837  -51.9350 H         1 UNK         0.3000 
    231 H231       -6.3875  -18.1023  -51.3818 H         1 UNK         0.0600 
    232 H232       -7.3964  -16.7283  -53.1747 H         1 UNK         0.0600 
    233 H233       -7.8243  -18.4164  -53.4019 H         1 UNK         0.0600 
    234 H234       -6.5820  -17.6783  -54.4115 H         1 UNK         0.0600 
    235 H235       -3.6971  -18.4896  -51.2218 H         1 UNK         0.3000 
    236 H236       -1.7234  -17.5461  -50.9200 H         1 UNK         0.0600 
    237 H237       -3.0282  -14.8117  -51.3339 H         1 UNK         0.0600 
    238 H238       -3.0405  -15.7098  -49.8157 H         1 UNK         0.0600 
    239 H239       -1.5247  -15.1536  -50.4968 H         1 UNK         0.0600 
    240 H240       -2.8087  -18.0898  -53.7793 H         1 UNK         0.3000 
    241 H241       -2.0607  -18.1670  -55.8198 H         1 UNK         0.0600 
    242 H242       -3.1354  -15.4697  -54.8475 H         1 UNK         0.3800 
    243 H243       -2.6661  -14.4012  -56.1477 H         1 UNK         0.3800 
    244 H244        0.3971  -18.0222  -56.3222 H         1 UNK         0.0800 
    245 H245        0.6828  -17.4096  -54.7142 H         1 UNK         0.0800 
    246 H246        2.4379  -19.3934  -54.3923 H         1 UNK         0.0800 
    247 H247        1.8990  -20.8410  -53.5835 H         1 UNK         0.0800 
@<TRIPOS>BOND
     1    1    2 1    
     2    1  127 1    
     3    1  128 1    
     4    1  129 1    
     5    2    3 2    
     6    2    4 am   BACKBONE|DICT|INTERRES
     7    4    5 1    
     8    4  130 1    
     9    5    6 1    
    10    5   65 1    
    11    5  131 1    
    12    6    7 1    
    13    6  132 1    
    14    6  133 1    
    15    7    8 1    
    16    8    9 1    
    17    8  134 1    
    18    8  135 1    
    19    9   10 ar   
    20    9   14 ar   
    21   10   11 ar   
    22   10  136 1    
    23   11   12 ar   
    24   11  126 1    
    25   12   13 ar   
    26   12  137 1    
    27   13   14 ar   
    28   13   15 1    
    29   14  138 1    
    30   15   16 1    
    31   15  139 1    
    32   15  140 1    
    33   16   17 1    
    34   17   18 1    
    35   17  141 1    
    36   17  142 1    
    37   18   19 1    
    38   18   67 1    
    39   18  143 1    
    40   19   20 am   BACKBONE|DICT|INTERRES
    41   19  144 1    
    42   20   21 2    
    43   20   22 1    
    44   22   23 1    
    45   22   24 1    
    46   22  145 1    
    47   23  146 1    
    48   23  147 1    
    49   23  148 1    
    50   24   25 am   BACKBONE|DICT|INTERRES
    51   24  149 1    
    52   25   26 2    
    53   25   27 1    
    54   27   28 1    
    55   27   29 1    
    56   27  150 1    
    57   28  151 1    
    58   28  152 1    
    59   28  153 1    
    60   29   30 am   BACKBONE|DICT|INTERRES
    61   29  154 1    
    62   30   31 2    
    63   30   32 1    
    64   32   33 1    
    65   32   34 1    
    66   32  155 1    
    67   33  156 1    
    68   33  157 1    
    69   33  158 1    
    70   34   35 am   BACKBONE|DICT|INTERRES
    71   34  159 1    
    72   35   36 2    
    73   35   37 1    
    74   37   38 1    
    75   37   39 1    
    76   37  160 1    
    77   38  161 1    
    78   38  162 1    
    79   38  163 1    
    80   39   40 am   BACKBONE|DICT|INTERRES
    81   39  164 1    
    82   40   41 2    
    83   40   42 1    
    84   42   43 1    
    85   42   44 1    
    86   42  165 1    
    87   43  166 1    
    88   43  167 1    
    89   43  168 1    
    90   44   45 am   BACKBONE|DICT|INTERRES
    91   44  169 1    
    92   45   46 2    
    93   45   47 1    
    94   47   48 1    
    95   47   49 1    
    96   47  170 1    
    97   48  171 1    
    98   48  172 1    
    99   48  173 1    
   100   49   50 am   BACKBONE|DICT|INTERRES
   101   49  174 1    
   102   50   51 2    
   103   50   52 1    
   104   52   53 1    
   105   52   54 1    
   106   52  175 1    
   107   53  176 1    
   108   53  177 1    
   109   53  178 1    
   110   54   55 am   BACKBONE|DICT|INTERRES
   111   54  179 1    
   112   55   56 2    
   113   55   57 1    
   114   57   58 1    
   115   57   59 1    
   116   57  180 1    
   117   58  181 1    
   118   58  182 1    
   119   58  183 1    
   120   59   60 am   BACKBONE|DICT|INTERRES
   121   59  184 1    
   122   60   61 2    
   123   60   62 1    
   124   62   63 1    
   125   62   64 1    
   126   62  185 1    
   127   63  186 1    
   128   63  187 1    
   129   63  188 1    
   130   64   65 am   BACKBONE|DICT|INTERRES
   131   64  189 1    
   132   65   66 2    
   133   67   68 2    
   134   67   69 am   BACKBONE|DICT|INTERRES
   135   69   70 1    
   136   69  190 1    
   137   70   71 1    
   138   70   72 1    
   139   70  191 1    
   140   71  192 1    
   141   71  193 1    
   142   71  194 1    
   143   72   73 2    
   144   72   74 am   BACKBONE|DICT|INTERRES
   145   74   75 1    
   146   74  195 1    
   147   75   76 1    
   148   75   77 1    
   149   75  196 1    
   150   76  197 1    
   151   76  198 1    
   152   76  199 1    
   153   77   78 2    
   154   77   79 am   BACKBONE|DICT|INTERRES
   155   79   80 1    
   156   79  200 1    
   157   80   81 1    
   158   80   82 1    
   159   80  201 1    
   160   81  202 1    
   161   81  203 1    
   162   81  204 1    
   163   82   83 2    
   164   82   84 am   BACKBONE|DICT|INTERRES
   165   84   85 1    
   166   84  205 1    
   167   85   86 1    
   168   85   87 1    
   169   85  206 1    
   170   86  207 1    
   171   86  208 1    
   172   86  209 1    
   173   87   88 2    
   174   87   89 am   BACKBONE|DICT|INTERRES
   175   89   90 1    
   176   89  210 1    
   177   90   91 1    
   178   90   92 1    
   179   90  211 1    
   180   91  212 1    
   181   91  213 1    
   182   91  214 1    
   183   92   93 2    
   184   92   94 am   BACKBONE|DICT|INTERRES
   185   94   95 1    
   186   94  215 1    
   187   95   96 1    
   188   95   97 1    
   189   95  216 1    
   190   96  217 1    
   191   96  218 1    
   192   96  219 1    
   193   97   98 2    
   194   97   99 am   BACKBONE|DICT|INTERRES
   195   99  100 1    
   196   99  220 1    
   197  100  101 1    
   198  100  102 1    
   199  100  221 1    
   200  101  222 1    
   201  101  223 1    
   202  101  224 1    
   203  102  103 2    
   204  102  104 am   BACKBONE|DICT|INTERRES
   205  104  105 1    
   206  104  225 1    
   207  105  106 1    
   208  105  107 1    
   209  105  226 1    
   210  106  227 1    
   211  106  228 1    
   212  106  229 1    
   213  107  108 2    
   214  107  109 am   BACKBONE|DICT|INTERRES
   215  109  110 1    
   216  109  230 1    
   217  110  111 1    
   218  110  112 1    
   219  110  231 1    
   220  111  232 1    
   221  111  233 1    
   222  111  234 1    
   223  112  113 2    
   224  112  114 am   BACKBONE|DICT|INTERRES
   225  114  115 1    
   226  114  235 1    
   227  115  116 1    
   228  115  117 1    
   229  115  236 1    
   230  116  237 1    
   231  116  238 1    
   232  116  239 1    
   233  117  118 2    
   234  117  119 am   BACKBONE|DICT|INTERRES
   235  119  120 1    
   236  119  240 1    
   237  120  121 1    
   238  120  124 1    
   239  120  241 1    
   240  121  122 am   BACKBONE|DICT|INTERRES
   241  121  123 2    
   242  122  242 1    
   243  122  243 1    
   244  124  125 1    
   245  124  244 1    
   246  124  245 1    
   247  125  126 1    
   248  126  246 1    
   249  126  247 1    
@<TRIPOS>SUBSTRUCTURE
     1 UNK         1 GROUP             0       ****    0 ROOT    
