@<TRIPOS>MOLECULE
3R540
247   249    1
SMALL
USER_CHARGES


@<TRIPOS>ATOM
      1 CA          1.3823  -15.8914  -51.3095 C.3       0 UNK        -0.1800 
      2 C           1.9578  -14.9790  -50.2371 C.2       0 UNK         0.5000 
      3 O           2.8114  -14.1422  -50.5329 O.2       0 UNK        -0.5000 
      4 N           1.4973  -15.1441  -48.9930 N.am      1 UNK        -0.5000 
      5 CA          1.8640  -14.3223  -47.8399 C.3       1 UNK         0.1400 
      6 C6          1.5008  -15.0227  -46.5027 C.3       23 UNK        -0.0398 
      7 S7         -0.2723  -15.4489  -46.3204 S.3       23 UNK        -0.2404 
      8 C8         -0.2476  -17.2669  -46.2393 C.3       23 UNK        -0.0205 
      9 C9          0.0125  -17.9212  -47.5871 C.ar      23 UNK        -0.0193 
     10 C10        -1.0524  -18.2659  -48.4251 C.ar      23 UNK        -0.1150 
     11 C11        -0.8208  -18.9418  -49.6276 C.ar      23 UNK        -0.0193 
     12 C12         0.4907  -19.2441  -50.0044 C.ar      23 UNK        -0.1150 
     13 C13         1.5628  -18.8955  -49.1789 C.ar      23 UNK        -0.0193 
     14 C14         1.3164  -18.2415  -47.9700 C.ar      23 UNK        -0.1150 
     15 C15         2.9879  -19.2297  -49.5885 C.3       23 UNK        -0.0205 
     16 S16         3.3832  -20.9887  -49.3362 S.3       23 UNK        -0.2404 
     17 C17         3.3128  -21.1517  -47.5183 C.3       23 UNK        -0.0398 
     18 CA          2.4043  -22.3184  -47.0615 C.3       11 UNK         0.1400 
     19 N           2.7657  -22.7757  -45.7192 N.am      11 UNK        -0.5000 
     20 C           2.6778  -24.0425  -45.2932 C.2       10 UNK         0.5000 
     21 O           2.3211  -24.9820  -46.0042 O.2       10 UNK        -0.5000 
     22 CA          3.0416  -24.3053  -43.8188 C.3       10 UNK         0.1400 
     23 CB          4.5332  -24.6473  -43.6853 C.3       10 UNK        -0.1800 
     24 N           2.7287  -23.1758  -42.9412 N.am      10 UNK        -0.5000 
     25 C           1.4860  -22.7773  -42.6385 C.2       9 UNK         0.5000 
     26 O           0.4697  -23.3435  -43.0426 O.2       9 UNK        -0.5000 
     27 CA          1.3560  -21.5152  -41.7656 C.3       9 UNK         0.1400 
     28 CB          1.3367  -21.8861  -40.2756 C.3       9 UNK        -0.1800 
     29 N           2.3859  -20.4951  -41.9889 N.am      9 UNK        -0.5000 
     30 C           2.6736  -19.8965  -43.1528 C.2       8 UNK         0.5000 
     31 O           2.1936  -20.2497  -44.2305 O.2       8 UNK        -0.5000 
     32 CA          3.6548  -18.7063  -43.1066 C.3       8 UNK         0.1400 
     33 CB          3.5213  -17.7936  -44.3390 C.3       8 UNK        -0.1800 
     34 N           3.4761  -17.8874  -41.9070 N.am      8 UNK        -0.5000 
     35 C           4.0628  -18.0969  -40.7222 C.2       7 UNK         0.5000 
     36 O           4.8059  -19.0498  -40.4881 O.2       7 UNK        -0.5000 
     37 CA          3.7221  -17.0993  -39.6057 C.3       7 UNK         0.1400 
     38 CB          4.4155  -15.7488  -39.8471 C.3       7 UNK        -0.1800 
     39 N           2.2771  -16.8966  -39.5180 N.am      7 UNK        -0.5000 
     40 C           1.4524  -17.6296  -38.7565 C.2       6 UNK         0.5000 
     41 O           1.8311  -18.5407  -38.0198 O.2       6 UNK        -0.5000 
     42 CA         -0.0497  -17.2881  -38.8216 C.3       6 UNK         0.1400 
     43 CB         -0.4172  -16.2707  -37.7307 C.3       6 UNK        -0.1800 
     44 N          -0.4529  -16.7572  -40.1239 N.am      6 UNK        -0.5000 
     45 C          -0.5610  -17.4949  -41.2368 C.2       5 UNK         0.5000 
     46 O          -0.4268  -18.7165  -41.2575 O.2       5 UNK        -0.5000 
     47 CA         -0.8429  -16.7472  -42.5532 C.3       5 UNK         0.1400 
     48 CB         -2.3269  -16.8498  -42.9337 C.3       5 UNK        -0.1800 
     49 N          -0.4509  -15.3358  -42.5415 N.am      5 UNK        -0.5000 
     50 C           0.8010  -14.8762  -42.4323 C.2       4 UNK         0.5000 
     51 O           1.7727  -15.6140  -42.2576 O.2       4 UNK        -0.5000 
     52 CA          0.9911  -13.3464  -42.5230 C.3       4 UNK         0.1400 
     53 CB          2.4707  -12.9489  -42.6719 C.3       4 UNK        -0.1800 
     54 N           0.2369  -12.7408  -43.6231 N.am      4 UNK        -0.5000 
     55 C          -1.0710  -12.4514  -43.6349 C.2       3 UNK         0.5000 
     56 O          -1.8257  -12.7392  -42.7048 O.2       3 UNK        -0.5000 
     57 CA         -1.6469  -11.7727  -44.8993 C.3       3 UNK         0.1400 
     58 CB         -2.5092  -10.5428  -44.5503 C.3       3 UNK        -0.1800 
     59 N          -0.6488  -11.4476  -45.9292 N.am      3 UNK        -0.5000 
     60 C           0.3531  -10.5566  -45.8799 C.2       2 UNK         0.5000 
     61 O           0.5572   -9.8066  -44.9248 O.2       2 UNK        -0.5000 
     62 CA          1.3331  -10.5813  -47.0746 C.3       2 UNK         0.1400 
     63 CB          2.5114   -9.6062  -46.8998 C.3       2 UNK        -0.1800 
     64 N           1.8661  -11.9328  -47.2793 N.am      2 UNK        -0.5000 
     65 C           1.2289  -12.9177  -47.9256 C.2       1 UNK         0.5000 
     66 O           0.1451  -12.7573  -48.4939 O.2       1 UNK        -0.5000 
     67 C           0.9027  -21.9697  -47.1241 C.2       11 UNK         0.5000 
     68 O           0.2492  -22.2849  -48.1178 O.2       11 UNK        -0.5000 
     69 N           0.3621  -21.3975  -46.0354 N.am      12 UNK        -0.5000 
     70 CA         -1.0457  -21.0193  -45.8675 C.3       12 UNK         0.1400 
     71 CB         -1.2408  -20.3605  -44.4950 C.3       12 UNK        -0.1800 
     72 C          -2.0448  -22.1763  -46.0459 C.2       12 UNK         0.5000 
     73 O          -3.1875  -21.9313  -46.4289 O.2       12 UNK        -0.5000 
     74 N          -1.5891  -23.4171  -45.8276 N.am      13 UNK        -0.5000 
     75 CA         -2.3200  -24.6529  -46.1135 C.3       13 UNK         0.1400 
     76 CB         -1.4544  -25.8456  -45.6808 C.3       13 UNK        -0.1800 
     77 C          -2.7498  -24.8039  -47.5904 C.2       13 UNK         0.5000 
     78 O          -3.7361  -25.4897  -47.8619 O.2       13 UNK        -0.5000 
     79 N          -2.0351  -24.1437  -48.5153 N.am      14 UNK        -0.5000 
     80 CA         -2.3520  -24.1097  -49.9431 C.3       14 UNK         0.1400 
     81 CB         -1.1262  -23.6119  -50.7235 C.3       14 UNK        -0.1800 
     82 C          -3.5847  -23.2499  -50.2836 C.2       14 UNK         0.5000 
     83 O          -4.1251  -23.4027  -51.3783 O.2       14 UNK        -0.5000 
     84 N          -4.0356  -22.3813  -49.3619 N.am      15 UNK        -0.5000 
     85 CA         -5.1742  -21.4720  -49.5542 C.3       15 UNK         0.1400 
     86 CB         -5.3094  -20.5434  -48.3386 C.3       15 UNK        -0.1800 
     87 C          -6.5129  -22.1815  -49.8376 C.2       15 UNK         0.5000 
     88 O          -7.4002  -21.5743  -50.4362 O.2       15 UNK        -0.5000 
     89 N          -6.6179  -23.4643  -49.4622 N.am      16 UNK        -0.5000 
     90 CA         -7.7299  -24.3566  -49.7945 C.3       16 UNK         0.1400 
     91 CB         -7.5314  -25.6885  -49.0553 C.3       16 UNK        -0.1800 
     92 C          -7.9016  -24.6004  -51.3100 C.2       16 UNK         0.5000 
     93 O          -9.0145  -24.8962  -51.7463 O.2       16 UNK        -0.5000 
     94 N          -6.8174  -24.4538  -52.0871 N.am      17 UNK        -0.5000 
     95 CA         -6.8267  -24.5308  -53.5502 C.3       17 UNK         0.1400 
     96 CB         -5.4479  -25.0095  -54.0281 C.3       17 UNK        -0.1800 
     97 C          -7.2059  -23.1897  -54.2146 C.2       17 UNK         0.5000 
     98 O          -7.4211  -23.1613  -55.4276 O.2       17 UNK        -0.5000 
     99 N          -7.2900  -22.1105  -53.4201 N.am      18 UNK        -0.5000 
    100 CA        -7.6910  -20.7531  -53.7921 C.3       18 UNK         0.1400 
    101 CB        -9.2168  -20.7047  -54.0310 C.3       18 UNK        -0.1800 
    102 C         -6.8483  -20.1908  -54.9553 C.2       18 UNK         0.5000 
    103 O         -5.6319  -20.0524  -54.8077 O.2       18 UNK        -0.5000 
    104 N         -7.4948  -19.8902  -56.0894 N.am      19 UNK        -0.5000 
    105 CA        -6.8980  -19.3178  -57.2985 C.3       19 UNK         0.1400 
    106 CB        -8.0225  -18.9744  -58.2877 C.3       19 UNK        -0.1800 
    107 C         -5.8361  -20.2058  -57.9777 C.2       19 UNK         0.5000 
    108 O         -5.0160  -19.6819  -58.7321 O.2       19 UNK        -0.5000 
    109 N         -5.8492  -21.5177  -57.6986 N.am      20 UNK        -0.5000 
    110 CA        -4.8220  -22.4578  -58.1542 C.3       20 UNK         0.1400 
    111 CB        -5.3930  -23.8832  -58.1325 C.3       20 UNK        -0.1800 
    112 C         -3.5186  -22.3679  -57.3316 C.2       20 UNK         0.5000 
    113 O         -2.4926  -22.8795  -57.7824 O.2       20 UNK        -0.5000 
    114 N         -3.5746  -21.7222  -56.1592 N.am      21 UNK        -0.5000 
    115 CA        -2.4352  -21.4098  -55.3057 C.3       21 UNK         0.1400 
    116 CB        -2.6827  -21.9902  -53.9000 C.3       21 UNK        -0.1800 
    117 C         -2.2163  -19.8861  -55.3278 C.2       21 UNK         0.5000 
    118 O         -1.8809  -19.3431  -56.3818 O.2       21 UNK        -0.5000 
    119 N         -2.3861  -19.2254  -54.1773 N.am      22 UNK        -0.5000 
    120 CA        -2.1796  -17.7819  -53.9889 C.3       22 UNK         0.1400 
    121 C         -3.3579  -16.8748  -54.4514 C.2       22 UNK         0.5000 
    122 N         -4.5198  -17.4070  -54.8082 N.am      22 UNK        -0.7600 
    123 O         -3.2075  -15.6571  -54.5046 O.2       22 UNK        -0.5000 
    124 C124       -1.7226  -17.4623  -52.5418 C.3       23 UNK        -0.0398 
    125 S125       -2.8919  -18.0112  -51.2470 S.3       23 UNK        -0.2404 
    126 C126       -1.9898  -19.3981  -50.4876 C.3       23 UNK        -0.0205 
    127 H127        2.1465  -16.5793  -51.6707 H         1 UNK         0.0600 
    128 H128        0.5501  -16.4775  -50.9213 H         1 UNK         0.0600 
    129 H129        1.0194  -15.3038  -52.1526 H         1 UNK         0.0600 
    130 H130        0.7756  -15.8294  -48.8156 H         1 UNK         0.3000 
    131 H131        2.9483  -14.1933  -47.8608 H         1 UNK         0.0600 
    132 H132        1.7840  -14.3966  -45.6558 H         1 UNK         0.0800 
    133 H133        2.1048  -15.9216  -46.3929 H         1 UNK         0.0800 
    134 H134        0.4978  -17.5962  -45.5161 H         1 UNK         0.0800 
    135 H135       -1.2101  -17.6049  -45.8535 H         1 UNK         0.0800 
    136 H136       -2.0664  -18.0388  -48.1271 H         1 UNK         0.1150 
    137 H137        0.6801  -19.7718  -50.9285 H         1 UNK         0.1150 
    138 H138        2.1430  -17.9934  -47.3210 H         1 UNK         0.1150 
    139 H139        3.1243  -18.9861  -50.6430 H         1 UNK         0.0800 
    140 H140        3.7035  -18.6147  -49.0404 H         1 UNK         0.0800 
    141 H141        3.0221  -20.2150  -47.0431 H         1 UNK         0.0800 
    142 H142        4.3369  -21.3360  -47.1910 H         1 UNK         0.0800 
    143 H143        2.5667  -23.1484  -47.7531 H         1 UNK         0.0600 
    144 H144        2.9940  -22.0530  -45.0485 H         1 UNK         0.3000 
    145 H145        2.4621  -25.1683  -43.4839 H         1 UNK         0.0600 
    146 H146        4.7879  -24.9080  -42.6579 H         1 UNK         0.0600 
    147 H147        4.7951  -25.5019  -44.3105 H         1 UNK         0.0600 
    148 H148        5.1670  -23.8127  -43.9879 H         1 UNK         0.0600 
    149 H149        3.5072  -22.6539  -42.5662 H         1 UNK         0.3000 
    150 H150        0.3962  -21.0604  -42.0075 H         1 UNK         0.0600 
    151 H151        0.5658  -22.6291  -40.0665 H         1 UNK         0.0600 
    152 H152        1.1209  -21.0140  -39.6574 H         1 UNK         0.0600 
    153 H153        2.2919  -22.3008  -39.9514 H         1 UNK         0.0600 
    154 H154        2.8580  -20.1507  -41.1646 H         1 UNK         0.3000 
    155 H155        4.6628  -19.1256  -43.1111 H         1 UNK         0.0600 
    156 H156        2.5295  -17.3458  -44.3930 H         1 UNK         0.0600 
    157 H157        3.6909  -18.3447  -45.2647 H         1 UNK         0.0600 
    158 H158        4.2493  -16.9829  -44.3083 H         1 UNK         0.0600 
    159 H159        2.8563  -17.0863  -42.0078 H         1 UNK         0.3000 
    160 H160        4.0965  -17.5028  -38.6624 H         1 UNK         0.0600 
    161 H161        4.2000  -15.0467  -39.0416 H         1 UNK         0.0600 
    162 H162        4.0994  -15.2897  -40.7841 H         1 UNK         0.0600 
    163 H163        5.4985  -15.8704  -39.8915 H         1 UNK         0.0600 
    164 H164        1.8801  -16.2128  -40.1482 H         1 UNK         0.3000 
    165 H165       -0.6084  -18.2075  -38.6328 H         1 UNK         0.0600 
    166 H166       -1.4887  -16.0698  -37.7235 H         1 UNK         0.0600 
    167 H167       -0.1516  -16.6464  -36.7416 H         1 UNK         0.0600 
    168 H168        0.1024  -15.3222  -37.8719 H         1 UNK         0.0600 
    169 H169       -0.6025  -15.7614  -40.1897 H         1 UNK         0.3000 
    170 H170       -0.2552  -17.2451  -43.3248 H         1 UNK         0.0600 
    171 H171       -2.6513  -17.8903  -42.9724 H         1 UNK         0.0600 
    172 H172       -2.9620  -16.3339  -42.2127 H         1 UNK         0.0600 
    173 H173       -2.5123  -16.4151  -43.9161 H         1 UNK         0.0600 
    174 H174       -1.1909  -14.6505  -42.6497 H         1 UNK         0.3000 
    175 H175        0.6279  -12.9261  -41.5832 H         1 UNK         0.0600 
    176 H176        2.9158  -13.3777  -43.5704 H         1 UNK         0.0600 
    177 H177        2.5852  -11.8660  -42.7243 H         1 UNK         0.0600 
    178 H178        3.0569  -13.2918  -41.8187 H         1 UNK         0.0600 
    179 H179        0.7704  -12.4794  -44.4368 H         1 UNK         0.3000 
    180 H180       -2.3051  -12.5138  -45.3550 H         1 UNK         0.0600 
    181 H181       -1.9376   -9.7816  -44.0190 H         1 UNK         0.0600 
    182 H182       -3.3474  -10.8224  -43.9110 H         1 UNK         0.0600 
    183 H183       -2.9264  -10.0857  -45.4475 H         1 UNK         0.0600 
    184 H184       -0.6974  -12.0190  -46.7673 H         1 UNK         0.3000 
    185 H185        0.7749  -10.2715  -47.9607 H         1 UNK         0.0600 
    186 H186        2.1569   -8.5816  -46.7795 H         1 UNK         0.0600 
    187 H187        3.1133   -9.8516  -46.0239 H         1 UNK         0.0600 
    188 H188        3.1664   -9.6203  -47.7712 H         1 UNK         0.0600 
    189 H189        2.7478  -12.1306  -46.8279 H         1 UNK         0.3000 
    190 H190        0.9866  -21.1264  -45.2798 H         1 UNK         0.3000 
    191 H191       -1.2740  -20.2844  -46.6374 H         1 UNK         0.0600 
    192 H192       -1.1515  -21.0888  -43.6898 H         1 UNK         0.0600 
    193 H193       -2.2325  -19.9137  -44.4187 H         1 UNK         0.0600 
    194 H194       -0.5115  -19.5713  -44.3165 H         1 UNK         0.0600 
    195 H195       -0.6427  -23.5175  -45.4885 H         1 UNK         0.3000 
    196 H196       -3.2283  -24.6465  -45.5078 H         1 UNK         0.0600 
    197 H197       -0.5181  -25.8846  -46.2394 H         1 UNK         0.0600 
    198 H198       -1.9763  -26.7891  -45.8458 H         1 UNK         0.0600 
    199 H199       -1.2088  -25.7910  -44.6199 H         1 UNK         0.0600 
    200 H200       -1.2446  -23.5762  -48.2216 H         1 UNK         0.3000 
    201 H201       -2.5664  -25.1302  -50.2670 H         1 UNK         0.0600 
    202 H202       -0.2357  -24.1896  -50.4755 H         1 UNK         0.0600 
    203 H203       -0.9139  -22.5625  -50.5150 H         1 UNK         0.0600 
    204 H204       -1.2847  -23.7075  -51.7979 H         1 UNK         0.0600 
    205 H205       -3.5718  -22.3338  -48.4612 H         1 UNK         0.3000 
    206 H206       -4.9514  -20.8554  -50.4275 H         1 UNK         0.0600 
    207 H207       -4.3872  -19.9940  -48.1494 H         1 UNK         0.0600 
    208 H208       -6.0977  -19.8064  -48.4966 H         1 UNK         0.0600 
    209 H209       -5.5594  -21.1010  -47.4354 H         1 UNK         0.0600 
    210 H210       -5.8333  -23.8821  -48.9819 H         1 UNK         0.3000 
    211 H211       -8.6496  -23.8939  -49.4307 H         1 UNK         0.0600 
    212 H212       -6.6059  -26.1809  -49.3571 H         1 UNK         0.0600 
    213 H213       -8.3527  -26.3766  -49.2598 H         1 UNK         0.0600 
    214 H214       -7.4947  -25.5394  -47.9759 H         1 UNK         0.0600 
    215 H215       -5.9328  -24.1875  -51.6644 H         1 UNK         0.3000 
    216 H216       -7.5646  -25.2719  -53.8641 H         1 UNK         0.0600 
    217 H217       -5.4594  -25.2350  -55.0936 H         1 UNK         0.0600 
    218 H218       -5.1414  -25.9186  -53.5106 H         1 UNK         0.0600 
    219 H219       -4.6825  -24.2536  -53.8603 H         1 UNK         0.0600 
    220 H220       -7.0997  -22.2364  -52.4340 H         1 UNK         0.3000 
    221 H221       -7.4720  -20.1208  -52.9305 H         1 UNK         0.0600 
    222 H222       -9.5256  -21.3412  -54.8612 H         1 UNK         0.0600 
    223 H223       -9.7554  -21.0409  -53.1447 H         1 UNK         0.0600 
    224 H224       -9.5540  -19.6886  -54.2401 H         1 UNK         0.0600 
    225 H225       -8.4881  -20.0671  -56.1262 H         1 UNK         0.3000 
    226 H226       -6.4013  -18.3889  -57.0116 H         1 UNK         0.0600 
    227 H227       -8.7308  -18.2694  -57.8520 H         1 UNK         0.0600 
    228 H228       -7.6223  -18.5126  -59.1914 H         1 UNK         0.0600 
    229 H229       -8.5756  -19.8642  -58.5910 H         1 UNK         0.0600 
    230 H230       -6.5469  -21.8808  -57.0591 H         1 UNK         0.3000 
    231 H231       -4.5666  -22.2209  -59.1892 H         1 UNK         0.0600 
    232 H232       -6.2826  -23.9616  -58.7575 H         1 UNK         0.0600 
    233 H233       -5.6640  -24.1916  -57.1248 H         1 UNK         0.0600 
    234 H234       -4.6653  -24.6023  -58.5107 H         1 UNK         0.0600 
    235 H235       -4.4477  -21.2841  -55.8859 H         1 UNK         0.3000 
    236 H236       -1.5206  -21.8608  -55.6953 H         1 UNK         0.0600 
    237 H237       -1.8805  -21.7240  -53.2111 H         1 UNK         0.0600 
    238 H238       -3.6264  -21.6470  -53.4732 H         1 UNK         0.0600 
    239 H239       -2.7121  -23.0783  -53.9359 H         1 UNK         0.0600 
    240 H240       -2.7209  -19.7289  -53.3698 H         1 UNK         0.3000 
    241 H241       -1.3472  -17.4940  -54.6340 H         1 UNK         0.0600 
    242 H242       -5.2629  -16.7954  -55.1029 H         1 UNK         0.3800 
    243 H243       -4.6822  -18.4083  -54.7585 H         1 UNK         0.3800 
    244 H244       -1.5558  -16.3908  -52.4199 H         1 UNK         0.0800 
    245 H245       -0.7518  -17.9266  -52.3682 H         1 UNK         0.0800 
    246 H246       -2.6770  -19.9592  -49.8570 H         1 UNK         0.0800 
    247 H247       -1.6591  -20.0900  -51.2630 H         1 UNK         0.0800 
@<TRIPOS>BOND
     1    1    2 1    
     2    1  127 1    
     3    1  128 1    
     4    1  129 1    
     5    2    3 2    
     6    2    4 am   BACKBONE|DICT|INTERRES
     7    4    5 1    
     8    4  130 1    
     9    5    6 1    
    10    5   65 1    
    11    5  131 1    
    12    6    7 1    
    13    6  132 1    
    14    6  133 1    
    15    7    8 1    
    16    8    9 1    
    17    8  134 1    
    18    8  135 1    
    19    9   10 ar   
    20    9   14 ar   
    21   10   11 ar   
    22   10  136 1    
    23   11   12 ar   
    24   11  126 1    
    25   12   13 ar   
    26   12  137 1    
    27   13   14 ar   
    28   13   15 1    
    29   14  138 1    
    30   15   16 1    
    31   15  139 1    
    32   15  140 1    
    33   16   17 1    
    34   17   18 1    
    35   17  141 1    
    36   17  142 1    
    37   18   19 1    
    38   18   67 1    
    39   18  143 1    
    40   19   20 am   BACKBONE|DICT|INTERRES
    41   19  144 1    
    42   20   21 2    
    43   20   22 1    
    44   22   23 1    
    45   22   24 1    
    46   22  145 1    
    47   23  146 1    
    48   23  147 1    
    49   23  148 1    
    50   24   25 am   BACKBONE|DICT|INTERRES
    51   24  149 1    
    52   25   26 2    
    53   25   27 1    
    54   27   28 1    
    55   27   29 1    
    56   27  150 1    
    57   28  151 1    
    58   28  152 1    
    59   28  153 1    
    60   29   30 am   BACKBONE|DICT|INTERRES
    61   29  154 1    
    62   30   31 2    
    63   30   32 1    
    64   32   33 1    
    65   32   34 1    
    66   32  155 1    
    67   33  156 1    
    68   33  157 1    
    69   33  158 1    
    70   34   35 am   BACKBONE|DICT|INTERRES
    71   34  159 1    
    72   35   36 2    
    73   35   37 1    
    74   37   38 1    
    75   37   39 1    
    76   37  160 1    
    77   38  161 1    
    78   38  162 1    
    79   38  163 1    
    80   39   40 am   BACKBONE|DICT|INTERRES
    81   39  164 1    
    82   40   41 2    
    83   40   42 1    
    84   42   43 1    
    85   42   44 1    
    86   42  165 1    
    87   43  166 1    
    88   43  167 1    
    89   43  168 1    
    90   44   45 am   BACKBONE|DICT|INTERRES
    91   44  169 1    
    92   45   46 2    
    93   45   47 1    
    94   47   48 1    
    95   47   49 1    
    96   47  170 1    
    97   48  171 1    
    98   48  172 1    
    99   48  173 1    
   100   49   50 am   BACKBONE|DICT|INTERRES
   101   49  174 1    
   102   50   51 2    
   103   50   52 1    
   104   52   53 1    
   105   52   54 1    
   106   52  175 1    
   107   53  176 1    
   108   53  177 1    
   109   53  178 1    
   110   54   55 am   BACKBONE|DICT|INTERRES
   111   54  179 1    
   112   55   56 2    
   113   55   57 1    
   114   57   58 1    
   115   57   59 1    
   116   57  180 1    
   117   58  181 1    
   118   58  182 1    
   119   58  183 1    
   120   59   60 am   BACKBONE|DICT|INTERRES
   121   59  184 1    
   122   60   61 2    
   123   60   62 1    
   124   62   63 1    
   125   62   64 1    
   126   62  185 1    
   127   63  186 1    
   128   63  187 1    
   129   63  188 1    
   130   64   65 am   BACKBONE|DICT|INTERRES
   131   64  189 1    
   132   65   66 2    
   133   67   68 2    
   134   67   69 am   BACKBONE|DICT|INTERRES
   135   69   70 1    
   136   69  190 1    
   137   70   71 1    
   138   70   72 1    
   139   70  191 1    
   140   71  192 1    
   141   71  193 1    
   142   71  194 1    
   143   72   73 2    
   144   72   74 am   BACKBONE|DICT|INTERRES
   145   74   75 1    
   146   74  195 1    
   147   75   76 1    
   148   75   77 1    
   149   75  196 1    
   150   76  197 1    
   151   76  198 1    
   152   76  199 1    
   153   77   78 2    
   154   77   79 am   BACKBONE|DICT|INTERRES
   155   79   80 1    
   156   79  200 1    
   157   80   81 1    
   158   80   82 1    
   159   80  201 1    
   160   81  202 1    
   161   81  203 1    
   162   81  204 1    
   163   82   83 2    
   164   82   84 am   BACKBONE|DICT|INTERRES
   165   84   85 1    
   166   84  205 1    
   167   85   86 1    
   168   85   87 1    
   169   85  206 1    
   170   86  207 1    
   171   86  208 1    
   172   86  209 1    
   173   87   88 2    
   174   87   89 am   BACKBONE|DICT|INTERRES
   175   89   90 1    
   176   89  210 1    
   177   90   91 1    
   178   90   92 1    
   179   90  211 1    
   180   91  212 1    
   181   91  213 1    
   182   91  214 1    
   183   92   93 2    
   184   92   94 am   BACKBONE|DICT|INTERRES
   185   94   95 1    
   186   94  215 1    
   187   95   96 1    
   188   95   97 1    
   189   95  216 1    
   190   96  217 1    
   191   96  218 1    
   192   96  219 1    
   193   97   98 2    
   194   97   99 am   BACKBONE|DICT|INTERRES
   195   99  100 1    
   196   99  220 1    
   197  100  101 1    
   198  100  102 1    
   199  100  221 1    
   200  101  222 1    
   201  101  223 1    
   202  101  224 1    
   203  102  103 2    
   204  102  104 am   BACKBONE|DICT|INTERRES
   205  104  105 1    
   206  104  225 1    
   207  105  106 1    
   208  105  107 1    
   209  105  226 1    
   210  106  227 1    
   211  106  228 1    
   212  106  229 1    
   213  107  108 2    
   214  107  109 am   BACKBONE|DICT|INTERRES
   215  109  110 1    
   216  109  230 1    
   217  110  111 1    
   218  110  112 1    
   219  110  231 1    
   220  111  232 1    
   221  111  233 1    
   222  111  234 1    
   223  112  113 2    
   224  112  114 am   BACKBONE|DICT|INTERRES
   225  114  115 1    
   226  114  235 1    
   227  115  116 1    
   228  115  117 1    
   229  115  236 1    
   230  116  237 1    
   231  116  238 1    
   232  116  239 1    
   233  117  118 2    
   234  117  119 am   BACKBONE|DICT|INTERRES
   235  119  120 1    
   236  119  240 1    
   237  120  121 1    
   238  120  124 1    
   239  120  241 1    
   240  121  122 am   BACKBONE|DICT|INTERRES
   241  121  123 2    
   242  122  242 1    
   243  122  243 1    
   244  124  125 1    
   245  124  244 1    
   246  124  245 1    
   247  125  126 1    
   248  126  246 1    
   249  126  247 1    
@<TRIPOS>SUBSTRUCTURE
     1 UNK         1 GROUP             0       ****    0 ROOT    
