@<TRIPOS>MOLECULE
3R540
247   249    1
SMALL
USER_CHARGES


@<TRIPOS>ATOM
      1 CA         -3.7731  -10.8794  -46.0461 C.3       0 UNK        -0.1800 
      2 C          -2.8656  -12.0985  -45.9787 C.2       0 UNK         0.5000 
      3 O          -1.8532  -12.0691  -45.2813 O.2       0 UNK        -0.5000 
      4 N          -3.2318  -13.1780  -46.6815 N.am      1 UNK        -0.5000 
      5 CA         -2.4798  -14.4380  -46.7637 C.3       1 UNK         0.1400 
      6 C6         -3.1180  -15.3812  -47.8144 C.3       23 UNK        -0.0398 
      7 S7         -2.0431  -16.7578  -48.3431 S.3       23 UNK        -0.2404 
      8 C8         -1.3980  -16.1532  -49.9318 C.3       23 UNK        -0.0205 
      9 C9         -0.6393  -17.2467  -50.6702 C.ar      23 UNK        -0.0193 
     10 C10        -1.2414  -17.9390  -51.7248 C.ar      23 UNK        -0.1150 
     11 C11        -0.5434  -18.9213  -52.4362 C.ar      23 UNK        -0.0193 
     12 C12         0.7719  -19.2231  -52.0538 C.ar      23 UNK        -0.1150 
     13 C13         1.3838  -18.5478  -50.9932 C.ar      23 UNK        -0.0193 
     14 C14         0.6757  -17.5520  -50.3139 C.ar      23 UNK        -0.1150 
     15 C15         2.8239  -18.8690  -50.6134 C.3       23 UNK        -0.0205 
     16 S16         2.9510  -20.2742  -49.4572 S.3       23 UNK        -0.2404 
     17 C17         2.3448  -19.5326  -47.9047 C.3       23 UNK        -0.0398 
     18 CA          1.1458  -20.3168  -47.3138 C.3       11 UNK         0.1400 
     19 N           1.6076  -21.5755  -46.7165 N.am      11 UNK        -0.5000 
     20 C           0.8880  -22.6765  -46.4666 C.2       10 UNK         0.5000 
     21 O          -0.3204  -22.7658  -46.6814 O.2       10 UNK        -0.5000 
     22 CA          1.6403  -23.8763  -45.8541 C.3       10 UNK         0.1400 
     23 CB          2.0054  -24.8907  -46.9486 C.3       10 UNK        -0.1800 
     24 N           2.8585  -23.4994  -45.1281 N.am      10 UNK        -0.5000 
     25 C           2.8738  -22.8039  -43.9828 C.2       9 UNK         0.5000 
     26 O           1.8453  -22.4506  -43.4021 O.2       9 UNK        -0.5000 
     27 CA          4.2580  -22.4502  -43.3986 C.3       9 UNK         0.1400 
     28 CB          5.2791  -22.0667  -44.4879 C.3       9 UNK        -0.1800 
     29 N           4.1227  -21.3246  -42.4789 N.am      9 UNK        -0.5000 
     30 C           4.1084  -21.4009  -41.1412 C.2       8 UNK         0.5000 
     31 O           4.3496  -22.4317  -40.5111 O.2       8 UNK        -0.5000 
     32 CA          3.7581  -20.1093  -40.3699 C.3       8 UNK         0.1400 
     33 CB          5.0350  -19.4236  -39.8614 C.3       8 UNK        -0.1800 
     34 N           2.9949  -19.1585  -41.1812 N.am      8 UNK        -0.5000 
     35 C           1.7193  -19.3402  -41.5576 C.2       7 UNK         0.5000 
     36 O           0.9984  -20.2221  -41.0903 O.2       7 UNK        -0.5000 
     37 CA          1.1483  -18.4038  -42.6429 C.3       7 UNK         0.1400 
     38 CB          0.0383  -17.5142  -42.0662 C.3       7 UNK        -0.1800 
     39 N           2.1492  -17.5578  -43.2971 N.am      7 UNK        -0.5000 
     40 C           3.1265  -17.9971  -44.1063 C.2       6 UNK         0.5000 
     41 O           3.2794  -19.1826  -44.4022 O.2       6 UNK        -0.5000 
     42 CA          4.1461  -16.9588  -44.6232 C.3       6 UNK         0.1400 
     43 CB          3.8037  -16.5260  -46.0567 C.3       6 UNK        -0.1800 
     44 N           4.2445  -15.7593  -43.7914 N.am      6 UNK        -0.5000 
     45 C           4.5864  -15.7189  -42.4958 C.2       5 UNK         0.5000 
     46 O           4.9397  -16.7076  -41.8528 O.2       5 UNK        -0.5000 
     47 CA          4.4563  -14.3528  -41.7899 C.3       5 UNK         0.1400 
     48 CB          5.8328  -13.6842  -41.6576 C.3       5 UNK        -0.1800 
     49 N           3.5333  -13.4221  -42.4545 N.am      5 UNK        -0.5000 
     50 C           2.2223  -13.6351  -42.6377 C.2       4 UNK         0.5000 
     51 O           1.6439  -14.6639  -42.2818 O.2       4 UNK        -0.5000 
     52 CA          1.4601  -12.5474  -43.4175 C.3       4 UNK         0.1400 
     53 CB          1.5729  -12.8073  -44.9284 C.3       4 UNK        -0.1800 
     54 N           0.0440  -12.4883  -43.0641 N.am      4 UNK        -0.5000 
     55 C          -0.4482  -12.1603  -41.8626 C.2       3 UNK         0.5000 
     56 O           0.2460  -11.7998  -40.9107 O.2       3 UNK        -0.5000 
     57 CA         -1.9764  -12.2388  -41.6981 C.3       3 UNK         0.1400 
     58 CB         -2.6290  -10.8905  -42.0423 C.3       3 UNK        -0.1800 
     59 N          -2.5708  -13.2901  -42.5269 N.am      3 UNK        -0.5000 
     60 C          -2.6335  -14.5816  -42.1745 C.2       2 UNK         0.5000 
     61 O          -2.2126  -15.0135  -41.1012 O.2       2 UNK        -0.5000 
     62 CA         -3.3099  -15.5576  -43.1593 C.3       2 UNK         0.1400 
     63 CB         -4.7401  -15.8703  -42.6922 C.3       2 UNK        -0.1800 
     64 N          -3.3481  -15.0663  -44.5407 N.am      2 UNK        -0.5000 
     65 C          -2.3035  -15.1145  -45.3819 C.2       1 UNK         0.5000 
     66 O          -1.2207  -15.6123  -45.0822 O.2       1 UNK        -0.5000 
     67 C           0.2847  -19.4638  -46.3478 C.2       11 UNK         0.5000 
     68 O           0.4965  -18.2577  -46.2304 O.2       11 UNK        -0.5000 
     69 N          -0.6900  -20.1016  -45.6921 N.am      12 UNK        -0.5000 
     70 CA         -1.8240  -19.4588  -45.0328 C.3       12 UNK         0.1400 
     71 CB         -2.2124  -20.3006  -43.8060 C.3       12 UNK        -0.1800 
     72 C          -2.9912  -19.3624  -46.0344 C.2       12 UNK         0.5000 
     73 O          -2.8738  -19.8499  -47.1599 O.2       12 UNK        -0.5000 
     74 N          -4.1234  -18.7768  -45.6172 N.am      13 UNK        -0.5000 
     75 CA         -5.3081  -18.5495  -46.4612 C.3       13 UNK         0.1400 
     76 CB         -6.3711  -17.7798  -45.6655 C.3       13 UNK        -0.1800 
     77 C          -5.9185  -19.8051  -47.1212 C.2       13 UNK         0.5000 
     78 O          -6.5997  -19.6740  -48.1372 O.2       13 UNK        -0.5000 
     79 N          -5.6211  -20.9974  -46.5868 N.am      14 UNK        -0.5000 
     80 CA         -5.9210  -22.2881  -47.2104 C.3       14 UNK         0.1400 
     81 CB         -5.5242  -23.4158  -46.2464 C.3       14 UNK        -0.1800 
     82 C          -5.2315  -22.4803  -48.5787 C.2       14 UNK         0.5000 
     83 O          -5.8192  -23.0961  -49.4679 O.2       14 UNK        -0.5000 
     84 N          -4.0234  -21.9203  -48.7426 N.am      15 UNK        -0.5000 
     85 CA         -3.2813  -21.9112  -50.0025 C.3       15 UNK         0.1400 
     86 CB         -1.8319  -21.4716  -49.7505 C.3       15 UNK        -0.1800 
     87 C          -3.9462  -20.9934  -51.0377 C.2       15 UNK         0.5000 
     88 O          -4.0846  -21.3846  -52.1958 O.2       15 UNK        -0.5000 
     89 N          -4.3835  -19.8070  -50.5923 N.am      16 UNK        -0.5000 
     90 CA         -5.1173  -18.8355  -51.4046 C.3       16 UNK         0.1400 
     91 CB         -5.2376  -17.5099  -50.6384 C.3       16 UNK        -0.1800 
     92 C          -6.5038  -19.3478  -51.8352 C.2       16 UNK         0.5000 
     93 O          -6.9217  -19.0836  -52.9623 O.2       16 UNK        -0.5000 
     94 N          -7.1753  -20.0906  -50.9437 N.am      17 UNK        -0.5000 
     95 CA         -8.4435  -20.7684  -51.2100 C.3       17 UNK         0.1400 
     96 CB         -9.0324  -21.2925  -49.8916 C.3       17 UNK        -0.1800 
     97 C          -8.3034  -21.9071  -52.2379 C.2       17 UNK         0.5000 
     98 O          -9.1902  -22.0725  -53.0765 O.2       17 UNK        -0.5000 
     99 N          -7.1938  -22.6578  -52.1674 N.am      18 UNK        -0.5000 
    100 CA        -6.8349  -23.6926  -53.1382 C.3       18 UNK         0.1400 
    101 CB        -5.6899  -24.5548  -52.5812 C.3       18 UNK        -0.1800 
    102 C         -6.4616  -23.0948  -54.5074 C.2       18 UNK         0.5000 
    103 O         -6.9777  -23.5534  -55.5281 O.2       18 UNK        -0.5000 
    104 N         -5.5958  -22.0695  -54.4854 N.am      19 UNK        -0.5000 
    105 CA        -5.0509  -21.3268  -55.6262 C.3       19 UNK         0.1400 
    106 CB        -6.1730  -20.5487  -56.3473 C.3       19 UNK        -0.1800 
    107 C         -4.2213  -22.2121  -56.5838 C.2       19 UNK         0.5000 
    108 O         -3.8636  -23.3384  -56.2295 O.2       19 UNK        -0.5000 
    109 N         -3.8998  -21.6742  -57.7705 N.am      20 UNK        -0.5000 
    110 CA        -3.1313  -22.2987  -58.8545 C.3       20 UNK         0.1400 
    111 CB        -3.9509  -23.4294  -59.5161 C.3       20 UNK        -0.1800 
    112 C         -1.7266  -22.7409  -58.3934 C.2       20 UNK         0.5000 
    113 O         -0.8237  -21.9064  -58.3258 O.2       20 UNK        -0.5000 
    114 N         -1.5757  -24.0310  -58.0658 N.am      21 UNK        -0.5000 
    115 CA        -0.3674  -24.6229  -57.4886 C.3       21 UNK         0.1400 
    116 CB        -0.4360  -26.1479  -57.6686 C.3       21 UNK        -0.1800 
    117 C         -0.1522  -24.2624  -56.0023 C.2       21 UNK         0.5000 
    118 O          0.9448  -24.4867  -55.4898 O.2       21 UNK        -0.5000 
    119 N         -1.1892  -23.7263  -55.3422 N.am      22 UNK        -0.5000 
    120 CA        -1.2159  -23.2872  -53.9351 C.3       22 UNK         0.1400 
    121 C         -1.2424  -24.4517  -52.8992 C.2       22 UNK         0.5000 
    122 N         -1.5453  -25.6822  -53.2951 N.am      22 UNK        -0.7600 
    123 O         -1.0168  -24.2391  -51.7119 O.2       22 UNK        -0.5000 
    124 C124       -0.1474  -22.2065  -53.5982 C.3       23 UNK        -0.0398 
    125 S125       -0.2631  -20.7203  -54.6537 S.3       23 UNK        -0.2404 
    126 C126       -1.2595  -19.5996  -53.6094 C.3       23 UNK        -0.0205 
    127 H127       -4.6122  -11.0348  -46.7246 H         1 UNK         0.0600 
    128 H128       -4.1715  -10.6533  -45.0571 H         1 UNK         0.0600 
    129 H129       -3.2102  -10.0133  -46.3939 H         1 UNK         0.0600 
    130 H130       -4.0797  -13.1353  -47.2290 H         1 UNK         0.3000 
    131 H131       -1.4799  -14.1758  -47.1170 H         1 UNK         0.0600 
    132 H132       -4.0528  -15.7945  -47.4353 H         1 UNK         0.0800 
    133 H133       -3.3940  -14.8120  -48.7031 H         1 UNK         0.0800 
    134 H134       -0.7398  -15.3018  -49.7526 H         1 UNK         0.0800 
    135 H135       -2.2183  -15.7847  -50.5491 H         1 UNK         0.0800 
    136 H136       -2.2566  -17.6984  -52.0060 H         1 UNK         0.1150 
    137 H137        1.3400  -19.9751  -52.5800 H         1 UNK         0.1150 
    138 H138        1.1435  -17.0066  -49.5069 H         1 UNK         0.1150 
    139 H139        3.3902  -19.1094  -51.5144 H         1 UNK         0.0800 
    140 H140        3.3101  -17.9931  -50.1810 H         1 UNK         0.0800 
    141 H141        2.0921  -18.4921  -48.0996 H         1 UNK         0.0800 
    142 H142        3.1670  -19.5065  -47.1891 H         1 UNK         0.0800 
    143 H143        0.4768  -20.5656  -48.1398 H         1 UNK         0.0600 
    144 H144        2.5833  -21.5974  -46.4622 H         1 UNK         0.3000 
    145 H145        0.9615  -24.3629  -45.1504 H         1 UNK         0.0600 
    146 H146        2.4669  -25.7822  -46.5235 H         1 UNK         0.0600 
    147 H147        1.1171  -25.2144  -47.4929 H         1 UNK         0.0600 
    148 H148        2.6985  -24.4659  -47.6760 H         1 UNK         0.0600 
    149 H149        3.7358  -23.7715  -45.5475 H         1 UNK         0.3000 
    150 H150        4.6286  -23.3314  -42.8718 H         1 UNK         0.0600 
    151 H151        5.5260  -22.9172  -45.1238 H         1 UNK         0.0600 
    152 H152        6.2138  -21.7243  -44.0433 H         1 UNK         0.0600 
    153 H153        4.9066  -21.2673  -45.1295 H         1 UNK         0.0600 
    154 H154        3.8398  -20.4538  -42.9156 H         1 UNK         0.3000 
    155 H155        3.1532  -20.3906  -39.5055 H         1 UNK         0.0600 
    156 H156        5.6909  -19.1359  -40.6841 H         1 UNK         0.0600 
    157 H157        5.6010  -20.0879  -39.2072 H         1 UNK         0.0600 
    158 H158        4.8009  -18.5253  -39.2899 H         1 UNK         0.0600 
    159 H159        3.5147  -18.3830  -41.5748 H         1 UNK         0.3000 
    160 H160        0.7088  -19.0426  -43.4092 H         1 UNK         0.0600 
    161 H161       -0.3656  -16.8501  -42.8293 H         1 UNK         0.0600 
    162 H162        0.4042  -16.8945  -41.2468 H         1 UNK         0.0600 
    163 H163       -0.7885  -18.1131  -41.6830 H         1 UNK         0.0600 
    164 H164        2.0922  -16.5665  -43.0898 H         1 UNK         0.3000 
    165 H165        5.1282  -17.4357  -44.6299 H         1 UNK         0.0600 
    166 H166        4.4921  -15.7616  -46.4176 H         1 UNK         0.0600 
    167 H167        3.8765  -17.3667  -46.7440 H         1 UNK         0.0600 
    168 H168        2.7899  -16.1280  -46.1260 H         1 UNK         0.0600 
    169 H169        3.9653  -14.8927  -44.2253 H         1 UNK         0.3000 
    170 H170        4.0694  -14.5440  -40.7870 H         1 UNK         0.0600 
    171 H171        6.5374  -14.3388  -41.1425 H         1 UNK         0.0600 
    172 H172        6.2595  -13.4453  -42.6325 H         1 UNK         0.0600 
    173 H173        5.7700  -12.7608  -41.0815 H         1 UNK         0.0600 
    174 H174        3.9381  -12.5595  -42.7898 H         1 UNK         0.3000 
    175 H175        1.9041  -11.5763  -43.1903 H         1 UNK         0.0600 
    176 H176        1.0694  -12.0279  -45.5010 H         1 UNK         0.0600 
    177 H177        2.6145  -12.8245  -45.2513 H         1 UNK         0.0600 
    178 H178        1.1259  -13.7640  -45.2042 H         1 UNK         0.0600 
    179 H179       -0.6119  -12.7149  -43.8031 H         1 UNK         0.3000 
    180 H180       -2.1872  -12.4518  -40.6478 H         1 UNK         0.0600 
    181 H181       -2.4286  -10.5933  -43.0718 H         1 UNK         0.0600 
    182 H182       -2.2482  -10.0992  -41.3953 H         1 UNK         0.0600 
    183 H183       -3.7100  -10.9283  -41.9070 H         1 UNK         0.0600 
    184 H184       -2.8843  -13.0183  -43.4474 H         1 UNK         0.3000 
    185 H185       -2.7420  -16.4896  -43.1315 H         1 UNK         0.0600 
    186 H186       -5.3962  -15.0046  -42.7901 H         1 UNK         0.0600 
    187 H187       -5.1719  -16.6905  -43.2618 H         1 UNK         0.0600 
    188 H188       -4.7538  -16.1739  -41.6444 H         1 UNK         0.0600 
    189 H189       -4.1991  -14.6151  -44.8436 H         1 UNK         0.3000 
    190 H190       -0.8081  -21.0863  -45.9122 H         1 UNK         0.3000 
    191 H191       -1.5571  -18.4504  -44.7101 H         1 UNK         0.0600 
    192 H192       -3.0080  -19.8244  -43.2322 H         1 UNK         0.0600 
    193 H193       -1.3648  -20.4290  -43.1323 H         1 UNK         0.0600 
    194 H194       -2.5595  -21.2942  -44.0930 H         1 UNK         0.0600 
    195 H195       -4.1742  -18.4258  -44.6729 H         1 UNK         0.3000 
    196 H196       -4.9885  -17.9139  -47.2879 H         1 UNK         0.0600 
    197 H197       -7.2862  -17.6561  -46.2467 H         1 UNK         0.0600 
    198 H198       -6.0214  -16.7794  -45.4131 H         1 UNK         0.0600 
    199 H199       -6.6367  -18.2958  -44.7422 H         1 UNK         0.0600 
    200 H200       -5.0519  -21.0164  -45.7543 H         1 UNK         0.3000 
    201 H201       -6.9995  -22.3386  -47.3720 H         1 UNK         0.0600 
    202 H202       -6.0647  -23.3376  -45.3029 H         1 UNK         0.0600 
    203 H203       -4.4560  -23.3988  -46.0254 H         1 UNK         0.0600 
    204 H204       -5.7559  -24.3927  -46.6728 H         1 UNK         0.0600 
    205 H205       -3.6248  -21.3641  -47.9904 H         1 UNK         0.3000 
    206 H206       -3.2674  -22.9270  -50.4034 H         1 UNK         0.0600 
    207 H207       -1.3475  -22.1161  -49.0190 H         1 UNK         0.0600 
    208 H208       -1.2463  -21.5269  -50.6643 H         1 UNK         0.0600 
    209 H209       -1.7673  -20.4426  -49.3963 H         1 UNK         0.0600 
    210 H210       -4.2338  -19.5745  -49.6210 H         1 UNK         0.3000 
    211 H211       -4.5374  -18.6538  -52.3118 H         1 UNK         0.0600 
    212 H212       -5.8115  -17.6227  -49.7188 H         1 UNK         0.0600 
    213 H213       -5.7374  -16.7540  -51.2452 H         1 UNK         0.0600 
    214 H214       -4.2571  -17.1175  -50.3754 H         1 UNK         0.0600 
    215 H215       -6.8003  -20.1767  -50.0038 H         1 UNK         0.3000 
    216 H216       -9.1367  -20.0316  -51.6212 H         1 UNK         0.0600 
    217 H217      -10.0025  -21.7623  -50.0576 H         1 UNK         0.0600 
    218 H218       -9.1802  -20.4835  -49.1759 H         1 UNK         0.0600 
    219 H219       -8.3835  -22.0352  -49.4279 H         1 UNK         0.0600 
    220 H220       -6.5394  -22.4951  -51.4115 H         1 UNK         0.3000 
    221 H221       -7.7028  -24.3400  -53.2803 H         1 UNK         0.0600 
    222 H222       -5.4168  -25.3416  -53.2854 H         1 UNK         0.0600 
    223 H223       -4.7929  -23.9668  -52.3866 H         1 UNK         0.0600 
    224 H224       -5.9794  -25.0381  -51.6480 H         1 UNK         0.0600 
    225 H225       -5.1903  -21.8174  -53.5862 H         1 UNK         0.3000 
    226 H226       -4.3574  -20.6006  -55.1997 H         1 UNK         0.0600 
    227 H227       -6.8281  -21.2126  -56.9124 H         1 UNK         0.0600 
    228 H228       -5.7677  -19.8143  -57.0434 H         1 UNK         0.0600 
    229 H229       -6.7904  -20.0014  -55.6346 H         1 UNK         0.0600 
    230 H230       -4.2022  -20.7283  -57.9549 H         1 UNK         0.3000 
    231 H231       -2.9752  -21.5267  -59.6096 H         1 UNK         0.0600 
    232 H232       -4.8690  -23.0360  -59.9526 H         1 UNK         0.0600 
    233 H233       -4.2349  -24.2094  -58.8092 H         1 UNK         0.0600 
    234 H234       -3.3886  -23.9008  -60.3232 H         1 UNK         0.0600 
    235 H235       -2.3880  -24.6288  -58.1177 H         1 UNK         0.3000 
    236 H236        0.4976  -24.2518  -58.0420 H         1 UNK         0.0600 
    237 H237       -0.5182  -26.4174  -58.7218 H         1 UNK         0.0600 
    238 H238        0.4630  -26.6292  -57.2813 H         1 UNK         0.0600 
    239 H239       -1.2903  -26.5770  -57.1438 H         1 UNK         0.0600 
    240 H240       -2.0719  -23.6191  -55.8361 H         1 UNK         0.3000 
    241 H241       -2.1891  -22.8104  -53.8127 H         1 UNK         0.0600 
    242 H242       -1.5693  -26.4282  -52.6183 H         1 UNK         0.3800 
    243 H243       -1.7482  -25.8731  -54.2628 H         1 UNK         0.3800 
    244 H244       -0.2297  -21.8951  -52.5596 H         1 UNK         0.0800 
    245 H245        0.8581  -22.6164  -53.6940 H         1 UNK         0.0800 
    246 H246       -2.1203  -20.1481  -53.2337 H         1 UNK         0.0800 
    247 H247       -1.6586  -18.8207  -54.2604 H         1 UNK         0.0800 
@<TRIPOS>BOND
     1    1    2 1    
     2    1  127 1    
     3    1  128 1    
     4    1  129 1    
     5    2    3 2    
     6    2    4 am   BACKBONE|DICT|INTERRES
     7    4    5 1    
     8    4  130 1    
     9    5    6 1    
    10    5   65 1    
    11    5  131 1    
    12    6    7 1    
    13    6  132 1    
    14    6  133 1    
    15    7    8 1    
    16    8    9 1    
    17    8  134 1    
    18    8  135 1    
    19    9   10 ar   
    20    9   14 ar   
    21   10   11 ar   
    22   10  136 1    
    23   11   12 ar   
    24   11  126 1    
    25   12   13 ar   
    26   12  137 1    
    27   13   14 ar   
    28   13   15 1    
    29   14  138 1    
    30   15   16 1    
    31   15  139 1    
    32   15  140 1    
    33   16   17 1    
    34   17   18 1    
    35   17  141 1    
    36   17  142 1    
    37   18   19 1    
    38   18   67 1    
    39   18  143 1    
    40   19   20 am   BACKBONE|DICT|INTERRES
    41   19  144 1    
    42   20   21 2    
    43   20   22 1    
    44   22   23 1    
    45   22   24 1    
    46   22  145 1    
    47   23  146 1    
    48   23  147 1    
    49   23  148 1    
    50   24   25 am   BACKBONE|DICT|INTERRES
    51   24  149 1    
    52   25   26 2    
    53   25   27 1    
    54   27   28 1    
    55   27   29 1    
    56   27  150 1    
    57   28  151 1    
    58   28  152 1    
    59   28  153 1    
    60   29   30 am   BACKBONE|DICT|INTERRES
    61   29  154 1    
    62   30   31 2    
    63   30   32 1    
    64   32   33 1    
    65   32   34 1    
    66   32  155 1    
    67   33  156 1    
    68   33  157 1    
    69   33  158 1    
    70   34   35 am   BACKBONE|DICT|INTERRES
    71   34  159 1    
    72   35   36 2    
    73   35   37 1    
    74   37   38 1    
    75   37   39 1    
    76   37  160 1    
    77   38  161 1    
    78   38  162 1    
    79   38  163 1    
    80   39   40 am   BACKBONE|DICT|INTERRES
    81   39  164 1    
    82   40   41 2    
    83   40   42 1    
    84   42   43 1    
    85   42   44 1    
    86   42  165 1    
    87   43  166 1    
    88   43  167 1    
    89   43  168 1    
    90   44   45 am   BACKBONE|DICT|INTERRES
    91   44  169 1    
    92   45   46 2    
    93   45   47 1    
    94   47   48 1    
    95   47   49 1    
    96   47  170 1    
    97   48  171 1    
    98   48  172 1    
    99   48  173 1    
   100   49   50 am   BACKBONE|DICT|INTERRES
   101   49  174 1    
   102   50   51 2    
   103   50   52 1    
   104   52   53 1    
   105   52   54 1    
   106   52  175 1    
   107   53  176 1    
   108   53  177 1    
   109   53  178 1    
   110   54   55 am   BACKBONE|DICT|INTERRES
   111   54  179 1    
   112   55   56 2    
   113   55   57 1    
   114   57   58 1    
   115   57   59 1    
   116   57  180 1    
   117   58  181 1    
   118   58  182 1    
   119   58  183 1    
   120   59   60 am   BACKBONE|DICT|INTERRES
   121   59  184 1    
   122   60   61 2    
   123   60   62 1    
   124   62   63 1    
   125   62   64 1    
   126   62  185 1    
   127   63  186 1    
   128   63  187 1    
   129   63  188 1    
   130   64   65 am   BACKBONE|DICT|INTERRES
   131   64  189 1    
   132   65   66 2    
   133   67   68 2    
   134   67   69 am   BACKBONE|DICT|INTERRES
   135   69   70 1    
   136   69  190 1    
   137   70   71 1    
   138   70   72 1    
   139   70  191 1    
   140   71  192 1    
   141   71  193 1    
   142   71  194 1    
   143   72   73 2    
   144   72   74 am   BACKBONE|DICT|INTERRES
   145   74   75 1    
   146   74  195 1    
   147   75   76 1    
   148   75   77 1    
   149   75  196 1    
   150   76  197 1    
   151   76  198 1    
   152   76  199 1    
   153   77   78 2    
   154   77   79 am   BACKBONE|DICT|INTERRES
   155   79   80 1    
   156   79  200 1    
   157   80   81 1    
   158   80   82 1    
   159   80  201 1    
   160   81  202 1    
   161   81  203 1    
   162   81  204 1    
   163   82   83 2    
   164   82   84 am   BACKBONE|DICT|INTERRES
   165   84   85 1    
   166   84  205 1    
   167   85   86 1    
   168   85   87 1    
   169   85  206 1    
   170   86  207 1    
   171   86  208 1    
   172   86  209 1    
   173   87   88 2    
   174   87   89 am   BACKBONE|DICT|INTERRES
   175   89   90 1    
   176   89  210 1    
   177   90   91 1    
   178   90   92 1    
   179   90  211 1    
   180   91  212 1    
   181   91  213 1    
   182   91  214 1    
   183   92   93 2    
   184   92   94 am   BACKBONE|DICT|INTERRES
   185   94   95 1    
   186   94  215 1    
   187   95   96 1    
   188   95   97 1    
   189   95  216 1    
   190   96  217 1    
   191   96  218 1    
   192   96  219 1    
   193   97   98 2    
   194   97   99 am   BACKBONE|DICT|INTERRES
   195   99  100 1    
   196   99  220 1    
   197  100  101 1    
   198  100  102 1    
   199  100  221 1    
   200  101  222 1    
   201  101  223 1    
   202  101  224 1    
   203  102  103 2    
   204  102  104 am   BACKBONE|DICT|INTERRES
   205  104  105 1    
   206  104  225 1    
   207  105  106 1    
   208  105  107 1    
   209  105  226 1    
   210  106  227 1    
   211  106  228 1    
   212  106  229 1    
   213  107  108 2    
   214  107  109 am   BACKBONE|DICT|INTERRES
   215  109  110 1    
   216  109  230 1    
   217  110  111 1    
   218  110  112 1    
   219  110  231 1    
   220  111  232 1    
   221  111  233 1    
   222  111  234 1    
   223  112  113 2    
   224  112  114 am   BACKBONE|DICT|INTERRES
   225  114  115 1    
   226  114  235 1    
   227  115  116 1    
   228  115  117 1    
   229  115  236 1    
   230  116  237 1    
   231  116  238 1    
   232  116  239 1    
   233  117  118 2    
   234  117  119 am   BACKBONE|DICT|INTERRES
   235  119  120 1    
   236  119  240 1    
   237  120  121 1    
   238  120  124 1    
   239  120  241 1    
   240  121  122 am   BACKBONE|DICT|INTERRES
   241  121  123 2    
   242  122  242 1    
   243  122  243 1    
   244  124  125 1    
   245  124  244 1    
   246  124  245 1    
   247  125  126 1    
   248  126  246 1    
   249  126  247 1    
@<TRIPOS>SUBSTRUCTURE
     1 UNK         1 GROUP             0       ****    0 ROOT    
