@<TRIPOS>MOLECULE
3R540
247   249    1
SMALL
USER_CHARGES


@<TRIPOS>ATOM
      1 CA          5.1711   -9.3972  -51.9046 C.3       0 UNK        -0.1800 
      2 C           4.7431  -10.3101  -50.7631 C.2       0 UNK         0.5000 
      3 O           3.7475  -10.0185  -50.1022 O.2       0 UNK        -0.5000 
      4 N           5.5010  -11.3954  -50.5482 N.am      1 UNK        -0.5000 
      5 CA          5.3443  -12.4416  -49.5251 C.3       1 UNK         0.1400 
      6 C6          4.2002  -13.4574  -49.8342 C.3       23 UNK        -0.0398 
      7 S7          2.4930  -12.9264  -49.4432 S.3       23 UNK        -0.2404 
      8 C8          1.9586  -14.1610  -48.2141 C.3       23 UNK        -0.0205 
      9 C9          1.6329  -15.4969  -48.8623 C.ar      23 UNK        -0.0193 
     10 C10         0.4025  -15.6776  -49.5013 C.ar      23 UNK        -0.1150 
     11 C11         0.0796  -16.9004  -50.0952 C.ar      23 UNK        -0.0193 
     12 C12         1.0161  -17.9377  -50.0612 C.ar      23 UNK        -0.1150 
     13 C13         2.2411  -17.7814  -49.4073 C.ar      23 UNK        -0.0193 
     14 C14         2.5440  -16.5566  -48.8066 C.ar      23 UNK        -0.1150 
     15 C15         3.2296  -18.9396  -49.3516 C.3       23 UNK        -0.0205 
     16 S16         2.8862  -20.0801  -47.9696 S.3       23 UNK        -0.2404 
     17 C17         1.2579  -20.7339  -48.4610 C.3       23 UNK        -0.0398 
     18 CA          0.8313  -22.0116  -47.7090 C.3       11 UNK         0.1400 
     19 N           0.6187  -21.7911  -46.2752 N.am      11 UNK        -0.5000 
     20 C           0.3434  -22.7628  -45.3929 C.2       10 UNK         0.5000 
     21 O           0.3183  -23.9601  -45.6805 O.2       10 UNK        -0.5000 
     22 CA         -0.0286  -22.3240  -43.9652 C.3       10 UNK         0.1400 
     23 CB          1.2266  -22.0158  -43.1357 C.3       10 UNK        -0.1800 
     24 N          -0.9374  -21.1756  -43.9522 N.am      10 UNK        -0.5000 
     25 C          -2.1873  -21.1992  -44.4382 C.2       9 UNK         0.5000 
     26 O          -2.7180  -22.2105  -44.8956 O.2       9 UNK        -0.5000 
     27 CA         -2.9660  -19.8707  -44.4570 C.3       9 UNK         0.1400 
     28 CB         -3.5986  -19.5894  -43.0866 C.3       9 UNK        -0.1800 
     29 N          -2.1433  -18.7320  -44.8637 N.am      9 UNK        -0.5000 
     30 C          -1.5679  -18.5973  -46.0675 C.2       8 UNK         0.5000 
     31 O          -1.7057  -19.4042  -46.9859 O.2       8 UNK        -0.5000 
     32 CA         -0.6300  -17.3904  -46.2529 C.3       8 UNK         0.1400 
     33 CB         -1.4290  -16.1130  -46.5514 C.3       8 UNK        -0.1800 
     34 N           0.2346  -17.1736  -45.0912 N.am      8 UNK        -0.5000 
     35 C           1.1413  -18.0593  -44.6527 C.2       7 UNK         0.5000 
     36 O           1.3632  -19.1395  -45.1965 O.2       7 UNK        -0.5000 
     37 CA          1.8689  -17.7102  -43.3447 C.3       7 UNK         0.1400 
     38 CB          2.9793  -16.6778  -43.5867 C.3       7 UNK        -0.1800 
     39 N           0.9385  -17.2151  -42.3304 N.am      7 UNK        -0.5000 
     40 C           0.0167  -17.9790  -41.7247 C.2       6 UNK         0.5000 
     41 O          -0.1063  -19.1864  -41.9255 O.2       6 UNK        -0.5000 
     42 CA         -0.9569  -17.2737  -40.7623 C.3       6 UNK         0.1400 
     43 CB         -0.3750  -17.2355  -39.3416 C.3       6 UNK        -0.1800 
     44 N          -1.2927  -15.9130  -41.1812 N.am      6 UNK        -0.5000 
     45 C          -1.9321  -15.5906  -42.3153 C.2       5 UNK         0.5000 
     46 O          -2.3542  -16.4204  -43.1197 O.2       5 UNK        -0.5000 
     47 CA         -2.0800  -14.0876  -42.6215 C.3       5 UNK         0.1400 
     48 CB         -3.4324  -13.5651  -42.1155 C.3       5 UNK        -0.1800 
     49 N          -1.0001  -13.2833  -42.0403 N.am      5 UNK        -0.5000 
     50 C           0.2800  -13.3510  -42.4281 C.2       4 UNK         0.5000 
     51 O           0.6776  -14.0690  -43.3480 O.2       4 UNK        -0.5000 
     52 CA          1.2935  -12.5467  -41.5976 C.3       4 UNK         0.1400 
     53 CB          2.1745  -13.4960  -40.7693 C.3       4 UNK        -0.1800 
     54 N           2.1486  -11.7215  -42.4452 N.am      4 UNK        -0.5000 
     55 C           1.7564  -10.6004  -43.0648 C.2       3 UNK         0.5000 
     56 O           0.6239  -10.1263  -42.9636 O.2       3 UNK        -0.5000 
     57 CA          2.8087   -9.8682  -43.9222 C.3       3 UNK         0.1400 
     58 CB          3.4111   -8.6905  -43.1400 C.3       3 UNK        -0.1800 
     59 N           3.8959  -10.7383  -44.3799 N.am      3 UNK        -0.5000 
     60 C           3.7689  -11.6421  -45.3586 C.2       2 UNK         0.5000 
     61 O           2.7175  -11.8441  -45.9685 O.2       2 UNK        -0.5000 
     62 CA          5.0173  -12.4858  -45.6775 C.3       2 UNK         0.1400 
     63 CB          4.9896  -13.8000  -44.8826 C.3       2 UNK        -0.1800 
     64 N           5.1028  -12.8025  -47.1023 N.am      2 UNK        -0.5000 
     65 C           5.4019  -11.9206  -48.0648 C.2       1 UNK         0.5000 
     66 O           5.7745  -10.7685  -47.8236 O.2       1 UNK        -0.5000 
     67 C          -0.4211  -22.6085  -48.3826 C.2       11 UNK         0.5000 
     68 O          -0.2939  -23.5731  -49.1343 O.2       11 UNK        -0.5000 
     69 N          -1.6043  -22.0504  -48.0858 N.am      12 UNK        -0.5000 
     70 CA         -2.8938  -22.5234  -48.5921 C.3       12 UNK         0.1400 
     71 CB         -4.0096  -21.5629  -48.1592 C.3       12 UNK        -0.1800 
     72 C          -3.2166  -23.9599  -48.1505 C.2       12 UNK         0.5000 
     73 O          -3.6912  -24.7474  -48.9675 O.2       12 UNK        -0.5000 
     74 N          -2.9194  -24.2865  -46.8854 N.am      13 UNK        -0.5000 
     75 CA         -3.0482  -25.6293  -46.3216 C.3       13 UNK         0.1400 
     76 CB         -2.8265  -25.5779  -44.8025 C.3       13 UNK        -0.1800 
     77 C          -2.0954  -26.6397  -46.9849 C.2       13 UNK         0.5000 
     78 O          -2.5272  -27.7430  -47.3189 O.2       13 UNK        -0.5000 
     79 N          -0.8357  -26.2349  -47.2049 N.am      14 UNK        -0.5000 
     80 CA          0.1824  -27.0265  -47.9011 C.3       14 UNK         0.1400 
     81 CB          1.5520  -26.3469  -47.7526 C.3       14 UNK        -0.1800 
     82 C          -0.1542  -27.2644  -49.3864 C.2       14 UNK         0.5000 
     83 O           0.0620  -28.3665  -49.8913 O.2       14 UNK        -0.5000 
     84 N          -0.7079  -26.2389  -50.0471 N.am      15 UNK        -0.5000 
     85 CA         -1.1985  -26.2867  -51.4262 C.3       15 UNK         0.1400 
     86 CB         -1.3538  -24.8470  -51.9430 C.3       15 UNK        -0.1800 
     87 C          -2.5287  -27.0523  -51.5823 C.2       15 UNK         0.5000 
     88 O          -2.9052  -27.3696  -52.7105 O.2       15 UNK        -0.5000 
     89 N          -3.2188  -27.3109  -50.4616 N.am      16 UNK        -0.5000 
     90 CA         -4.5484  -27.9156  -50.3429 C.3       16 UNK         0.1400 
     91 CB         -4.5315  -29.3854  -50.8123 C.3       16 UNK        -0.1800 
     92 C          -5.6419  -27.0640  -51.0226 C.2       16 UNK         0.5000 
     93 O          -6.5191  -27.6069  -51.6971 O.2       16 UNK        -0.5000 
     94 N          -5.5553  -25.7393  -50.8223 N.am      17 UNK        -0.5000 
     95 CA         -6.4187  -24.6882  -51.3692 C.3       17 UNK         0.1400 
     96 CB         -7.8199  -24.7482  -50.7278 C.3       17 UNK        -0.1800 
     97 C          -6.4526  -24.7048  -52.9109 C.2       17 UNK         0.5000 
     98 O          -7.5210  -24.8236  -53.5151 O.2       17 UNK        -0.5000 
     99 N          -5.2621  -24.6047  -53.5179 N.am      18 UNK        -0.5000 
    100 CA        -5.0596  -24.5577  -54.9690 C.3       18 UNK         0.1400 
    101 CB        -3.5583  -24.6743  -55.2707 C.3       18 UNK        -0.1800 
    102 C         -5.6404  -23.2887  -55.6242 C.2       18 UNK         0.5000 
    103 O         -6.0042  -23.3219  -56.8007 O.2       18 UNK        -0.5000 
    104 N         -5.7313  -22.2072  -54.8460 N.am      19 UNK        -0.5000 
    105 CA        -6.3931  -20.9554  -55.1838 C.3       19 UNK         0.1400 
    106 CB        -5.3388  -19.9455  -55.6656 C.3       19 UNK        -0.1800 
    107 C         -7.1464  -20.4533  -53.9417 C.2       19 UNK         0.5000 
    108 O         -7.0042  -21.0304  -52.8591 O.2       19 UNK        -0.5000 
    109 N         -7.9370  -19.3862  -54.1151 N.am      20 UNK        -0.5000 
    110 CA        -8.7155  -18.7247  -53.0653 C.3       20 UNK         0.1400 
    111 CB        -9.5669  -17.6119  -53.6997 C.3       20 UNK        -0.1800 
    112 C         -7.8114  -18.1805  -51.9410 C.2       20 UNK         0.5000 
    113 O         -7.2117  -17.1153  -52.0989 O.2       20 UNK        -0.5000 
    114 N         -7.7015  -18.9617  -50.8568 N.am      21 UNK        -0.5000 
    115 CA        -6.8172  -18.7662  -49.7038 C.3       21 UNK         0.1400 
    116 CB        -7.2521  -17.5345  -48.8820 C.3       21 UNK        -0.1800 
    117 C         -5.3199  -18.7433  -50.0844 C.2       21 UNK         0.5000 
    118 O         -4.5496  -17.9875  -49.4906 O.2       21 UNK        -0.5000 
    119 N         -4.9289  -19.5731  -51.0613 N.am      22 UNK        -0.5000 
    120 CA        -3.5496  -19.7062  -51.5468 C.3       22 UNK         0.1400 
    121 C         -3.3129  -21.0688  -52.2608 C.2       22 UNK         0.5000 
    122 N         -2.1538  -21.2683  -52.8705 N.am      22 UNK        -0.7600 
    123 O         -4.1562  -21.9627  -52.2533 O.2       22 UNK        -0.5000 
    124 C124       -3.0970  -18.4633  -52.3732 C.3       23 UNK        -0.0398 
    125 S125       -1.3134  -18.1162  -52.2159 S.3       23 UNK        -0.2404 
    126 C126       -1.3077  -17.1099  -50.6938 C.3       23 UNK        -0.0205 
    127 H127        6.0633   -9.7674  -52.4104 H         1 UNK         0.0600 
    128 H128        5.3862   -8.3982  -51.5254 H         1 UNK         0.0600 
    129 H129        4.3718   -9.3182  -52.6415 H         1 UNK         0.0600 
    130 H130        6.3146  -11.5165  -51.1348 H         1 UNK         0.3000 
    131 H131        6.2686  -13.0135  -49.6216 H         1 UNK         0.0600 
    132 H132        4.4050  -14.3972  -49.3223 H         1 UNK         0.0800 
    133 H133        4.2244  -13.7136  -50.8941 H         1 UNK         0.0800 
    134 H134        1.0722  -13.7805  -47.7044 H         1 UNK         0.0800 
    135 H135        2.7158  -14.2791  -47.4393 H         1 UNK         0.0800 
    136 H136       -0.3115  -14.8661  -49.5184 H         1 UNK         0.1150 
    137 H137        0.7778  -18.8849  -50.5208 H         1 UNK         0.1150 
    138 H138        3.4878  -16.4319  -48.2953 H         1 UNK         0.1150 
    139 H139        3.2138  -19.4906  -50.2931 H         1 UNK         0.0800 
    140 H140        4.2453  -18.5562  -49.2441 H         1 UNK         0.0800 
    141 H141        1.2965  -20.9316  -49.5340 H         1 UNK         0.0800 
    142 H142        0.5148  -19.9507  -48.3102 H         1 UNK         0.0800 
    143 H143        1.6329  -22.7463  -47.8097 H         1 UNK         0.0600 
    144 H144        0.6793  -20.8306  -45.9480 H         1 UNK         0.3000 
    145 H145       -0.5459  -23.1595  -43.4892 H         1 UNK         0.0600 
    146 H146        0.9681  -21.7840  -42.1025 H         1 UNK         0.0600 
    147 H147        1.7826  -21.1698  -43.5388 H         1 UNK         0.0600 
    148 H148        1.9012  -22.8726  -43.1176 H         1 UNK         0.0600 
    149 H149       -0.5821  -20.3184  -43.5420 H         1 UNK         0.3000 
    150 H150       -3.7720  -19.9698  -45.1867 H         1 UNK         0.0600 
    151 H151       -4.2577  -20.4051  -42.7870 H         1 UNK         0.0600 
    152 H152       -4.1962  -18.6778  -43.1070 H         1 UNK         0.0600 
    153 H153       -2.8425  -19.4769  -42.3100 H         1 UNK         0.0600 
    154 H154       -2.0227  -17.9889  -44.1811 H         1 UNK         0.3000 
    155 H155        0.0144  -17.5993  -47.1091 H         1 UNK         0.0600 
    156 H156       -2.1085  -15.8584  -45.7382 H         1 UNK         0.0600 
    157 H157       -2.0293  -16.2352  -47.4541 H         1 UNK         0.0600 
    158 H158       -0.7674  -15.2622  -46.7126 H         1 UNK         0.0600 
    159 H159        0.1018  -16.3167  -44.5725 H         1 UNK         0.3000 
    160 H160        2.3343  -18.6227  -42.9655 H         1 UNK         0.0600 
    161 H161        2.5800  -15.7403  -43.9717 H         1 UNK         0.0600 
    162 H162        3.7024  -17.0481  -44.3146 H         1 UNK         0.0600 
    163 H163        3.5241  -16.4590  -42.6683 H         1 UNK         0.0600 
    164 H164        0.9459  -16.2214  -42.1520 H         1 UNK         0.3000 
    165 H165       -1.8810  -17.8544  -40.7385 H         1 UNK         0.0600 
    166 H166       -1.0870  -16.8093  -38.6346 H         1 UNK         0.0600 
    167 H167       -0.1341  -18.2404  -38.9920 H         1 UNK         0.0600 
    168 H168        0.5403  -16.6439  -39.2959 H         1 UNK         0.0600 
    169 H169       -0.9928  -15.1650  -40.5743 H         1 UNK         0.3000 
    170 H170       -2.0495  -13.9675  -43.7066 H         1 UNK         0.0600 
    171 H171       -4.2567  -14.1321  -42.5504 H         1 UNK         0.0600 
    172 H172       -3.5158  -13.6442  -41.0308 H         1 UNK         0.0600 
    173 H173       -3.5788  -12.5200  -42.3891 H         1 UNK         0.0600 
    174 H174       -1.2545  -12.6660  -41.2823 H         1 UNK         0.3000 
    175 H175        0.7554  -11.8922  -40.9084 H         1 UNK         0.0600 
    176 H176        2.7606  -14.1615  -41.4049 H         1 UNK         0.0600 
    177 H177        2.8680  -12.9398  -40.1384 H         1 UNK         0.0600 
    178 H178        1.5682  -14.1201  -40.1115 H         1 UNK         0.0600 
    179 H179        3.0845  -12.0580  -42.6112 H         1 UNK         0.3000 
    180 H180        2.2948   -9.4655  -44.7978 H         1 UNK         0.0600 
    181 H181        4.1038   -8.1191  -43.7582 H         1 UNK         0.0600 
    182 H182        3.9500   -9.0285  -42.2540 H         1 UNK         0.0600 
    183 H183        2.6322   -8.0028  -42.8076 H         1 UNK         0.0600 
    184 H184        4.7881  -10.6268  -43.9198 H         1 UNK         0.3000 
    185 H185        5.9089  -11.9236  -45.3915 H         1 UNK         0.0600 
    186 H186        4.1369  -14.4168  -45.1664 H         1 UNK         0.0600 
    187 H187        5.8954  -14.3829  -45.0503 H         1 UNK         0.0600 
    188 H188        4.9180  -13.6129  -43.8104 H         1 UNK         0.0600 
    189 H189        4.8101  -13.7300  -47.3650 H         1 UNK         0.3000 
    190 H190       -1.6246  -21.2215  -47.4962 H         1 UNK         0.3000 
    191 H191       -2.8392  -22.5148  -49.6818 H         1 UNK         0.0600 
    192 H192       -3.7615  -20.5336  -48.4127 H         1 UNK         0.0600 
    193 H193       -4.1861  -21.6030  -47.0846 H         1 UNK         0.0600 
    194 H194       -4.9482  -21.8089  -48.6572 H         1 UNK         0.0600 
    195 H195       -2.5939  -23.5570  -46.2567 H         1 UNK         0.3000 
    196 H196       -4.0703  -25.9687  -46.5025 H         1 UNK         0.0600 
    197 H197       -3.5505  -24.9199  -44.3217 H         1 UNK         0.0600 
    198 H198       -1.8294  -25.2159  -44.5514 H         1 UNK         0.0600 
    199 H199       -2.9393  -26.5672  -44.3575 H         1 UNK         0.0600 
    200 H200       -0.5476  -25.3227  -46.8634 H         1 UNK         0.3000 
    201 H201        0.2354  -28.0025  -47.4143 H         1 UNK         0.0600 
    202 H202        1.8281  -26.2430  -46.7031 H         1 UNK         0.0600 
    203 H203        1.5599  -25.3524  -48.1991 H         1 UNK         0.0600 
    204 H204        2.3335  -26.9319  -48.2389 H         1 UNK         0.0600 
    205 H205       -0.7716  -25.3380  -49.5785 H         1 UNK         0.3000 
    206 H206       -0.4519  -26.7935  -52.0408 H         1 UNK         0.0600 
    207 H207       -2.1100  -24.2968  -51.3815 H         1 UNK         0.0600 
    208 H208       -0.4158  -24.2965  -51.8682 H         1 UNK         0.0600 
    209 H209       -1.6494  -24.8383  -52.9916 H         1 UNK         0.0600 
    210 H210       -2.8237  -26.9754  -49.5930 H         1 UNK         0.3000 
    211 H211       -4.7842  -27.9154  -49.2778 H         1 UNK         0.0600 
    212 H212       -4.3600  -29.4685  -51.8858 H         1 UNK         0.0600 
    213 H213       -5.4817  -29.8745  -50.5951 H         1 UNK         0.0600 
    214 H214       -3.7518  -29.9515  -50.3027 H         1 UNK         0.0600 
    215 H215       -4.7987  -25.4074  -50.2249 H         1 UNK         0.3000 
    216 H216       -5.9687  -23.7370  -51.0803 H         1 UNK         0.0600 
    217 H217       -8.4366  -23.9146  -51.0658 H         1 UNK         0.0600 
    218 H218       -7.7575  -24.6863  -49.6414 H         1 UNK         0.0600 
    219 H219       -8.3452  -25.6692  -50.9822 H         1 UNK         0.0600 
    220 H220       -4.4412  -24.4841  -52.9427 H         1 UNK         0.3000 
    221 H221       -5.5669  -25.4192  -55.4077 H         1 UNK         0.0600 
    222 H222       -2.9976  -23.8442  -54.8397 H         1 UNK         0.0600 
    223 H223       -3.1475  -25.6036  -54.8763 H         1 UNK         0.0600 
    224 H224       -3.3748  -24.6706  -56.3458 H         1 UNK         0.0600 
    225 H225       -5.4403  -22.2787  -53.8744 H         1 UNK         0.3000 
    226 H226       -7.1301  -21.1199  -55.9725 H         1 UNK         0.0600 
    227 H227       -4.8469  -20.2981  -56.5723 H         1 UNK         0.0600 
    228 H228       -5.7841  -18.9770  -55.8952 H         1 UNK         0.0600 
    229 H229       -4.5685  -19.7878  -54.9128 H         1 UNK         0.0600 
    230 H230       -7.9829  -18.9619  -55.0299 H         1 UNK         0.3000 
    231 H231       -9.3981  -19.4617  -52.6370 H         1 UNK         0.0600 
    232 H232      -10.1546  -17.0916  -52.9423 H         1 UNK         0.0600 
    233 H233      -10.2668  -18.0184  -54.4300 H         1 UNK         0.0600 
    234 H234       -8.9500  -16.8676  -54.2049 H         1 UNK         0.0600 
    235 H235       -8.1898  -19.8467  -50.8746 H         1 UNK         0.3000 
    236 H236       -6.9479  -19.6439  -49.0693 H         1 UNK         0.0600 
    237 H237       -7.0916  -16.6050  -49.4289 H         1 UNK         0.0600 
    238 H238       -8.3078  -17.5900  -48.6166 H         1 UNK         0.0600 
    239 H239       -6.6882  -17.4667  -47.9509 H         1 UNK         0.0600 
    240 H240       -5.6023  -20.1917  -51.5039 H         1 UNK         0.3000 
    241 H241       -2.9313  -19.7681  -50.6493 H         1 UNK         0.0600 
    242 H242       -1.9809  -22.1469  -53.3285 H         1 UNK         0.3800 
    243 H243       -1.4486  -20.5467  -52.8894 H         1 UNK         0.3800 
    244 H244       -3.6329  -17.5663  -52.0603 H         1 UNK         0.0800 
    245 H245       -3.3392  -18.5827  -53.4286 H         1 UNK         0.0800 
    246 H246       -1.7812  -16.1508  -50.9088 H         1 UNK         0.0800 
    247 H247       -1.9220  -17.5986  -49.9366 H         1 UNK         0.0800 
@<TRIPOS>BOND
     1    1    2 1    
     2    1  127 1    
     3    1  128 1    
     4    1  129 1    
     5    2    3 2    
     6    2    4 am   BACKBONE|DICT|INTERRES
     7    4    5 1    
     8    4  130 1    
     9    5    6 1    
    10    5   65 1    
    11    5  131 1    
    12    6    7 1    
    13    6  132 1    
    14    6  133 1    
    15    7    8 1    
    16    8    9 1    
    17    8  134 1    
    18    8  135 1    
    19    9   10 ar   
    20    9   14 ar   
    21   10   11 ar   
    22   10  136 1    
    23   11   12 ar   
    24   11  126 1    
    25   12   13 ar   
    26   12  137 1    
    27   13   14 ar   
    28   13   15 1    
    29   14  138 1    
    30   15   16 1    
    31   15  139 1    
    32   15  140 1    
    33   16   17 1    
    34   17   18 1    
    35   17  141 1    
    36   17  142 1    
    37   18   19 1    
    38   18   67 1    
    39   18  143 1    
    40   19   20 am   BACKBONE|DICT|INTERRES
    41   19  144 1    
    42   20   21 2    
    43   20   22 1    
    44   22   23 1    
    45   22   24 1    
    46   22  145 1    
    47   23  146 1    
    48   23  147 1    
    49   23  148 1    
    50   24   25 am   BACKBONE|DICT|INTERRES
    51   24  149 1    
    52   25   26 2    
    53   25   27 1    
    54   27   28 1    
    55   27   29 1    
    56   27  150 1    
    57   28  151 1    
    58   28  152 1    
    59   28  153 1    
    60   29   30 am   BACKBONE|DICT|INTERRES
    61   29  154 1    
    62   30   31 2    
    63   30   32 1    
    64   32   33 1    
    65   32   34 1    
    66   32  155 1    
    67   33  156 1    
    68   33  157 1    
    69   33  158 1    
    70   34   35 am   BACKBONE|DICT|INTERRES
    71   34  159 1    
    72   35   36 2    
    73   35   37 1    
    74   37   38 1    
    75   37   39 1    
    76   37  160 1    
    77   38  161 1    
    78   38  162 1    
    79   38  163 1    
    80   39   40 am   BACKBONE|DICT|INTERRES
    81   39  164 1    
    82   40   41 2    
    83   40   42 1    
    84   42   43 1    
    85   42   44 1    
    86   42  165 1    
    87   43  166 1    
    88   43  167 1    
    89   43  168 1    
    90   44   45 am   BACKBONE|DICT|INTERRES
    91   44  169 1    
    92   45   46 2    
    93   45   47 1    
    94   47   48 1    
    95   47   49 1    
    96   47  170 1    
    97   48  171 1    
    98   48  172 1    
    99   48  173 1    
   100   49   50 am   BACKBONE|DICT|INTERRES
   101   49  174 1    
   102   50   51 2    
   103   50   52 1    
   104   52   53 1    
   105   52   54 1    
   106   52  175 1    
   107   53  176 1    
   108   53  177 1    
   109   53  178 1    
   110   54   55 am   BACKBONE|DICT|INTERRES
   111   54  179 1    
   112   55   56 2    
   113   55   57 1    
   114   57   58 1    
   115   57   59 1    
   116   57  180 1    
   117   58  181 1    
   118   58  182 1    
   119   58  183 1    
   120   59   60 am   BACKBONE|DICT|INTERRES
   121   59  184 1    
   122   60   61 2    
   123   60   62 1    
   124   62   63 1    
   125   62   64 1    
   126   62  185 1    
   127   63  186 1    
   128   63  187 1    
   129   63  188 1    
   130   64   65 am   BACKBONE|DICT|INTERRES
   131   64  189 1    
   132   65   66 2    
   133   67   68 2    
   134   67   69 am   BACKBONE|DICT|INTERRES
   135   69   70 1    
   136   69  190 1    
   137   70   71 1    
   138   70   72 1    
   139   70  191 1    
   140   71  192 1    
   141   71  193 1    
   142   71  194 1    
   143   72   73 2    
   144   72   74 am   BACKBONE|DICT|INTERRES
   145   74   75 1    
   146   74  195 1    
   147   75   76 1    
   148   75   77 1    
   149   75  196 1    
   150   76  197 1    
   151   76  198 1    
   152   76  199 1    
   153   77   78 2    
   154   77   79 am   BACKBONE|DICT|INTERRES
   155   79   80 1    
   156   79  200 1    
   157   80   81 1    
   158   80   82 1    
   159   80  201 1    
   160   81  202 1    
   161   81  203 1    
   162   81  204 1    
   163   82   83 2    
   164   82   84 am   BACKBONE|DICT|INTERRES
   165   84   85 1    
   166   84  205 1    
   167   85   86 1    
   168   85   87 1    
   169   85  206 1    
   170   86  207 1    
   171   86  208 1    
   172   86  209 1    
   173   87   88 2    
   174   87   89 am   BACKBONE|DICT|INTERRES
   175   89   90 1    
   176   89  210 1    
   177   90   91 1    
   178   90   92 1    
   179   90  211 1    
   180   91  212 1    
   181   91  213 1    
   182   91  214 1    
   183   92   93 2    
   184   92   94 am   BACKBONE|DICT|INTERRES
   185   94   95 1    
   186   94  215 1    
   187   95   96 1    
   188   95   97 1    
   189   95  216 1    
   190   96  217 1    
   191   96  218 1    
   192   96  219 1    
   193   97   98 2    
   194   97   99 am   BACKBONE|DICT|INTERRES
   195   99  100 1    
   196   99  220 1    
   197  100  101 1    
   198  100  102 1    
   199  100  221 1    
   200  101  222 1    
   201  101  223 1    
   202  101  224 1    
   203  102  103 2    
   204  102  104 am   BACKBONE|DICT|INTERRES
   205  104  105 1    
   206  104  225 1    
   207  105  106 1    
   208  105  107 1    
   209  105  226 1    
   210  106  227 1    
   211  106  228 1    
   212  106  229 1    
   213  107  108 2    
   214  107  109 am   BACKBONE|DICT|INTERRES
   215  109  110 1    
   216  109  230 1    
   217  110  111 1    
   218  110  112 1    
   219  110  231 1    
   220  111  232 1    
   221  111  233 1    
   222  111  234 1    
   223  112  113 2    
   224  112  114 am   BACKBONE|DICT|INTERRES
   225  114  115 1    
   226  114  235 1    
   227  115  116 1    
   228  115  117 1    
   229  115  236 1    
   230  116  237 1    
   231  116  238 1    
   232  116  239 1    
   233  117  118 2    
   234  117  119 am   BACKBONE|DICT|INTERRES
   235  119  120 1    
   236  119  240 1    
   237  120  121 1    
   238  120  124 1    
   239  120  241 1    
   240  121  122 am   BACKBONE|DICT|INTERRES
   241  121  123 2    
   242  122  242 1    
   243  122  243 1    
   244  124  125 1    
   245  124  244 1    
   246  124  245 1    
   247  125  126 1    
   248  126  246 1    
   249  126  247 1    
@<TRIPOS>SUBSTRUCTURE
     1 UNK         1 GROUP             0       ****    0 ROOT    
