@<TRIPOS>MOLECULE
3R540
247   249    1
SMALL
USER_CHARGES


@<TRIPOS>ATOM
      1 CA          2.9470   -9.5533  -51.3301 C.3       0 UNK        -0.1800 
      2 C           2.8557  -10.8875  -50.6026 C.2       0 UNK         0.5000 
      3 O           3.8778  -11.5419  -50.3924 O.2       0 UNK        -0.5000 
      4 N           1.6375  -11.2954  -50.2281 N.am      1 UNK        -0.5000 
      5 CA          1.3547  -12.5254  -49.4785 C.3       1 UNK         0.1400 
      6 C6         -0.1268  -12.9681  -49.6192 C.3       23 UNK        -0.0398 
      7 S7         -0.6830  -13.1098  -51.3560 S.3       23 UNK        -0.2404 
      8 C8          0.1436  -14.6329  -51.9183 C.3       23 UNK        -0.0205 
      9 C9         -0.6946  -15.8792  -51.6773 C.ar      23 UNK        -0.0193 
     10 C10        -1.4911  -16.3959  -52.7023 C.ar      23 UNK        -0.1150 
     11 C11        -2.2118  -17.5798  -52.5187 C.ar      23 UNK        -0.0193 
     12 C12        -2.1468  -18.2411  -51.2873 C.ar      23 UNK        -0.1150 
     13 C13        -1.3629  -17.7258  -50.2493 C.ar      23 UNK        -0.0193 
     14 C14        -0.6384  -16.5474  -50.4523 C.ar      23 UNK        -0.1150 
     15 C15        -1.2842  -18.4300  -48.9042 C.3       23 UNK        -0.0205 
     16 S16         0.3382  -19.2229  -48.6728 S.3       23 UNK        -0.2404 
     17 C17         0.3514  -19.4811  -46.8667 C.3       23 UNK        -0.0398 
     18 CA          0.1451  -20.9582  -46.4583 C.3       11 UNK         0.1400 
     19 N           0.5575  -21.1981  -45.0761 N.am      11 UNK        -0.5000 
     20 C           0.7072  -22.4065  -44.5171 C.2       10 UNK         0.5000 
     21 O           0.5969  -23.4663  -45.1334 O.2       10 UNK        -0.5000 
     22 CA          0.9896  -22.4346  -43.0031 C.3       10 UNK         0.1400 
     23 CB          2.4879  -22.2472  -42.7225 C.3       10 UNK        -0.1800 
     24 N           0.2204  -21.4298  -42.2650 N.am      10 UNK        -0.5000 
     25 C          -1.1185  -21.4118  -42.1864 C.2       9 UNK         0.5000 
     26 O          -1.8445  -22.2662  -42.6952 O.2       9 UNK        -0.5000 
     27 CA         -1.7576  -20.2171  -41.4569 C.3       9 UNK         0.1400 
     28 CB         -1.6882  -20.4080  -39.9346 C.3       9 UNK        -0.1800 
     29 N          -1.1515  -18.9367  -41.8264 N.am      9 UNK        -0.5000 
     30 C          -1.1812  -18.4091  -43.0591 C.2       8 UNK         0.5000 
     31 O          -1.7532  -18.9325  -44.0130 O.2       8 UNK        -0.5000 
     32 CA         -0.3916  -17.1097  -43.2869 C.3       8 UNK         0.1400 
     33 CB         -1.1669  -15.8938  -42.7604 C.3       8 UNK        -0.1800 
     34 N           0.9359  -17.1531  -42.6786 N.am      8 UNK        -0.5000 
     35 C           1.9005  -18.0234  -43.0068 C.2       7 UNK         0.5000 
     36 O           1.7929  -18.8585  -43.9037 O.2       7 UNK        -0.5000 
     37 CA          3.1792  -17.9889  -42.1542 C.3       7 UNK         0.1400 
     38 CB          4.1254  -16.8708  -42.6143 C.3       7 UNK        -0.1800 
     39 N           2.8800  -17.8249  -40.7326 N.am      7 UNK        -0.5000 
     40 C           2.2970  -18.7608  -39.9712 C.2       6 UNK         0.5000 
     41 O           1.9727  -19.8754  -40.3819 O.2       6 UNK        -0.5000 
     42 CA          1.9916  -18.3642  -38.5159 C.3       6 UNK         0.1400 
     43 CB          3.2481  -18.4907  -37.6414 C.3       6 UNK        -0.1800 
     44 N           1.4553  -17.0060  -38.4065 N.am      6 UNK        -0.5000 
     45 C           0.2566  -16.6335  -38.8756 C.2       5 UNK         0.5000 
     46 O          -0.5228  -17.3975  -39.4432 O.2       5 UNK        -0.5000 
     47 CA         -0.1222  -15.1503  -38.7176 C.3       5 UNK         0.1400 
     48 CB         -0.6972  -14.8865  -37.3179 C.3       5 UNK        -0.1800 
     49 N           0.9780  -14.2163  -38.9760 N.am      5 UNK        -0.5000 
     50 C           1.6493  -14.1247  -40.1311 C.2       4 UNK         0.5000 
     51 O           1.5107  -14.9065  -41.0729 O.2       4 UNK        -0.5000 
     52 CA          2.6606  -12.9754  -40.2574 C.3       4 UNK         0.1400 
     53 CB          4.0979  -13.4984  -40.1130 C.3       4 UNK        -0.1800 
     54 N           2.5136  -12.3101  -41.5515 N.am      4 UNK        -0.5000 
     55 C           1.4990  -11.4941  -41.8727 C.2       3 UNK         0.5000 
     56 O           0.6157  -11.1614  -41.0810 O.2       3 UNK        -0.5000 
     57 CA          1.4660  -10.9449  -43.3103 C.3       3 UNK         0.1400 
     58 CB          2.1595   -9.5749  -43.3732 C.3       3 UNK        -0.1800 
     59 N           2.1064  -11.8447  -44.2711 N.am      3 UNK        -0.5000 
     60 C           1.4730  -12.8239  -44.9290 C.2       2 UNK         0.5000 
     61 O           0.2744  -13.0811  -44.8018 O.2       2 UNK        -0.5000 
     62 CA          2.3296  -13.6507  -45.9092 C.3       2 UNK         0.1400 
     63 CB          2.3101  -15.1373  -45.5185 C.3       2 UNK        -0.1800 
     64 N           1.9069  -13.5251  -47.3073 N.am      2 UNK        -0.5000 
     65 C           1.7612  -12.3817  -47.9934 C.2       1 UNK         0.5000 
     66 O           1.9393  -11.2613  -47.5070 O.2       1 UNK        -0.5000 
     67 C          -1.3028  -21.4306  -46.6990 C.2       11 UNK         0.5000 
     68 O          -1.5395  -22.1809  -47.6429 O.2       11 UNK        -0.5000 
     69 N          -2.2360  -21.0223  -45.8253 N.am      12 UNK        -0.5000 
     70 CA         -3.6593  -21.3685  -45.8841 C.3       12 UNK         0.1400 
     71 CB         -4.4170  -20.6360  -44.7673 C.3       12 UNK        -0.1800 
     72 C          -3.9326  -22.8825  -45.8170 C.2       12 UNK         0.5000 
     73 O          -4.8363  -23.3682  -46.4977 O.2       12 UNK        -0.5000 
     74 N          -3.1188  -23.6057  -45.0367 N.am      13 UNK        -0.5000 
     75 CA         -3.1563  -25.0624  -44.8955 C.3       13 UNK         0.1400 
     76 CB         -2.2337  -25.4706  -43.7362 C.3       13 UNK        -0.1800 
     77 C          -2.7897  -25.8421  -46.1775 C.2       13 UNK         0.5000 
     78 O          -3.0911  -27.0342  -46.2528 O.2       13 UNK        -0.5000 
     79 N          -2.1575  -25.1794  -47.1548 N.am      14 UNK        -0.5000 
     80 CA         -1.7362  -25.7582  -48.4299 C.3       14 UNK         0.1400 
     81 CB         -0.2454  -26.1350  -48.3447 C.3       14 UNK        -0.1800 
     82 C          -2.0401  -24.7976  -49.5936 C.2       14 UNK         0.5000 
     83 O          -1.2967  -24.7728  -50.5753 O.2       14 UNK        -0.5000 
     84 N          -3.1236  -24.0146  -49.4708 N.am      15 UNK        -0.5000 
     85 CA         -3.4658  -22.9034  -50.3662 C.3       15 UNK         0.1400 
     86 CB         -4.7433  -22.2203  -49.8642 C.3       15 UNK        -0.1800 
     87 C          -3.6203  -23.2999  -51.8439 C.2       15 UNK         0.5000 
     88 O          -3.2291  -22.5302  -52.7198 O.2       15 UNK        -0.5000 
     89 N          -4.1293  -24.5149  -52.0899 N.am      16 UNK        -0.5000 
     90 CA         -4.2884  -25.1085  -53.4187 C.3       16 UNK         0.1400 
     91 CB         -5.0434  -26.4389  -53.2835 C.3       16 UNK        -0.1800 
     92 C          -2.9617  -25.3151  -54.1774 C.2       16 UNK         0.5000 
     93 O          -2.9714  -25.3215  -55.4087 O.2       16 UNK        -0.5000 
     94 N          -1.8479  -25.4660  -53.4444 N.am      17 UNK        -0.5000 
     95 CA         -0.5034  -25.5649  -54.0125 C.3       17 UNK         0.1400 
     96 CB          0.4264  -26.2777  -53.0180 C.3       17 UNK        -0.1800 
     97 C           0.0665  -24.1880  -54.4016 C.2       17 UNK         0.5000 
     98 O           0.9219  -24.1249  -55.2856 O.2       17 UNK        -0.5000 
     99 N          -0.4138  -23.1146  -53.7553 N.am      18 UNK        -0.5000 
    100 CA        -0.0834  -21.7340  -54.1048 C.3       18 UNK         0.1400 
    101 CB        -0.3217  -20.8075  -52.9019 C.3       18 UNK        -0.1800 
    102 C         -0.8733  -21.2854  -55.3465 C.2       18 UNK         0.5000 
    103 O         -0.2682  -20.7765  -56.2908 O.2       18 UNK        -0.5000 
    104 N         -2.1898  -21.5365  -55.3525 N.am      19 UNK        -0.5000 
    105 CA        -3.0649  -21.3793  -56.5116 C.3       19 UNK         0.1400 
    106 CB        -3.3326  -19.8929  -56.8198 C.3       19 UNK        -0.1800 
    107 C         -4.3929  -22.0914  -56.2416 C.2       19 UNK         0.5000 
    108 O         -4.8966  -22.0420  -55.1177 O.2       19 UNK        -0.5000 
    109 N         -4.9940  -22.6611  -57.2931 N.am      20 UNK        -0.5000 
    110 CA        -6.3172  -23.2954  -57.2484 C.3       20 UNK         0.1400 
    111 CB        -6.5851  -23.9922  -58.5908 C.3       20 UNK        -0.1800 
    112 C         -7.4609  -22.3158  -56.9070 C.2       20 UNK         0.5000 
    113 O         -8.4940  -22.7443  -56.3925 O.2       20 UNK        -0.5000 
    114 N         -7.2444  -21.0202  -57.1774 N.am      21 UNK        -0.5000 
    115 CA        -8.1250  -19.9209  -56.7839 C.3       21 UNK         0.1400 
    116 CB        -7.7215  -18.6578  -57.5603 C.3       21 UNK        -0.1800 
    117 C         -8.1048  -19.6477  -55.2663 C.2       21 UNK         0.5000 
    118 O         -9.1201  -19.2090  -54.7238 O.2       21 UNK        -0.5000 
    119 N         -6.9642  -19.9081  -54.6132 N.am      22 UNK        -0.5000 
    120 CA        -6.8035  -19.8141  -53.1544 C.3       22 UNK         0.1400 
    121 C         -7.2254  -21.1337  -52.4569 C.2       22 UNK         0.5000 
    122 N         -6.8303  -22.2884  -52.9797 N.am      22 UNK        -0.7600 
    123 O         -7.9175  -21.1096  -51.4435 O.2       22 UNK        -0.5000 
    124 C124       -5.3644  -19.4190  -52.7334 C.3       23 UNK        -0.0398 
    125 S125       -4.8045  -17.8534  -53.4877 S.3       23 UNK        -0.2404 
    126 C126       -3.0188  -18.1563  -53.6722 C.3       23 UNK        -0.0205 
    127 H127        3.3895   -9.6929  -52.3165 H         1 UNK         0.0600 
    128 H128        3.5748   -8.8619  -50.7679 H         1 UNK         0.0600 
    129 H129        1.9666   -9.0941  -51.4594 H         1 UNK         0.0600 
    130 H130        0.8379  -10.7090  -50.4181 H         1 UNK         0.3000 
    131 H131        1.9836  -13.3135  -49.8958 H         1 UNK         0.0600 
    132 H132       -0.3013  -13.9198  -49.1173 H         1 UNK         0.0800 
    133 H133       -0.7810  -12.2478  -49.1247 H         1 UNK         0.0800 
    134 H134        1.1184  -14.7426  -51.4439 H         1 UNK         0.0800 
    135 H135        0.3488  -14.5326  -52.9852 H         1 UNK         0.0800 
    136 H136       -1.5312  -15.8860  -53.6548 H         1 UNK         0.1150 
    137 H137       -2.6980  -19.1596  -51.1429 H         1 UNK         0.1150 
    138 H138       -0.0142  -16.1650  -49.6579 H         1 UNK         0.1150 
    139 H139       -1.4575  -17.6961  -48.1158 H         1 UNK         0.0800 
    140 H140       -2.0702  -19.1813  -48.8101 H         1 UNK         0.0800 
    141 H141       -0.3709  -18.8277  -46.3756 H         1 UNK         0.0800 
    142 H142        1.3296  -19.1442  -46.5216 H         1 UNK         0.0800 
    143 H143        0.7952  -21.5705  -47.0875 H         1 UNK         0.0600 
    144 H144        0.7363  -20.3752  -44.5078 H         1 UNK         0.3000 
    145 H145        0.6947  -23.4178  -42.6307 H         1 UNK         0.0600 
    146 H146        2.8397  -21.2679  -43.0475 H         1 UNK         0.0600 
    147 H147        2.7042  -22.3435  -41.6584 H         1 UNK         0.0600 
    148 H148        3.0802  -22.9996  -43.2447 H         1 UNK         0.0600 
    149 H149        0.7518  -20.7118  -41.7830 H         1 UNK         0.3000 
    150 H150       -2.8104  -20.1796  -41.7432 H         1 UNK         0.0600 
    151 H151       -2.1335  -21.3586  -39.6385 H         1 UNK         0.0600 
    152 H152       -2.2318  -19.6191  -39.4146 H         1 UNK         0.0600 
    153 H153       -0.6596  -20.3988  -39.5730 H         1 UNK         0.0600 
    154 H154       -0.6988  -18.4180  -41.0790 H         1 UNK         0.3000 
    155 H155       -0.2586  -16.9861  -44.3633 H         1 UNK         0.0600 
    156 H156       -0.6317  -14.9668  -42.9665 H         1 UNK         0.0600 
    157 H157       -2.1449  -15.8183  -43.2370 H         1 UNK         0.0600 
    158 H158       -1.3283  -15.9530  -41.6843 H         1 UNK         0.0600 
    159 H159        1.1271  -16.4572  -41.9606 H         1 UNK         0.3000 
    160 H160        3.6937  -18.9430  -42.2871 H         1 UNK         0.0600 
    161 H161        4.3716  -16.9787  -43.6714 H         1 UNK         0.0600 
    162 H162        5.0627  -16.8946  -42.0583 H         1 UNK         0.0600 
    163 H163        3.6809  -15.8854  -42.4779 H         1 UNK         0.0600 
    164 H164        3.0587  -16.9166  -40.3314 H         1 UNK         0.3000 
    165 H165        1.2400  -19.0584  -38.1337 H         1 UNK         0.0600 
    166 H166        3.0209  -18.2896  -36.5943 H         1 UNK         0.0600 
    167 H167        3.6605  -19.4991  -37.6955 H         1 UNK         0.0600 
    168 H168        4.0308  -17.7985  -37.9544 H         1 UNK         0.0600 
    169 H169        2.0370  -16.3135  -37.9583 H         1 UNK         0.3000 
    170 H170       -0.9053  -14.9369  -39.4478 H         1 UNK         0.0600 
    171 H171       -1.5309  -15.5573  -37.1052 H         1 UNK         0.0600 
    172 H172        0.0516  -15.0362  -36.5391 H         1 UNK         0.0600 
    173 H173       -1.0733  -13.8670  -37.2313 H         1 UNK         0.0600 
    174 H174        1.1662  -13.5400  -38.2501 H         1 UNK         0.3000 
    175 H175        2.4778  -12.2458  -39.4655 H         1 UNK         0.0600 
    176 H176        4.3510  -14.2130  -40.8962 H         1 UNK         0.0600 
    177 H177        4.8193  -12.6824  -40.1602 H         1 UNK         0.0600 
    178 H178        4.2374  -13.9990  -39.1540 H         1 UNK         0.0600 
    179 H179        3.1714  -12.5684  -42.2705 H         1 UNK         0.3000 
    180 H180        0.4189  -10.8028  -43.5868 H         1 UNK         0.0600 
    181 H181        3.2143   -9.6426  -43.1042 H         1 UNK         0.0600 
    182 H182        1.6904   -8.8677  -42.6878 H         1 UNK         0.0600 
    183 H183        2.0947   -9.1473  -44.3741 H         1 UNK         0.0600 
    184 H184        3.0822  -11.6734  -44.4667 H         1 UNK         0.3000 
    185 H185        3.3623  -13.3016  -45.8490 H         1 UNK         0.0600 
    186 H186        1.3262  -15.5817  -45.6724 H         1 UNK         0.0600 
    187 H187        3.0334  -15.7120  -46.0970 H         1 UNK         0.0600 
    188 H188        2.5601  -15.2630  -44.4658 H         1 UNK         0.0600 
    189 H189        1.7309  -14.3974  -47.7828 H         1 UNK         0.3000 
    190 H190       -1.9667  -20.3795  -45.0825 H         1 UNK         0.3000 
    191 H191       -4.0395  -21.0024  -46.8379 H         1 UNK         0.0600 
    192 H192       -4.0522  -20.9216  -43.7806 H         1 UNK         0.0600 
    193 H193       -5.4830  -20.8640  -44.8025 H         1 UNK         0.0600 
    194 H194       -4.3138  -19.5551  -44.8635 H         1 UNK         0.0600 
    195 H195       -2.4391  -23.1139  -44.4653 H         1 UNK         0.3000 
    196 H196       -4.1777  -25.3429  -44.6311 H         1 UNK         0.0600 
    197 H197       -1.1986  -25.1870  -43.9291 H         1 UNK         0.0600 
    198 H198       -2.2550  -26.5494  -43.5769 H         1 UNK         0.0600 
    199 H199       -2.5413  -24.9997  -42.8024 H         1 UNK         0.0600 
    200 H200       -1.9542  -24.1921  -47.0349 H         1 UNK         0.3000 
    201 H201       -2.3068  -26.6654  -48.6372 H         1 UNK         0.0600 
    202 H202       -0.0622  -26.8360  -47.5303 H         1 UNK         0.0600 
    203 H203        0.3774  -25.2555  -48.1757 H         1 UNK         0.0600 
    204 H204        0.0960  -26.6117  -49.2644 H         1 UNK         0.0600 
    205 H205       -3.6766  -24.0962  -48.6286 H         1 UNK         0.3000 
    206 H206       -2.6491  -22.1806  -50.3087 H         1 UNK         0.0600 
    207 H207       -4.6247  -21.8608  -48.8449 H         1 UNK         0.0600 
    208 H208       -4.9893  -21.3567  -50.4799 H         1 UNK         0.0600 
    209 H209       -5.5994  -22.8958  -49.8850 H         1 UNK         0.0600 
    210 H210       -4.4019  -25.0837  -51.3021 H         1 UNK         0.3000 
    211 H211       -4.9022  -24.4315  -54.0141 H         1 UNK         0.0600 
    212 H212       -4.4910  -27.1542  -52.6728 H         1 UNK         0.0600 
    213 H213       -5.2060  -26.8967  -54.2602 H         1 UNK         0.0600 
    214 H214       -6.0231  -26.2924  -52.8283 H         1 UNK         0.0600 
    215 H215       -1.9032  -25.4005  -52.4334 H         1 UNK         0.3000 
    216 H216       -0.5499  -26.1733  -54.9183 H         1 UNK         0.0600 
    217 H217        1.4030  -26.4629  -53.4669 H         1 UNK         0.0600 
    218 H218        0.0193  -27.2424  -52.7152 H         1 UNK         0.0600 
    219 H219        0.5918  -25.6842  -52.1188 H         1 UNK         0.0600 
    220 H220       -1.1510  -23.2446  -53.0751 H         1 UNK         0.3000 
    221 H221        0.9799  -21.6811  -54.3488 H         1 UNK         0.0600 
    222 H222       -1.3627  -20.8043  -52.5846 H         1 UNK         0.0600 
    223 H223        0.2835  -21.1078  -52.0464 H         1 UNK         0.0600 
    224 H224       -0.0523  -19.7789  -53.1445 H         1 UNK         0.0600 
    225 H225       -2.6321  -21.9453  -54.5309 H         1 UNK         0.3000 
    226 H226       -2.5815  -21.8481  -57.3712 H         1 UNK         0.0600 
    227 H227       -2.4107  -19.3274  -56.9515 H         1 UNK         0.0600 
    228 H228       -3.9058  -19.7863  -57.7413 H         1 UNK         0.0600 
    229 H229       -3.9086  -19.4165  -56.0272 H         1 UNK         0.0600 
    230 H230       -4.5315  -22.6519  -58.1909 H         1 UNK         0.3000 
    231 H231       -6.2959  -24.0564  -56.4652 H         1 UNK         0.0600 
    232 H232       -7.5511  -24.4990  -58.5822 H         1 UNK         0.0600 
    233 H233       -5.8266  -24.7461  -58.8023 H         1 UNK         0.0600 
    234 H234       -6.5945  -23.2817  -59.4183 H         1 UNK         0.0600 
    235 H235       -6.3770  -20.7673  -57.6257 H         1 UNK         0.3000 
    236 H236       -9.1479  -20.1831  -57.0624 H         1 UNK         0.0600 
    237 H237       -8.3755  -17.8212  -57.3107 H         1 UNK         0.0600 
    238 H238       -7.7936  -18.8155  -58.6365 H         1 UNK         0.0600 
    239 H239       -6.6989  -18.3541  -57.3317 H         1 UNK         0.0600 
    240 H240       -6.1958  -20.3346  -55.1119 H         1 UNK         0.3000 
    241 H241       -7.4664  -19.0304  -52.7819 H         1 UNK         0.0600 
    242 H242       -7.1142  -23.1520  -52.5487 H         1 UNK         0.3800 
    243 H243       -6.2015  -22.2965  -53.7786 H         1 UNK         0.3800 
    244 H244       -4.6700  -20.2190  -52.9940 H         1 UNK         0.0800 
    245 H245       -5.3054  -19.3001  -51.6506 H         1 UNK         0.0800 
    246 H246       -2.6939  -17.7085  -54.6125 H         1 UNK         0.0800 
    247 H247       -2.8140  -19.2218  -53.7700 H         1 UNK         0.0800 
@<TRIPOS>BOND
     1    1    2 1    
     2    1  127 1    
     3    1  128 1    
     4    1  129 1    
     5    2    3 2    
     6    2    4 am   BACKBONE|DICT|INTERRES
     7    4    5 1    
     8    4  130 1    
     9    5    6 1    
    10    5   65 1    
    11    5  131 1    
    12    6    7 1    
    13    6  132 1    
    14    6  133 1    
    15    7    8 1    
    16    8    9 1    
    17    8  134 1    
    18    8  135 1    
    19    9   10 ar   
    20    9   14 ar   
    21   10   11 ar   
    22   10  136 1    
    23   11   12 ar   
    24   11  126 1    
    25   12   13 ar   
    26   12  137 1    
    27   13   14 ar   
    28   13   15 1    
    29   14  138 1    
    30   15   16 1    
    31   15  139 1    
    32   15  140 1    
    33   16   17 1    
    34   17   18 1    
    35   17  141 1    
    36   17  142 1    
    37   18   19 1    
    38   18   67 1    
    39   18  143 1    
    40   19   20 am   BACKBONE|DICT|INTERRES
    41   19  144 1    
    42   20   21 2    
    43   20   22 1    
    44   22   23 1    
    45   22   24 1    
    46   22  145 1    
    47   23  146 1    
    48   23  147 1    
    49   23  148 1    
    50   24   25 am   BACKBONE|DICT|INTERRES
    51   24  149 1    
    52   25   26 2    
    53   25   27 1    
    54   27   28 1    
    55   27   29 1    
    56   27  150 1    
    57   28  151 1    
    58   28  152 1    
    59   28  153 1    
    60   29   30 am   BACKBONE|DICT|INTERRES
    61   29  154 1    
    62   30   31 2    
    63   30   32 1    
    64   32   33 1    
    65   32   34 1    
    66   32  155 1    
    67   33  156 1    
    68   33  157 1    
    69   33  158 1    
    70   34   35 am   BACKBONE|DICT|INTERRES
    71   34  159 1    
    72   35   36 2    
    73   35   37 1    
    74   37   38 1    
    75   37   39 1    
    76   37  160 1    
    77   38  161 1    
    78   38  162 1    
    79   38  163 1    
    80   39   40 am   BACKBONE|DICT|INTERRES
    81   39  164 1    
    82   40   41 2    
    83   40   42 1    
    84   42   43 1    
    85   42   44 1    
    86   42  165 1    
    87   43  166 1    
    88   43  167 1    
    89   43  168 1    
    90   44   45 am   BACKBONE|DICT|INTERRES
    91   44  169 1    
    92   45   46 2    
    93   45   47 1    
    94   47   48 1    
    95   47   49 1    
    96   47  170 1    
    97   48  171 1    
    98   48  172 1    
    99   48  173 1    
   100   49   50 am   BACKBONE|DICT|INTERRES
   101   49  174 1    
   102   50   51 2    
   103   50   52 1    
   104   52   53 1    
   105   52   54 1    
   106   52  175 1    
   107   53  176 1    
   108   53  177 1    
   109   53  178 1    
   110   54   55 am   BACKBONE|DICT|INTERRES
   111   54  179 1    
   112   55   56 2    
   113   55   57 1    
   114   57   58 1    
   115   57   59 1    
   116   57  180 1    
   117   58  181 1    
   118   58  182 1    
   119   58  183 1    
   120   59   60 am   BACKBONE|DICT|INTERRES
   121   59  184 1    
   122   60   61 2    
   123   60   62 1    
   124   62   63 1    
   125   62   64 1    
   126   62  185 1    
   127   63  186 1    
   128   63  187 1    
   129   63  188 1    
   130   64   65 am   BACKBONE|DICT|INTERRES
   131   64  189 1    
   132   65   66 2    
   133   67   68 2    
   134   67   69 am   BACKBONE|DICT|INTERRES
   135   69   70 1    
   136   69  190 1    
   137   70   71 1    
   138   70   72 1    
   139   70  191 1    
   140   71  192 1    
   141   71  193 1    
   142   71  194 1    
   143   72   73 2    
   144   72   74 am   BACKBONE|DICT|INTERRES
   145   74   75 1    
   146   74  195 1    
   147   75   76 1    
   148   75   77 1    
   149   75  196 1    
   150   76  197 1    
   151   76  198 1    
   152   76  199 1    
   153   77   78 2    
   154   77   79 am   BACKBONE|DICT|INTERRES
   155   79   80 1    
   156   79  200 1    
   157   80   81 1    
   158   80   82 1    
   159   80  201 1    
   160   81  202 1    
   161   81  203 1    
   162   81  204 1    
   163   82   83 2    
   164   82   84 am   BACKBONE|DICT|INTERRES
   165   84   85 1    
   166   84  205 1    
   167   85   86 1    
   168   85   87 1    
   169   85  206 1    
   170   86  207 1    
   171   86  208 1    
   172   86  209 1    
   173   87   88 2    
   174   87   89 am   BACKBONE|DICT|INTERRES
   175   89   90 1    
   176   89  210 1    
   177   90   91 1    
   178   90   92 1    
   179   90  211 1    
   180   91  212 1    
   181   91  213 1    
   182   91  214 1    
   183   92   93 2    
   184   92   94 am   BACKBONE|DICT|INTERRES
   185   94   95 1    
   186   94  215 1    
   187   95   96 1    
   188   95   97 1    
   189   95  216 1    
   190   96  217 1    
   191   96  218 1    
   192   96  219 1    
   193   97   98 2    
   194   97   99 am   BACKBONE|DICT|INTERRES
   195   99  100 1    
   196   99  220 1    
   197  100  101 1    
   198  100  102 1    
   199  100  221 1    
   200  101  222 1    
   201  101  223 1    
   202  101  224 1    
   203  102  103 2    
   204  102  104 am   BACKBONE|DICT|INTERRES
   205  104  105 1    
   206  104  225 1    
   207  105  106 1    
   208  105  107 1    
   209  105  226 1    
   210  106  227 1    
   211  106  228 1    
   212  106  229 1    
   213  107  108 2    
   214  107  109 am   BACKBONE|DICT|INTERRES
   215  109  110 1    
   216  109  230 1    
   217  110  111 1    
   218  110  112 1    
   219  110  231 1    
   220  111  232 1    
   221  111  233 1    
   222  111  234 1    
   223  112  113 2    
   224  112  114 am   BACKBONE|DICT|INTERRES
   225  114  115 1    
   226  114  235 1    
   227  115  116 1    
   228  115  117 1    
   229  115  236 1    
   230  116  237 1    
   231  116  238 1    
   232  116  239 1    
   233  117  118 2    
   234  117  119 am   BACKBONE|DICT|INTERRES
   235  119  120 1    
   236  119  240 1    
   237  120  121 1    
   238  120  124 1    
   239  120  241 1    
   240  121  122 am   BACKBONE|DICT|INTERRES
   241  121  123 2    
   242  122  242 1    
   243  122  243 1    
   244  124  125 1    
   245  124  244 1    
   246  124  245 1    
   247  125  126 1    
   248  126  246 1    
   249  126  247 1    
@<TRIPOS>SUBSTRUCTURE
     1 UNK         1 GROUP             0       ****    0 ROOT    
