@<TRIPOS>MOLECULE
3R540
247   249    1
SMALL
USER_CHARGES


@<TRIPOS>ATOM
      1 CA          1.6378  -17.2378  -48.2950 C.3       0 UNK        -0.1800 
      2 C           0.1331  -17.3669  -48.1396 C.2       0 UNK         0.5000 
      3 O          -0.4547  -16.6330  -47.3525 O.2       0 UNK        -0.5000 
      4 N          -0.5056  -18.2666  -48.9005 N.am      1 UNK        -0.5000 
      5 CA         -1.9585  -18.5077  -48.8813 C.3       1 UNK         0.1400 
      6 C6         -2.3715  -19.6788  -49.8037 C.3       23 UNK        -0.0398 
      7 S7         -1.8359  -21.2966  -49.1507 S.3       23 UNK        -0.2404 
      8 C8         -0.6835  -21.8952  -50.4231 C.3       23 UNK        -0.0205 
      9 C9          0.5663  -21.0370  -50.4867 C.ar      23 UNK        -0.0193 
     10 C10         0.7032  -20.0833  -51.4944 C.ar      23 UNK        -0.1150 
     11 C11         1.8121  -19.2370  -51.5232 C.ar      23 UNK        -0.0193 
     12 C12         2.8273  -19.3990  -50.5755 C.ar      23 UNK        -0.1150 
     13 C13         2.7070  -20.3586  -49.5638 C.ar      23 UNK        -0.0193 
     14 C14         1.5662  -21.1662  -49.5196 C.ar      23 UNK        -0.1150 
     15 C15         3.7818  -20.4752  -48.4909 C.3       23 UNK        -0.0205 
     16 S16         4.9862  -21.7878  -48.8656 S.3       23 UNK        -0.2404 
     17 C17         4.1817  -23.2477  -48.1182 C.3       23 UNK        -0.0398 
     18 CA          4.8383  -23.6918  -46.7860 C.3       11 UNK         0.1400 
     19 N           4.8544  -22.6046  -45.8008 N.am      11 UNK        -0.5000 
     20 C           5.9185  -22.2101  -45.0897 C.2       10 UNK         0.5000 
     21 O           7.0469  -22.6849  -45.2214 O.2       10 UNK        -0.5000 
     22 CA          5.6775  -21.1175  -44.0264 C.3       10 UNK         0.1400 
     23 CB          6.0403  -19.7369  -44.5928 C.3       10 UNK        -0.1800 
     24 N           4.2996  -21.0879  -43.5239 N.am      10 UNK        -0.5000 
     25 C           3.7201  -22.0834  -42.8336 C.2       9 UNK         0.5000 
     26 O           4.3178  -23.1037  -42.4927 O.2       9 UNK        -0.5000 
     27 CA          2.2133  -21.9725  -42.5258 C.3       9 UNK         0.1400 
     28 CB          1.9991  -21.4915  -41.0833 C.3       9 UNK        -0.1800 
     29 N           1.4691  -21.1005  -43.4333 N.am      9 UNK        -0.5000 
     30 C           1.4082  -21.2029  -44.7688 C.2       8 UNK         0.5000 
     31 O           1.9652  -22.0912  -45.4190 O.2       8 UNK        -0.5000 
     32 CA          0.6458  -20.0820  -45.5000 C.3       8 UNK         0.1400 
     33 CB         -0.8291  -20.4647  -45.6433 C.3       8 UNK        -0.1800 
     34 N           0.7320  -18.7804  -44.8271 N.am      8 UNK        -0.5000 
     35 C           1.8670  -18.1183  -44.5553 C.2       7 UNK         0.5000 
     36 O           2.9846  -18.5334  -44.8610 O.2       7 UNK        -0.5000 
     37 CA          1.7415  -16.8050  -43.7655 C.3       7 UNK         0.1400 
     38 CB          1.4587  -15.6197  -44.6943 C.3       7 UNK        -0.1800 
     39 N           0.6803  -16.8883  -42.7652 N.am      7 UNK        -0.5000 
     40 C           0.8694  -17.2672  -41.4948 C.2       6 UNK         0.5000 
     41 O           1.9724  -17.5305  -41.0149 O.2       6 UNK        -0.5000 
     42 CA         -0.3854  -17.3856  -40.6077 C.3       6 UNK         0.1400 
     43 CB         -0.6677  -16.0547  -39.8944 C.3       6 UNK        -0.1800 
     44 N          -1.5839  -17.7980  -41.3400 N.am      6 UNK        -0.5000 
     45 C          -1.7364  -18.9816  -41.9486 C.2       5 UNK         0.5000 
     46 O          -0.8779  -19.8630  -41.9571 O.2       5 UNK        -0.5000 
     47 CA         -3.0580  -19.2048  -42.7058 C.3       5 UNK         0.1400 
     48 CB         -4.1154  -19.8126  -41.7732 C.3       5 UNK        -0.1800 
     49 N          -3.6166  -18.0125  -43.3528 N.am      5 UNK        -0.5000 
     50 C          -2.9907  -17.2118  -44.2286 C.2       4 UNK         0.5000 
     51 O          -1.7903  -17.3025  -44.4954 O.2       4 UNK        -0.5000 
     52 CA         -3.8952  -16.1862  -44.9440 C.3       4 UNK         0.1400 
     53 CB         -4.7284  -15.3420  -43.9541 C.3       4 UNK        -0.1800 
     54 N          -3.1941  -15.3332  -45.9085 N.am      4 UNK        -0.5000 
     55 C          -2.3256  -14.3385  -45.6659 C.2       3 UNK         0.5000 
     56 O          -1.9682  -13.9984  -44.5367 O.2       3 UNK        -0.5000 
     57 CA         -1.8049  -13.5597  -46.8955 C.3       3 UNK         0.1400 
     58 CB         -0.3290  -13.1449  -46.7589 C.3       3 UNK        -0.1800 
     59 N          -1.9608  -14.3327  -48.1279 N.am      3 UNK        -0.5000 
     60 C          -2.7792  -14.0399  -49.1467 C.2       2 UNK         0.5000 
     61 O          -3.4872  -13.0336  -49.1835 O.2       2 UNK        -0.5000 
     62 CA         -2.8435  -15.0374  -50.3252 C.3       2 UNK         0.1400 
     63 CB         -2.1664  -14.4570  -51.5747 C.3       2 UNK        -0.1800 
     64 N          -2.2666  -16.3532  -50.0392 N.am      2 UNK        -0.5000 
     65 C          -2.7908  -17.2415  -49.1823 C.2       1 UNK         0.5000 
     66 O          -3.8493  -17.0535  -48.5828 O.2       1 UNK        -0.5000 
     67 C           4.1070  -24.9301  -46.2162 C.2       11 UNK         0.5000 
     68 O           3.8905  -25.8918  -46.9544 O.2       11 UNK        -0.5000 
     69 N           3.7094  -24.8756  -44.9333 N.am      12 UNK        -0.5000 
     70 CA          2.8684  -25.8349  -44.2080 C.3       12 UNK         0.1400 
     71 CB          3.5960  -27.1847  -44.0374 C.3       12 UNK        -0.1800 
     72 C           1.4497  -25.9840  -44.8049 C.2       12 UNK         0.5000 
     73 O           0.8347  -27.0429  -44.6639 O.2       12 UNK        -0.5000 
     74 N           0.9528  -24.9262  -45.4595 N.am      13 UNK        -0.5000 
     75 CA         -0.3699  -24.8723  -46.0764 C.3       13 UNK         0.1400 
     76 CB         -0.2626  -24.0738  -47.3825 C.3       13 UNK        -0.1800 
     77 C          -1.4004  -24.2478  -45.1180 C.2       13 UNK         0.5000 
     78 O          -1.0271  -23.5553  -44.1691 O.2       13 UNK        -0.5000 
     79 N          -2.6848  -24.5129  -45.3857 N.am      14 UNK        -0.5000 
     80 CA         -3.8097  -24.1326  -44.5246 C.3       14 UNK         0.1400 
     81 CB         -4.7945  -25.3135  -44.4788 C.3       14 UNK        -0.1800 
     82 C          -4.5416  -22.8533  -44.9776 C.2       14 UNK         0.5000 
     83 O          -5.4336  -22.4017  -44.2592 O.2       14 UNK        -0.5000 
     84 N          -4.1867  -22.3120  -46.1542 N.am      15 UNK        -0.5000 
     85 CA         -4.8534  -21.1944  -46.8396 C.3       15 UNK         0.1400 
     86 CB         -4.7209  -19.8766  -46.0523 C.3       15 UNK        -0.1800 
     87 C          -6.3088  -21.5265  -47.2276 C.2       15 UNK         0.5000 
     88 O          -7.2313  -20.7636  -46.9355 O.2       15 UNK        -0.5000 
     89 N          -6.4803  -22.6760  -47.8968 N.am      16 UNK        -0.5000 
     90 CA         -7.7529  -23.1260  -48.4729 C.3       16 UNK         0.1400 
     91 CB         -7.6363  -24.6169  -48.8256 C.3       16 UNK        -0.1800 
     92 C          -8.1830  -22.3065  -49.7102 C.2       16 UNK         0.5000 
     93 O          -9.3617  -22.3141  -50.0670 O.2       16 UNK        -0.5000 
     94 N          -7.2218  -21.6116  -50.3264 N.am      17 UNK        -0.5000 
     95 CA         -7.3961  -20.6208  -51.3816 C.3       17 UNK         0.1400 
     96 CB         -6.8286  -21.1893  -52.6935 C.3       17 UNK        -0.1800 
     97 C          -6.6526  -19.3409  -50.9624 C.2       17 UNK         0.5000 
     98 O          -5.9105  -19.3577  -49.9778 O.2       17 UNK        -0.5000 
     99 N          -6.8476  -18.2600  -51.7209 N.am      18 UNK        -0.5000 
    100 CA        -6.2039  -16.9634  -51.5260 C.3       18 UNK         0.1400 
    101 CB        -6.9877  -16.1432  -50.4835 C.3       18 UNK        -0.1800 
    102 C         -6.1033  -16.2447  -52.8821 C.2       18 UNK         0.5000 
    103 O         -6.5125  -16.8121  -53.8986 O.2       18 UNK        -0.5000 
    104 N         -5.5514  -15.0212  -52.8763 N.am      19 UNK        -0.5000 
    105 CA        -5.3508  -14.1203  -54.0193 C.3       19 UNK         0.1400 
    106 CB        -6.7040  -13.5609  -54.5099 C.3       19 UNK        -0.1800 
    107 C         -4.5163  -14.7725  -55.1394 C.2       19 UNK         0.5000 
    108 O         -3.2861  -14.7768  -55.0577 O.2       19 UNK        -0.5000 
    109 N         -5.1964  -15.3701  -56.1278 N.am      20 UNK        -0.5000 
    110 CA        -4.6321  -16.1423  -57.2400 C.3       20 UNK         0.1400 
    111 CB        -5.7774  -16.5701  -58.1705 C.3       20 UNK        -0.1800 
    112 C         -3.7950  -17.3679  -56.8125 C.2       20 UNK         0.5000 
    113 O         -3.0386  -17.8929  -57.6300 O.2       20 UNK        -0.5000 
    114 N         -3.9140  -17.7783  -55.5404 N.am      21 UNK        -0.5000 
    115 CA        -3.0510  -18.7565  -54.8757 C.3       21 UNK         0.1400 
    116 CB        -3.5573  -18.9836  -53.4432 C.3       21 UNK        -0.1800 
    117 C         -1.5601  -18.3550  -54.8573 C.2       21 UNK         0.5000 
    118 O         -0.7095  -19.2449  -54.8911 O.2       21 UNK        -0.5000 
    119 N         -1.2737  -17.0442  -54.8289 N.am      22 UNK        -0.5000 
    120 CA         0.0801  -16.4833  -54.9905 C.3       22 UNK         0.1400 
    121 C          0.1753  -15.4716  -56.1654 C.2       22 UNK         0.5000 
    122 N         -0.8934  -14.7824  -56.5479 N.am      22 UNK        -0.7600 
    123 O          1.2427  -15.3142  -56.7517 O.2       22 UNK        -0.5000 
    124 C124        0.6465  -15.8419  -53.6949 C.3       23 UNK        -0.0398 
    125 S125        0.5488  -16.9018  -52.2147 S.3       23 UNK        -0.2404 
    126 C126        1.8645  -18.1185  -52.5489 C.3       23 UNK        -0.0205 
    127 H127        1.9990  -16.3446  -47.7862 H         1 UNK         0.0600 
    128 H128        1.9096  -17.1492  -49.3453 H         1 UNK         0.0600 
    129 H129        2.1415  -18.0998  -47.8605 H         1 UNK         0.0600 
    130 H130        0.0294  -18.8515  -49.5294 H         1 UNK         0.3000 
    131 H131       -2.2218  -18.7826  -47.8604 H         1 UNK         0.0600 
    132 H132       -1.9936  -19.5257  -50.8139 H         1 UNK         0.0800 
    133 H133       -3.4542  -19.7327  -49.8976 H         1 UNK         0.0800 
    134 H134       -0.4043  -22.9245  -50.1950 H         1 UNK         0.0800 
    135 H135       -1.1893  -21.9229  -51.3895 H         1 UNK         0.0800 
    136 H136       -0.0753  -19.9628  -52.2353 H         1 UNK         0.1150 
    137 H137        3.6907  -18.7489  -50.5974 H         1 UNK         0.1150 
    138 H138        1.4402  -21.8845  -48.7249 H         1 UNK         0.1150 
    139 H139        4.3200  -19.5303  -48.4029 H         1 UNK         0.0800 
    140 H140        3.3275  -20.6476  -47.5142 H         1 UNK         0.0800 
    141 H141        3.1218  -23.0513  -47.9634 H         1 UNK         0.0800 
    142 H142        4.2321  -24.0526  -48.8534 H         1 UNK         0.0800 
    143 H143        5.8587  -24.0103  -47.0077 H         1 UNK         0.0600 
    144 H144        3.9539  -22.1740  -45.6172 H         1 UNK         0.3000 
    145 H145        6.3370  -21.3256  -43.1814 H         1 UNK         0.0600 
    146 H146        5.8888  -18.9513  -43.8524 H         1 UNK         0.0600 
    147 H147        5.4395  -19.4930  -45.4700 H         1 UNK         0.0600 
    148 H148        7.0877  -19.7028  -44.8952 H         1 UNK         0.0600 
    149 H149        3.7395  -20.2881  -43.7965 H         1 UNK         0.3000 
    150 H150        1.7877  -22.9733  -42.6213 H         1 UNK         0.0600 
    151 H151        2.5474  -22.1137  -40.3746 H         1 UNK         0.0600 
    152 H152        0.9463  -21.5383  -40.8049 H         1 UNK         0.0600 
    153 H153        2.3361  -20.4627  -40.9494 H         1 UNK         0.0600 
    154 H154        0.9103  -20.3781  -42.9933 H         1 UNK         0.3000 
    155 H155        1.0752  -19.9687  -46.4966 H         1 UNK         0.0600 
    156 H156       -0.9598  -21.2706  -46.3611 H         1 UNK         0.0600 
    157 H157       -1.4196  -19.6194  -45.9852 H         1 UNK         0.0600 
    158 H158       -1.2449  -20.8093  -44.6981 H         1 UNK         0.0600 
    159 H159       -0.1503  -18.3309  -44.5981 H         1 UNK         0.3000 
    160 H160        2.7014  -16.6205  -43.2784 H         1 UNK         0.0600 
    161 H161        0.4720  -15.7041  -45.1470 H         1 UNK         0.0600 
    162 H162        2.1944  -15.5600  -45.4965 H         1 UNK         0.0600 
    163 H163        1.4909  -14.6764  -44.1492 H         1 UNK         0.0600 
    164 H164       -0.2650  -16.7412  -43.1003 H         1 UNK         0.3000 
    165 H165       -0.1804  -18.1441  -39.8492 H         1 UNK         0.0600 
    166 H166       -1.5015  -16.1484  -39.1984 H         1 UNK         0.0600 
    167 H167        0.1996  -15.7284  -39.3188 H         1 UNK         0.0600 
    168 H168       -0.9083  -15.2616  -40.6038 H         1 UNK         0.0600 
    169 H169       -2.3353  -17.1271  -41.4023 H         1 UNK         0.3000 
    170 H170       -2.8654  -19.9323  -43.4928 H         1 UNK         0.0600 
    171 H171       -3.7383  -20.7154  -41.2906 H         1 UNK         0.0600 
    172 H172       -4.4078  -19.1160  -40.9866 H         1 UNK         0.0600 
    173 H173       -5.0122  -20.0953  -42.3253 H         1 UNK         0.0600 
    174 H174       -4.5992  -17.8526  -43.1861 H         1 UNK         0.3000 
    175 H175       -4.5939  -16.7704  -45.5443 H         1 UNK         0.0600 
    176 H176       -4.0998  -14.8357  -43.2209 H         1 UNK         0.0600 
    177 H177       -5.3099  -14.5824  -44.4768 H         1 UNK         0.0600 
    178 H178       -5.4379  -15.9588  -43.4021 H         1 UNK         0.0600 
    179 H179       -3.3668  -15.5654  -46.8780 H         1 UNK         0.3000 
    180 H180       -2.4005  -12.6463  -46.9432 H         1 UNK         0.0600 
    181 H181       -0.1474  -12.6034  -45.8299 H         1 UNK         0.0600 
    182 H182       -0.0336  -12.4883  -47.5771 H         1 UNK         0.0600 
    183 H183        0.3339  -14.0090  -46.7764 H         1 UNK         0.0600 
    184 H184       -1.4419  -15.2074  -48.1379 H         1 UNK         0.3000 
    185 H185       -3.8999  -15.1808  -50.5498 H         1 UNK         0.0600 
    186 H186       -2.6170  -13.5064  -51.8623 H         1 UNK         0.0600 
    187 H187       -1.1044  -14.2777  -51.4043 H         1 UNK         0.0600 
    188 H188       -2.2637  -15.1313  -52.4259 H         1 UNK         0.0600 
    189 H189       -1.3738  -16.5605  -50.4669 H         1 UNK         0.3000 
    190 H190        3.9849  -24.0637  -44.3956 H         1 UNK         0.3000 
    191 H191        2.7269  -25.4146  -43.2115 H         1 UNK         0.0600 
    192 H192        3.0460  -27.8436  -43.3646 H         1 UNK         0.0600 
    193 H193        4.5894  -27.0453  -43.6108 H         1 UNK         0.0600 
    194 H194        3.7083  -27.7087  -44.9868 H         1 UNK         0.0600 
    195 H195        1.4761  -24.0573  -45.4635 H         1 UNK         0.3000 
    196 H196       -0.7045  -25.8817  -46.3249 H         1 UNK         0.0600 
    197 H197        0.1050  -23.0644  -47.2081 H         1 UNK         0.0600 
    198 H198        0.4219  -24.5561  -48.0806 H         1 UNK         0.0600 
    199 H199       -1.2297  -23.9970  -47.8796 H         1 UNK         0.0600 
    200 H200       -2.9097  -25.0909  -46.1830 H         1 UNK         0.3000 
    201 H201       -3.4554  -23.9540  -43.5070 H         1 UNK         0.0600 
    202 H202       -5.6300  -25.1043  -43.8094 H         1 UNK         0.0600 
    203 H203       -4.3085  -26.2180  -44.1123 H         1 UNK         0.0600 
    204 H204       -5.2104  -25.5306  -45.4636 H         1 UNK         0.0600 
    205 H205       -3.4300  -22.7498  -46.6589 H         1 UNK         0.3000 
    206 H206       -4.3288  -21.0505  -47.7827 H         1 UNK         0.0600 
    207 H207       -3.6791  -19.6575  -45.8342 H         1 UNK         0.0600 
    208 H208       -5.1107  -19.0398  -46.6336 H         1 UNK         0.0600 
    209 H209       -5.2660  -19.9029  -45.1089 H         1 UNK         0.0600 
    210 H210       -5.6758  -23.2594  -48.0740 H         1 UNK         0.3000 
    211 H211       -8.5326  -23.0131  -47.7166 H         1 UNK         0.0600 
    212 H212       -6.8641  -24.7942  -49.5752 H         1 UNK         0.0600 
    213 H213       -8.5764  -24.9981  -49.2267 H         1 UNK         0.0600 
    214 H214       -7.3949  -25.2132  -47.9454 H         1 UNK         0.0600 
    215 H215       -6.3056  -21.6004  -49.9010 H         1 UNK         0.3000 
    216 H216       -8.4522  -20.3757  -51.5114 H         1 UNK         0.0600 
    217 H217       -7.3400  -22.1102  -52.9743 H         1 UNK         0.0600 
    218 H218       -5.7642  -21.4122  -52.6082 H         1 UNK         0.0600 
    219 H219       -6.9541  -20.4864  -53.5178 H         1 UNK         0.0600 
    220 H220       -7.4031  -18.3217  -52.5653 H         1 UNK         0.3000 
    221 H221       -5.1851  -17.1238  -51.1695 H         1 UNK         0.0600 
    222 H222       -6.5088  -15.1849  -50.2817 H         1 UNK         0.0600 
    223 H223       -8.0063  -15.9414  -50.8168 H         1 UNK         0.0600 
    224 H224       -7.0460  -16.6726  -49.5321 H         1 UNK         0.0600 
    225 H225       -5.2492  -14.6434  -51.9914 H         1 UNK         0.3000 
    226 H226       -4.7617  -13.2777  -53.6538 H         1 UNK         0.0600 
    227 H227       -7.1877  -12.9780  -53.7261 H         1 UNK         0.0600 
    228 H228       -6.5676  -12.8976  -55.3651 H         1 UNK         0.0600 
    229 H229       -7.3988  -14.3468  -54.8072 H         1 UNK         0.0600 
    230 H230       -6.2043  -15.3695  -56.0605 H         1 UNK         0.3000 
    231 H231       -3.9664  -15.4789  -57.7954 H         1 UNK         0.0600 
    232 H232       -5.3982  -17.1194  -59.0333 H         1 UNK         0.0600 
    233 H233       -6.3207  -15.7054  -58.5520 H         1 UNK         0.0600 
    234 H234       -6.4904  -17.2163  -57.6567 H         1 UNK         0.0600 
    235 H235       -4.6130  -17.3227  -54.9679 H         1 UNK         0.3000 
    236 H236       -3.1368  -19.6960  -55.4252 H         1 UNK         0.0600 
    237 H237       -4.6111  -19.2590  -53.4370 H         1 UNK         0.0600 
    238 H238       -3.0083  -19.7951  -52.9649 H         1 UNK         0.0600 
    239 H239       -3.4363  -18.0926  -52.8257 H         1 UNK         0.0600 
    240 H240       -2.0342  -16.3755  -54.8179 H         1 UNK         0.3000 
    241 H241        0.7616  -17.2879  -55.2705 H         1 UNK         0.0600 
    242 H242       -1.7683  -14.8191  -56.0313 H         1 UNK         0.3800 
    243 H243       -0.8039  -14.1376  -57.3168 H         1 UNK         0.3800 
    244 H244        1.6889  -15.5521  -53.8383 H         1 UNK         0.0800 
    245 H245        0.1082  -14.9200  -53.4712 H         1 UNK         0.0800 
    246 H246        2.8347  -17.6199  -52.5391 H         1 UNK         0.0800 
    247 H247        1.7359  -18.5467  -53.5433 H         1 UNK         0.0800 
@<TRIPOS>BOND
     1    1    2 1    
     2    1  127 1    
     3    1  128 1    
     4    1  129 1    
     5    2    3 2    
     6    2    4 am   BACKBONE|DICT|INTERRES
     7    4    5 1    
     8    4  130 1    
     9    5    6 1    
    10    5   65 1    
    11    5  131 1    
    12    6    7 1    
    13    6  132 1    
    14    6  133 1    
    15    7    8 1    
    16    8    9 1    
    17    8  134 1    
    18    8  135 1    
    19    9   10 ar   
    20    9   14 ar   
    21   10   11 ar   
    22   10  136 1    
    23   11   12 ar   
    24   11  126 1    
    25   12   13 ar   
    26   12  137 1    
    27   13   14 ar   
    28   13   15 1    
    29   14  138 1    
    30   15   16 1    
    31   15  139 1    
    32   15  140 1    
    33   16   17 1    
    34   17   18 1    
    35   17  141 1    
    36   17  142 1    
    37   18   19 1    
    38   18   67 1    
    39   18  143 1    
    40   19   20 am   BACKBONE|DICT|INTERRES
    41   19  144 1    
    42   20   21 2    
    43   20   22 1    
    44   22   23 1    
    45   22   24 1    
    46   22  145 1    
    47   23  146 1    
    48   23  147 1    
    49   23  148 1    
    50   24   25 am   BACKBONE|DICT|INTERRES
    51   24  149 1    
    52   25   26 2    
    53   25   27 1    
    54   27   28 1    
    55   27   29 1    
    56   27  150 1    
    57   28  151 1    
    58   28  152 1    
    59   28  153 1    
    60   29   30 am   BACKBONE|DICT|INTERRES
    61   29  154 1    
    62   30   31 2    
    63   30   32 1    
    64   32   33 1    
    65   32   34 1    
    66   32  155 1    
    67   33  156 1    
    68   33  157 1    
    69   33  158 1    
    70   34   35 am   BACKBONE|DICT|INTERRES
    71   34  159 1    
    72   35   36 2    
    73   35   37 1    
    74   37   38 1    
    75   37   39 1    
    76   37  160 1    
    77   38  161 1    
    78   38  162 1    
    79   38  163 1    
    80   39   40 am   BACKBONE|DICT|INTERRES
    81   39  164 1    
    82   40   41 2    
    83   40   42 1    
    84   42   43 1    
    85   42   44 1    
    86   42  165 1    
    87   43  166 1    
    88   43  167 1    
    89   43  168 1    
    90   44   45 am   BACKBONE|DICT|INTERRES
    91   44  169 1    
    92   45   46 2    
    93   45   47 1    
    94   47   48 1    
    95   47   49 1    
    96   47  170 1    
    97   48  171 1    
    98   48  172 1    
    99   48  173 1    
   100   49   50 am   BACKBONE|DICT|INTERRES
   101   49  174 1    
   102   50   51 2    
   103   50   52 1    
   104   52   53 1    
   105   52   54 1    
   106   52  175 1    
   107   53  176 1    
   108   53  177 1    
   109   53  178 1    
   110   54   55 am   BACKBONE|DICT|INTERRES
   111   54  179 1    
   112   55   56 2    
   113   55   57 1    
   114   57   58 1    
   115   57   59 1    
   116   57  180 1    
   117   58  181 1    
   118   58  182 1    
   119   58  183 1    
   120   59   60 am   BACKBONE|DICT|INTERRES
   121   59  184 1    
   122   60   61 2    
   123   60   62 1    
   124   62   63 1    
   125   62   64 1    
   126   62  185 1    
   127   63  186 1    
   128   63  187 1    
   129   63  188 1    
   130   64   65 am   BACKBONE|DICT|INTERRES
   131   64  189 1    
   132   65   66 2    
   133   67   68 2    
   134   67   69 am   BACKBONE|DICT|INTERRES
   135   69   70 1    
   136   69  190 1    
   137   70   71 1    
   138   70   72 1    
   139   70  191 1    
   140   71  192 1    
   141   71  193 1    
   142   71  194 1    
   143   72   73 2    
   144   72   74 am   BACKBONE|DICT|INTERRES
   145   74   75 1    
   146   74  195 1    
   147   75   76 1    
   148   75   77 1    
   149   75  196 1    
   150   76  197 1    
   151   76  198 1    
   152   76  199 1    
   153   77   78 2    
   154   77   79 am   BACKBONE|DICT|INTERRES
   155   79   80 1    
   156   79  200 1    
   157   80   81 1    
   158   80   82 1    
   159   80  201 1    
   160   81  202 1    
   161   81  203 1    
   162   81  204 1    
   163   82   83 2    
   164   82   84 am   BACKBONE|DICT|INTERRES
   165   84   85 1    
   166   84  205 1    
   167   85   86 1    
   168   85   87 1    
   169   85  206 1    
   170   86  207 1    
   171   86  208 1    
   172   86  209 1    
   173   87   88 2    
   174   87   89 am   BACKBONE|DICT|INTERRES
   175   89   90 1    
   176   89  210 1    
   177   90   91 1    
   178   90   92 1    
   179   90  211 1    
   180   91  212 1    
   181   91  213 1    
   182   91  214 1    
   183   92   93 2    
   184   92   94 am   BACKBONE|DICT|INTERRES
   185   94   95 1    
   186   94  215 1    
   187   95   96 1    
   188   95   97 1    
   189   95  216 1    
   190   96  217 1    
   191   96  218 1    
   192   96  219 1    
   193   97   98 2    
   194   97   99 am   BACKBONE|DICT|INTERRES
   195   99  100 1    
   196   99  220 1    
   197  100  101 1    
   198  100  102 1    
   199  100  221 1    
   200  101  222 1    
   201  101  223 1    
   202  101  224 1    
   203  102  103 2    
   204  102  104 am   BACKBONE|DICT|INTERRES
   205  104  105 1    
   206  104  225 1    
   207  105  106 1    
   208  105  107 1    
   209  105  226 1    
   210  106  227 1    
   211  106  228 1    
   212  106  229 1    
   213  107  108 2    
   214  107  109 am   BACKBONE|DICT|INTERRES
   215  109  110 1    
   216  109  230 1    
   217  110  111 1    
   218  110  112 1    
   219  110  231 1    
   220  111  232 1    
   221  111  233 1    
   222  111  234 1    
   223  112  113 2    
   224  112  114 am   BACKBONE|DICT|INTERRES
   225  114  115 1    
   226  114  235 1    
   227  115  116 1    
   228  115  117 1    
   229  115  236 1    
   230  116  237 1    
   231  116  238 1    
   232  116  239 1    
   233  117  118 2    
   234  117  119 am   BACKBONE|DICT|INTERRES
   235  119  120 1    
   236  119  240 1    
   237  120  121 1    
   238  120  124 1    
   239  120  241 1    
   240  121  122 am   BACKBONE|DICT|INTERRES
   241  121  123 2    
   242  122  242 1    
   243  122  243 1    
   244  124  125 1    
   245  124  244 1    
   246  124  245 1    
   247  125  126 1    
   248  126  246 1    
   249  126  247 1    
@<TRIPOS>SUBSTRUCTURE
     1 UNK         1 GROUP             0       ****    0 ROOT    
