@<TRIPOS>MOLECULE
3R540
247   249    1
SMALL
USER_CHARGES


@<TRIPOS>ATOM
      1 CA          1.4625  -11.6776  -46.8382 C.3       0 UNK        -0.1800 
      2 C           1.7619  -11.9390  -48.3135 C.2       0 UNK         0.5000 
      3 O           2.1664  -11.0161  -49.0167 O.2       0 UNK        -0.5000 
      4 N           1.5817  -13.1615  -48.8334 N.am      1 UNK        -0.5000 
      5 CA          1.0937  -14.3605  -48.1351 C.3       1 UNK         0.1400 
      6 C6          1.6616  -15.6597  -48.7535 C.3       23 UNK        -0.0398 
      7 S7          3.4784  -15.7456  -48.6190 S.3       23 UNK        -0.2404 
      8 C8          3.9423  -16.3690  -50.2674 C.3       23 UNK        -0.0205 
      9 C9          3.4010  -17.7691  -50.5236 C.ar      23 UNK        -0.0193 
     10 C10         2.4666  -17.9930  -51.5394 C.ar      23 UNK        -0.1150 
     11 C11         1.9597  -19.2774  -51.7677 C.ar      23 UNK        -0.0193 
     12 C12         2.4073  -20.3344  -50.9722 C.ar      23 UNK        -0.1150 
     13 C13         3.3343  -20.1297  -49.9424 C.ar      23 UNK        -0.0193 
     14 C14         3.8317  -18.8408  -49.7364 C.ar      23 UNK        -0.1150 
     15 C15         3.8275  -21.2531  -49.0259 C.3       23 UNK        -0.0205 
     16 S16         2.9517  -22.8507  -49.1690 S.3       23 UNK        -0.2404 
     17 C17         1.2784  -22.4167  -48.5794 C.3       23 UNK        -0.0398 
     18 CA          0.7337  -23.4770  -47.6002 C.3       11 UNK         0.1400 
     19 N           1.5219  -23.5763  -46.3721 N.am      11 UNK        -0.5000 
     20 C           1.5177  -24.6533  -45.5752 C.2       10 UNK         0.5000 
     21 O           0.8655  -25.6690  -45.8134 O.2       10 UNK        -0.5000 
     22 CA          2.3297  -24.5658  -44.2693 C.3       10 UNK         0.1400 
     23 CB          3.7569  -25.0874  -44.4892 C.3       10 UNK        -0.1800 
     24 N           2.3917  -23.2127  -43.7142 N.am      10 UNK        -0.5000 
     25 C           1.3306  -22.4788  -43.3530 C.2       9 UNK         0.5000 
     26 O           0.1705  -22.8880  -43.4213 O.2       9 UNK        -0.5000 
     27 CA          1.5981  -21.0368  -42.8816 C.3       9 UNK         0.1400 
     28 CB          3.0575  -20.7833  -42.4438 C.3       9 UNK        -0.1800 
     29 N           1.1956  -20.0439  -43.8806 N.am      9 UNK        -0.5000 
     30 C           1.6050  -19.9350  -45.1537 C.2       8 UNK         0.5000 
     31 O           2.3236  -20.7608  -45.7176 O.2       8 UNK        -0.5000 
     32 CA          1.1529  -18.6761  -45.9218 C.3       8 UNK         0.1400 
     33 CB         -0.1929  -18.9017  -46.6253 C.3       8 UNK        -0.1800 
     34 N           1.0493  -17.5007  -45.0539 N.am      8 UNK        -0.5000 
     35 C           2.1002  -16.8185  -44.5758 C.2       7 UNK         0.5000 
     36 O           3.2670  -17.0453  -44.8951 O.2       7 UNK        -0.5000 
     37 CA          1.8003  -15.7164  -43.5432 C.3       7 UNK         0.1400 
     38 CB          1.4434  -14.3905  -44.2306 C.3       7 UNK        -0.1800 
     39 N           0.7223  -16.1056  -42.6332 N.am      7 UNK        -0.5000 
     40 C           0.8945  -16.9246  -41.5839 C.2       6 UNK         0.5000 
     41 O           1.9887  -17.3788  -41.2500 O.2       6 UNK        -0.5000 
     42 CA         -0.3524  -17.3135  -40.7630 C.3       6 UNK         0.1400 
     43 CB         -0.4601  -16.4364  -39.5063 C.3       6 UNK        -0.1800 
     44 N          -1.6083  -17.2245  -41.5077 N.am      6 UNK        -0.5000 
     45 C          -1.9316  -17.9740  -42.5701 C.2       5 UNK         0.5000 
     46 O          -1.2070  -18.8554  -43.0270 O.2       5 UNK        -0.5000 
     47 CA         -3.2575  -17.6364  -43.2783 C.3       5 UNK         0.1400 
     48 CB         -4.3998  -18.4949  -42.7163 C.3       5 UNK        -0.1800 
     49 N          -3.6259  -16.2192  -43.1828 N.am      5 UNK        -0.5000 
     50 C          -2.8834  -15.2069  -43.6491 C.2       4 UNK         0.5000 
     51 O          -1.7927  -15.3556  -44.2047 O.2       4 UNK        -0.5000 
     52 CA         -3.4073  -13.7934  -43.3849 C.3       4 UNK         0.1400 
     53 CB         -2.8706  -13.2696  -42.0392 C.3       4 UNK        -0.1800 
     54 N          -2.9706  -12.9323  -44.4761 N.am      4 UNK        -0.5000 
     55 C          -3.4897  -11.7370  -44.7759 C.2       3 UNK         0.5000 
     56 O          -4.3931  -11.2018  -44.1318 O.2       3 UNK        -0.5000 
     57 CA         -2.9111  -11.0133  -46.0066 C.3       3 UNK         0.1400 
     58 CB         -1.7463  -10.1020  -45.5894 C.3       3 UNK        -0.1800 
     59 N          -2.4578  -11.9099  -47.0736 N.am      3 UNK        -0.5000 
     60 C          -3.2480  -12.7218  -47.7917 C.2       2 UNK         0.5000 
     61 O          -4.4560  -12.8508  -47.5932 O.2       2 UNK        -0.5000 
     62 CA         -2.5902  -13.4981  -48.9491 C.3       2 UNK         0.1400 
     63 CB         -2.9708  -12.8604  -50.2945 C.3       2 UNK        -0.1800 
     64 N          -1.1286  -13.5568  -48.8549 N.am      2 UNK        -0.5000 
     65 C          -0.4495  -14.4206  -48.0861 C.2       1 UNK         0.5000 
     66 O          -0.9950  -15.2501  -47.3620 O.2       1 UNK        -0.5000 
     67 C          -0.7642  -23.2630  -47.3052 C.2       11 UNK         0.5000 
     68 O          -1.5902  -23.7301  -48.0867 O.2       11 UNK        -0.5000 
     69 N          -1.1110  -22.6239  -46.1762 N.am      12 UNK        -0.5000 
     70 CA         -2.4980  -22.5260  -45.7112 C.3       12 UNK         0.1400 
     71 CB         -2.6529  -21.4114  -44.6678 C.3       12 UNK        -0.1800 
     72 C          -3.0108  -23.8681  -45.1680 C.2       12 UNK         0.5000 
     73 O          -4.1512  -24.2332  -45.4514 O.2       12 UNK        -0.5000 
     74 N          -2.1452  -24.6089  -44.4604 N.am      13 UNK        -0.5000 
     75 CA         -2.4138  -25.9740  -43.9968 C.3       13 UNK         0.1400 
     76 CB         -1.2827  -26.4332  -43.0646 C.3       13 UNK        -0.1800 
     77 C          -2.6155  -26.9697  -45.1588 C.2       13 UNK         0.5000 
     78 O          -3.4686  -27.8523  -45.0641 O.2       13 UNK        -0.5000 
     79 N          -1.8611  -26.7778  -46.2499 N.am      14 UNK        -0.5000 
     80 CA         -1.9883  -27.5168  -47.5086 C.3       14 UNK         0.1400 
     81 CB         -0.6754  -27.3754  -48.2953 C.3       14 UNK        -0.1800 
     82 C          -3.1813  -27.0666  -48.3811 C.2       14 UNK         0.5000 
     83 O          -3.4681  -27.7301  -49.3783 O.2       14 UNK        -0.5000 
     84 N          -3.8379  -25.9555  -48.0111 N.am      15 UNK        -0.5000 
     85 CA         -4.9380  -25.2875  -48.7167 C.3       15 UNK         0.1400 
     86 CB         -6.2015  -26.1730  -48.7349 C.3       15 UNK        -0.1800 
     87 C          -4.5290  -24.7737  -50.1150 C.2       15 UNK         0.5000 
     88 O          -5.2948  -24.8915  -51.0733 O.2       15 UNK        -0.5000 
     89 N          -3.3205  -24.2072  -50.1977 N.am      16 UNK        -0.5000 
     90 CA         -2.6938  -23.6757  -51.4053 C.3       16 UNK         0.1400 
     91 CB         -1.6728  -24.7009  -51.9319 C.3       16 UNK        -0.1800 
     92 C          -2.0599  -22.3016  -51.1178 C.2       16 UNK         0.5000 
     93 O          -1.0025  -21.9837  -51.6614 O.2       16 UNK        -0.5000 
     94 N          -2.7054  -21.5118  -50.2488 N.am      17 UNK        -0.5000 
     95 CA         -2.3063  -20.1477  -49.9042 C.3       17 UNK         0.1400 
     96 CB         -3.0522  -19.7183  -48.6310 C.3       17 UNK        -0.1800 
     97 C          -2.5943  -19.1570  -51.0462 C.2       17 UNK         0.5000 
     98 O          -3.4302  -19.4285  -51.9117 O.2       17 UNK        -0.5000 
     99 N          -1.9286  -17.9954  -51.0015 N.am      18 UNK        -0.5000 
    100 CA        -2.0760  -16.9124  -51.9821 C.3       18 UNK         0.1400 
    101 CB        -0.9391  -15.9016  -51.7894 C.3       18 UNK        -0.1800 
    102 C         -3.4453  -16.2062  -51.9362 C.2       18 UNK         0.5000 
    103 O         -3.8033  -15.5184  -52.8914 O.2       18 UNK        -0.5000 
    104 N         -4.1921  -16.4034  -50.8404 N.am      19 UNK        -0.5000 
    105 CA        -5.5973  -16.0168  -50.7073 C.3       19 UNK         0.1400 
    106 CB        -5.9914  -16.0943  -49.2242 C.3       19 UNK        -0.1800 
    107 C         -6.5395  -16.8879  -51.5680 C.2       19 UNK         0.5000 
    108 O         -7.6557  -16.4572  -51.8610 O.2       19 UNK        -0.5000 
    109 N         -6.0749  -18.0838  -51.9561 N.am      20 UNK        -0.5000 
    110 CA        -6.7217  -18.9908  -52.8966 C.3       20 UNK         0.1400 
    111 CB        -6.7401  -20.4076  -52.2847 C.3       20 UNK        -0.1800 
    112 C         -5.9878  -18.9014  -54.2519 C.2       20 UNK         0.5000 
    113 O         -5.6772  -17.7983  -54.7052 O.2       20 UNK        -0.5000 
    114 N         -5.7318  -20.0493  -54.8912 N.am      21 UNK        -0.5000 
    115 CA        -5.0900  -20.1459  -56.2051 C.3       21 UNK         0.1400 
    116 CB        -5.5209  -21.4705  -56.8563 C.3       21 UNK        -0.1800 
    117 C         -3.5506  -20.0474  -56.1637 C.2       21 UNK         0.5000 
    118 O         -2.9356  -19.9088  -57.2217 O.2       21 UNK        -0.5000 
    119 N         -2.9507  -20.1520  -54.9691 N.am      22 UNK        -0.5000 
    120 CA        -1.4968  -20.2526  -54.7416 C.3       22 UNK         0.1400 
    121 C         -0.8585  -21.5778  -55.2712 C.2       22 UNK         0.5000 
    122 N         -1.6234  -22.6499  -55.4459 N.am      22 UNK        -0.7600 
    123 O          0.3405  -21.6493  -55.5240 O.2       22 UNK        -0.5000 
    124 C124       -0.7222  -18.9657  -55.1779 C.3       23 UNK        -0.0398 
    125 S125        0.7591  -18.4366  -54.2175 S.3       23 UNK        -0.2404 
    126 C126        0.8683  -19.5726  -52.7924 C.3       23 UNK        -0.0205 
    127 H127        2.3084  -11.9881  -46.2256 H         1 UNK         0.0600 
    128 H128        0.5726  -12.2009  -46.4934 H         1 UNK         0.0600 
    129 H129        1.3012  -10.6128  -46.6689 H         1 UNK         0.0600 
    130 H130        1.8220  -13.3017  -49.8044 H         1 UNK         0.3000 
    131 H131        1.4383  -14.3304  -47.1021 H         1 UNK         0.0600 
    132 H132        1.2614  -16.5400  -48.2480 H         1 UNK         0.0800 
    133 H133        1.3653  -15.7452  -49.7996 H         1 UNK         0.0800 
    134 H134        3.5969  -15.6679  -51.0288 H         1 UNK         0.0800 
    135 H135        5.0303  -16.3910  -50.3425 H         1 UNK         0.0800 
    136 H136        2.1315  -17.1622  -52.1415 H         1 UNK         0.1150 
    137 H137        2.0042  -21.3184  -51.1593 H         1 UNK         0.1150 
    138 H138        4.5492  -18.6639  -48.9470 H         1 UNK         0.1150 
    139 H139        4.8828  -21.4275  -49.2389 H         1 UNK         0.0800 
    140 H140        3.7756  -20.9214  -47.9880 H         1 UNK         0.0800 
    141 H141        0.6317  -22.3378  -49.4546 H         1 UNK         0.0800 
    142 H142        1.2915  -21.4301  -48.1166 H         1 UNK         0.0800 
    143 H143        0.8041  -24.4387  -48.1126 H         1 UNK         0.0600 
    144 H144        2.0554  -22.7551  -46.1045 H         1 UNK         0.3000 
    145 H145        1.8392  -25.2045  -43.5323 H         1 UNK         0.0600 
    146 H146        4.3188  -25.1072  -43.5553 H         1 UNK         0.0600 
    147 H147        4.3061  -24.4685  -45.2001 H         1 UNK         0.0600 
    148 H148        3.7442  -26.1053  -44.8812 H         1 UNK         0.0600 
    149 H149        3.3058  -22.7877  -43.6602 H         1 UNK         0.3000 
    150 H150        0.9586  -20.8760  -42.0124 H         1 UNK         0.0600 
    151 H151        3.3706  -21.4964  -41.6801 H         1 UNK         0.0600 
    152 H152        3.1631  -19.7877  -42.0130 H         1 UNK         0.0600 
    153 H153        3.7589  -20.8522  -43.2761 H         1 UNK         0.0600 
    154 H154        0.4857  -19.3898  -43.5603 H         1 UNK         0.3000 
    155 H155        1.9046  -18.4796  -46.6898 H         1 UNK         0.0600 
    156 H156       -1.0111  -18.9475  -45.9091 H         1 UNK         0.0600 
    157 H157       -0.1973  -19.8297  -47.1966 H         1 UNK         0.0600 
    158 H158       -0.4126  -18.0904  -47.3188 H         1 UNK         0.0600 
    159 H159        0.1233  -17.2404  -44.7442 H         1 UNK         0.3000 
    160 H160        2.7088  -15.5497  -42.9600 H         1 UNK         0.0600 
    161 H161        0.5705  -14.4890  -44.8753 H         1 UNK         0.0600 
    162 H162        2.2738  -14.0434  -44.8458 H         1 UNK         0.0600 
    163 H163        1.2326  -13.6098  -43.4997 H         1 UNK         0.0600 
    164 H164       -0.2107  -15.7957  -42.8782 H         1 UNK         0.3000 
    165 H165       -0.2239  -18.3513  -40.4480 H         1 UNK         0.0600 
    166 H166       -1.2871  -16.7550  -38.8716 H         1 UNK         0.0600 
    167 H167        0.4494  -16.4978  -38.9071 H         1 UNK         0.0600 
    168 H168       -0.6154  -15.3870  -39.7608 H         1 UNK         0.0600 
    169 H169       -2.2633  -16.5189  -41.2061 H         1 UNK         0.3000 
    170 H170       -3.1319  -17.8791  -44.3357 H         1 UNK         0.0600 
    171 H171       -4.6140  -18.2486  -41.6756 H         1 UNK         0.0600 
    172 H172       -4.1499  -19.5555  -42.7547 H         1 UNK         0.0600 
    173 H173       -5.3162  -18.3570  -43.2905 H         1 UNK         0.0600 
    174 H174       -4.5022  -16.0144  -42.7242 H         1 UNK         0.3000 
    175 H175       -4.4988  -13.8194  -43.3643 H         1 UNK         0.0600 
    176 H176       -1.7810  -13.2138  -42.0372 H         1 UNK         0.0600 
    177 H177       -3.2556  -12.2749  -41.8152 H         1 UNK         0.0600 
    178 H178       -3.1682  -13.9212  -41.2168 H         1 UNK         0.0600 
    179 H179       -2.2529  -13.3355  -45.0655 H         1 UNK         0.3000 
    180 H180       -3.7034  -10.3851  -46.4192 H         1 UNK         0.0600 
    181 H181       -1.3553   -9.5419  -46.4390 H         1 UNK         0.0600 
    182 H182       -0.9254  -10.6716  -45.1524 H         1 UNK         0.0600 
    183 H183       -2.0701   -9.3743  -44.8440 H         1 UNK         0.0600 
    184 H184       -1.4833  -11.8586  -47.3235 H         1 UNK         0.3000 
    185 H185       -2.9860  -14.5155  -48.9300 H         1 UNK         0.0600 
    186 H186       -2.5307  -13.4011  -51.1316 H         1 UNK         0.0600 
    187 H187       -4.0520  -12.8696  -50.4386 H         1 UNK         0.0600 
    188 H188       -2.6394  -11.8232  -50.3567 H         1 UNK         0.0600 
    189 H189       -0.6084  -12.9086  -49.4294 H         1 UNK         0.3000 
    190 H190       -0.3923  -22.3431  -45.5227 H         1 UNK         0.3000 
    191 H191       -3.1321  -22.2684  -46.5615 H         1 UNK         0.0600 
    192 H192       -2.4528  -20.4351  -45.1024 H         1 UNK         0.0600 
    193 H193       -1.9882  -21.5439  -43.8152 H         1 UNK         0.0600 
    194 H194       -3.6729  -21.3836  -44.2834 H         1 UNK         0.0600 
    195 H195       -1.2414  -24.2105  -44.2310 H         1 UNK         0.3000 
    196 H196       -3.3395  -25.9501  -43.4180 H         1 UNK         0.0600 
    197 H197       -1.1547  -25.7447  -42.2292 H         1 UNK         0.0600 
    198 H198       -0.3301  -26.5057  -43.5881 H         1 UNK         0.0600 
    199 H199       -1.5002  -27.4167  -42.6463 H         1 UNK         0.0600 
    200 H200       -1.1189  -26.0885  -46.2057 H         1 UNK         0.3000 
    201 H201       -2.1335  -28.5737  -47.2761 H         1 UNK         0.0600 
    202 H202        0.1803  -27.6979  -47.7020 H         1 UNK         0.0600 
    203 H203       -0.5037  -26.3441  -48.6029 H         1 UNK         0.0600 
    204 H204       -0.6922  -27.9861  -49.1988 H         1 UNK         0.0600 
    205 H205       -3.5270  -25.4890  -47.1691 H         1 UNK         0.3000 
    206 H206       -5.1739  -24.3988  -48.1297 H         1 UNK         0.0600 
    207 H207       -6.0684  -27.0603  -49.3542 H         1 UNK         0.0600 
    208 H208       -6.4657  -26.5014  -47.7297 H         1 UNK         0.0600 
    209 H209       -7.0565  -25.6242  -49.1313 H         1 UNK         0.0600 
    210 H210       -2.7533  -24.1279  -49.3525 H         1 UNK         0.3000 
    211 H211       -3.4465  -23.5091  -52.1782 H         1 UNK         0.0600 
    212 H212       -0.8724  -24.8716  -51.2108 H         1 UNK         0.0600 
    213 H213       -1.2151  -24.3604  -52.8616 H         1 UNK         0.0600 
    214 H214       -2.1485  -25.6601  -52.1367 H         1 UNK         0.0600 
    215 H215       -3.5768  -21.8417  -49.8629 H         1 UNK         0.3000 
    216 H216       -1.2326  -20.1399  -49.7036 H         1 UNK         0.0600 
    217 H217       -2.7978  -18.6975  -48.3430 H         1 UNK         0.0600 
    218 H218       -2.7879  -20.3577  -47.7909 H         1 UNK         0.0600 
    219 H219       -4.1343  -19.7623  -48.7617 H         1 UNK         0.0600 
    220 H220       -1.2670  -17.8351  -50.2564 H         1 UNK         0.3000 
    221 H221       -1.9794  -17.3466  -52.9780 H         1 UNK         0.0600 
    222 H222       -0.9594  -15.4674  -50.7929 H         1 UNK         0.0600 
    223 H223        0.0309  -16.3718  -51.9331 H         1 UNK         0.0600 
    224 H224       -1.0103  -15.0848  -52.5088 H         1 UNK         0.0600 
    225 H225       -3.8064  -16.9634  -50.0959 H         1 UNK         0.3000 
    226 H226       -5.7057  -14.9820  -51.0390 H         1 UNK         0.0600 
    227 H227       -5.3748  -15.4329  -48.6155 H         1 UNK         0.0600 
    228 H228       -7.0290  -15.7905  -49.0800 H         1 UNK         0.0600 
    229 H229       -5.8883  -17.1069  -48.8321 H         1 UNK         0.0600 
    230 H230       -5.1195  -18.3311  -51.7257 H         1 UNK         0.3000 
    231 H231       -7.7549  -18.6855  -53.0721 H         1 UNK         0.0600 
    232 H232       -7.3022  -21.1039  -52.9080 H         1 UNK         0.0600 
    233 H233       -7.2227  -20.4006  -51.3071 H         1 UNK         0.0600 
    234 H234       -5.7354  -20.8102  -52.1502 H         1 UNK         0.0600 
    235 H235       -6.0149  -20.9176  -54.4606 H         1 UNK         0.3000 
    236 H236       -5.4492  -19.3294  -56.8353 H         1 UNK         0.0600 
    237 H237       -6.6047  -21.5241  -56.9610 H         1 UNK         0.0600 
    238 H238       -5.0959  -21.5737  -57.8556 H         1 UNK         0.0600 
    239 H239       -5.1966  -22.3321  -56.2715 H         1 UNK         0.0600 
    240 H240       -3.5270  -20.2149  -54.1401 H         1 UNK         0.3000 
    241 H241       -1.4501  -20.3384  -53.6629 H         1 UNK         0.0600 
    242 H242       -1.2056  -23.4997  -55.7905 H         1 UNK         0.3800 
    243 H243       -2.6110  -22.6179  -55.2568 H         1 UNK         0.3800 
    244 H244       -0.4316  -19.0434  -56.2268 H         1 UNK         0.0800 
    245 H245       -1.4026  -18.1143  -55.1474 H         1 UNK         0.0800 
    246 H246        0.9899  -20.5902  -53.1647 H         1 UNK         0.0800 
    247 H247       -0.0662  -19.5405  -52.2423 H         1 UNK         0.0800 
@<TRIPOS>BOND
     1    1    2 1    
     2    1  127 1    
     3    1  128 1    
     4    1  129 1    
     5    2    3 2    
     6    2    4 am   BACKBONE|DICT|INTERRES
     7    4    5 1    
     8    4  130 1    
     9    5    6 1    
    10    5   65 1    
    11    5  131 1    
    12    6    7 1    
    13    6  132 1    
    14    6  133 1    
    15    7    8 1    
    16    8    9 1    
    17    8  134 1    
    18    8  135 1    
    19    9   10 ar   
    20    9   14 ar   
    21   10   11 ar   
    22   10  136 1    
    23   11   12 ar   
    24   11  126 1    
    25   12   13 ar   
    26   12  137 1    
    27   13   14 ar   
    28   13   15 1    
    29   14  138 1    
    30   15   16 1    
    31   15  139 1    
    32   15  140 1    
    33   16   17 1    
    34   17   18 1    
    35   17  141 1    
    36   17  142 1    
    37   18   19 1    
    38   18   67 1    
    39   18  143 1    
    40   19   20 am   BACKBONE|DICT|INTERRES
    41   19  144 1    
    42   20   21 2    
    43   20   22 1    
    44   22   23 1    
    45   22   24 1    
    46   22  145 1    
    47   23  146 1    
    48   23  147 1    
    49   23  148 1    
    50   24   25 am   BACKBONE|DICT|INTERRES
    51   24  149 1    
    52   25   26 2    
    53   25   27 1    
    54   27   28 1    
    55   27   29 1    
    56   27  150 1    
    57   28  151 1    
    58   28  152 1    
    59   28  153 1    
    60   29   30 am   BACKBONE|DICT|INTERRES
    61   29  154 1    
    62   30   31 2    
    63   30   32 1    
    64   32   33 1    
    65   32   34 1    
    66   32  155 1    
    67   33  156 1    
    68   33  157 1    
    69   33  158 1    
    70   34   35 am   BACKBONE|DICT|INTERRES
    71   34  159 1    
    72   35   36 2    
    73   35   37 1    
    74   37   38 1    
    75   37   39 1    
    76   37  160 1    
    77   38  161 1    
    78   38  162 1    
    79   38  163 1    
    80   39   40 am   BACKBONE|DICT|INTERRES
    81   39  164 1    
    82   40   41 2    
    83   40   42 1    
    84   42   43 1    
    85   42   44 1    
    86   42  165 1    
    87   43  166 1    
    88   43  167 1    
    89   43  168 1    
    90   44   45 am   BACKBONE|DICT|INTERRES
    91   44  169 1    
    92   45   46 2    
    93   45   47 1    
    94   47   48 1    
    95   47   49 1    
    96   47  170 1    
    97   48  171 1    
    98   48  172 1    
    99   48  173 1    
   100   49   50 am   BACKBONE|DICT|INTERRES
   101   49  174 1    
   102   50   51 2    
   103   50   52 1    
   104   52   53 1    
   105   52   54 1    
   106   52  175 1    
   107   53  176 1    
   108   53  177 1    
   109   53  178 1    
   110   54   55 am   BACKBONE|DICT|INTERRES
   111   54  179 1    
   112   55   56 2    
   113   55   57 1    
   114   57   58 1    
   115   57   59 1    
   116   57  180 1    
   117   58  181 1    
   118   58  182 1    
   119   58  183 1    
   120   59   60 am   BACKBONE|DICT|INTERRES
   121   59  184 1    
   122   60   61 2    
   123   60   62 1    
   124   62   63 1    
   125   62   64 1    
   126   62  185 1    
   127   63  186 1    
   128   63  187 1    
   129   63  188 1    
   130   64   65 am   BACKBONE|DICT|INTERRES
   131   64  189 1    
   132   65   66 2    
   133   67   68 2    
   134   67   69 am   BACKBONE|DICT|INTERRES
   135   69   70 1    
   136   69  190 1    
   137   70   71 1    
   138   70   72 1    
   139   70  191 1    
   140   71  192 1    
   141   71  193 1    
   142   71  194 1    
   143   72   73 2    
   144   72   74 am   BACKBONE|DICT|INTERRES
   145   74   75 1    
   146   74  195 1    
   147   75   76 1    
   148   75   77 1    
   149   75  196 1    
   150   76  197 1    
   151   76  198 1    
   152   76  199 1    
   153   77   78 2    
   154   77   79 am   BACKBONE|DICT|INTERRES
   155   79   80 1    
   156   79  200 1    
   157   80   81 1    
   158   80   82 1    
   159   80  201 1    
   160   81  202 1    
   161   81  203 1    
   162   81  204 1    
   163   82   83 2    
   164   82   84 am   BACKBONE|DICT|INTERRES
   165   84   85 1    
   166   84  205 1    
   167   85   86 1    
   168   85   87 1    
   169   85  206 1    
   170   86  207 1    
   171   86  208 1    
   172   86  209 1    
   173   87   88 2    
   174   87   89 am   BACKBONE|DICT|INTERRES
   175   89   90 1    
   176   89  210 1    
   177   90   91 1    
   178   90   92 1    
   179   90  211 1    
   180   91  212 1    
   181   91  213 1    
   182   91  214 1    
   183   92   93 2    
   184   92   94 am   BACKBONE|DICT|INTERRES
   185   94   95 1    
   186   94  215 1    
   187   95   96 1    
   188   95   97 1    
   189   95  216 1    
   190   96  217 1    
   191   96  218 1    
   192   96  219 1    
   193   97   98 2    
   194   97   99 am   BACKBONE|DICT|INTERRES
   195   99  100 1    
   196   99  220 1    
   197  100  101 1    
   198  100  102 1    
   199  100  221 1    
   200  101  222 1    
   201  101  223 1    
   202  101  224 1    
   203  102  103 2    
   204  102  104 am   BACKBONE|DICT|INTERRES
   205  104  105 1    
   206  104  225 1    
   207  105  106 1    
   208  105  107 1    
   209  105  226 1    
   210  106  227 1    
   211  106  228 1    
   212  106  229 1    
   213  107  108 2    
   214  107  109 am   BACKBONE|DICT|INTERRES
   215  109  110 1    
   216  109  230 1    
   217  110  111 1    
   218  110  112 1    
   219  110  231 1    
   220  111  232 1    
   221  111  233 1    
   222  111  234 1    
   223  112  113 2    
   224  112  114 am   BACKBONE|DICT|INTERRES
   225  114  115 1    
   226  114  235 1    
   227  115  116 1    
   228  115  117 1    
   229  115  236 1    
   230  116  237 1    
   231  116  238 1    
   232  116  239 1    
   233  117  118 2    
   234  117  119 am   BACKBONE|DICT|INTERRES
   235  119  120 1    
   236  119  240 1    
   237  120  121 1    
   238  120  124 1    
   239  120  241 1    
   240  121  122 am   BACKBONE|DICT|INTERRES
   241  121  123 2    
   242  122  242 1    
   243  122  243 1    
   244  124  125 1    
   245  124  244 1    
   246  124  245 1    
   247  125  126 1    
   248  126  246 1    
   249  126  247 1    
@<TRIPOS>SUBSTRUCTURE
     1 UNK         1 GROUP             0       ****    0 ROOT    
