@<TRIPOS>MOLECULE
3R540
247   249    1
SMALL
USER_CHARGES


@<TRIPOS>ATOM
      1 CA         -1.4965  -14.1072  -50.3617 C.3       0 UNK        -0.1800 
      2 C          -0.4266  -13.2940  -49.6468 C.2       0 UNK         0.5000 
      3 O          -0.4527  -12.0644  -49.7013 O.2       0 UNK        -0.5000 
      4 N           0.5212  -13.9786  -48.9960 N.am      1 UNK        -0.5000 
      5 CA          1.6420  -13.3998  -48.2503 C.3       1 UNK         0.1400 
      6 C6          2.6572  -14.4790  -47.8052 C.3       23 UNK        -0.0398 
      7 S7          3.3222  -15.4830  -49.1749 S.3       23 UNK        -0.2404 
      8 C8          2.8222  -17.1583  -48.6651 C.3       23 UNK        -0.0205 
      9 C9          1.4408  -17.5316  -49.1840 C.ar      23 UNK        -0.0193 
     10 C10         1.3299  -18.2128  -50.3980 C.ar      23 UNK        -0.1150 
     11 C11         0.0814  -18.5913  -50.8958 C.ar      23 UNK        -0.0193 
     12 C12        -1.0699  -18.2755  -50.1672 C.ar      23 UNK        -0.1150 
     13 C13        -0.9783  -17.5759  -48.9598 C.ar      23 UNK        -0.0193 
     14 C14         0.2821  -17.2185  -48.4642 C.ar      23 UNK        -0.1150 
     15 C15        -2.2453  -17.1630  -48.2229 C.3       23 UNK        -0.0205 
     16 S16        -2.4269  -17.9811  -46.6108 S.3       23 UNK        -0.2404 
     17 C17        -2.8665  -19.6947  -47.0498 C.3       23 UNK        -0.0398 
     18 CA         -1.6512  -20.6285  -47.2803 C.3       11 UNK         0.1400 
     19 N          -0.5605  -20.3912  -46.3293 N.am      11 UNK        -0.5000 
     20 C           0.6700  -20.9138  -46.3994 C.2       10 UNK         0.5000 
     21 O           1.0308  -21.6941  -47.2814 O.2       10 UNK        -0.5000 
     22 CA          1.6484  -20.5376  -45.2705 C.3       10 UNK         0.1400 
     23 CB          2.5792  -19.4074  -45.7254 C.3       10 UNK        -0.1800 
     24 N           1.0243  -20.1399  -44.0041 N.am      10 UNK        -0.5000 
     25 C           0.1938  -20.8891  -43.2621 C.2       9 UNK         0.5000 
     26 O          -0.2786  -21.9629  -43.6401 O.2       9 UNK        -0.5000 
     27 CA         -0.1394  -20.3360  -41.8588 C.3       9 UNK         0.1400 
     28 CB         -0.7613  -21.3915  -40.9213 C.3       9 UNK        -0.1800 
     29 N           1.0209  -19.6870  -41.2337 N.am      9 UNK        -0.5000 
     30 C           2.2055  -20.2519  -40.9476 C.2       8 UNK         0.5000 
     31 O           2.4332  -21.4580  -41.0479 O.2       8 UNK        -0.5000 
     32 CA          3.3462  -19.3190  -40.5046 C.3       8 UNK         0.1400 
     33 CB          4.4223  -19.2321  -41.6011 C.3       8 UNK        -0.1800 
     34 N           2.8826  -17.9620  -40.2005 N.am      8 UNK        -0.5000 
     35 C           2.9830  -17.3832  -38.9968 C.2       7 UNK         0.5000 
     36 O           3.4330  -17.9473  -37.9984 O.2       7 UNK        -0.5000 
     37 CA          2.5196  -15.9209  -38.8799 C.3       7 UNK         0.1400 
     38 CB          3.6709  -14.9628  -39.2229 C.3       7 UNK        -0.1800 
     39 N           1.3589  -15.5949  -39.7090 N.am      7 UNK        -0.5000 
     40 C           0.1083  -16.0022  -39.4495 C.2       6 UNK         0.5000 
     41 O          -0.1803  -16.8001  -38.5576 O.2       6 UNK        -0.5000 
     42 CA         -1.0090  -15.4076  -40.3202 C.3       6 UNK         0.1400 
     43 CB         -1.3245  -13.9689  -39.8807 C.3       6 UNK        -0.1800 
     44 N          -0.6312  -15.4024  -41.7305 N.am      6 UNK        -0.5000 
     45 C          -1.0808  -16.2743  -42.6422 C.2       5 UNK         0.5000 
     46 O          -1.8925  -17.1669  -42.3994 O.2       5 UNK        -0.5000 
     47 CA         -0.5166  -16.1375  -44.0697 C.3       5 UNK         0.1400 
     48 CB         -1.4064  -15.1899  -44.8881 C.3       5 UNK        -0.1800 
     49 N           0.8648  -15.6543  -44.1112 N.am      5 UNK        -0.5000 
     50 C           1.9062  -16.2732  -43.5360 C.2       4 UNK         0.5000 
     51 O           1.8262  -17.3780  -42.9963 O.2       4 UNK        -0.5000 
     52 CA          3.2488  -15.5198  -43.4952 C.3       4 UNK         0.1400 
     53 CB          4.2045  -16.0430  -44.5761 C.3       4 UNK        -0.1800 
     54 N           3.1331  -14.0606  -43.6006 N.am      4 UNK        -0.5000 
     55 C           2.5168  -13.2685  -42.7090 C.2       3 UNK         0.5000 
     56 O           1.8751  -13.6911  -41.7463 O.2       3 UNK        -0.5000 
     57 CA          2.5854  -11.7616  -42.9785 C.3       3 UNK         0.1400 
     58 CB          4.0390  -11.2487  -42.9946 C.3       3 UNK        -0.1800 
     59 N           1.9096  -11.5017  -44.2427 N.am      3 UNK        -0.5000 
     60 C           1.5084  -10.3231  -44.7228 C.2       2 UNK         0.5000 
     61 O           1.7443   -9.2495  -44.1654 O.2       2 UNK        -0.5000 
     62 CA          0.6895  -10.3578  -46.0384 C.3       2 UNK         0.1400 
     63 CB          0.5472   -8.9653  -46.6798 C.3       2 UNK        -0.1800 
     64 N           1.1912  -11.2892  -47.0592 N.am      2 UNK        -0.5000 
     65 C           1.1402  -12.6268  -47.0137 C.2       1 UNK         0.5000 
     66 O           0.7447  -13.2592  -46.0315 O.2       1 UNK        -0.5000 
     67 C          -2.1235  -22.0979  -47.3068 C.2       11 UNK         0.5000 
     68 O          -2.7722  -22.5025  -48.2736 O.2       11 UNK        -0.5000 
     69 N          -1.7934  -22.8788  -46.2645 N.am      12 UNK        -0.5000 
     70 CA         -2.0661  -24.3139  -46.1467 C.3       12 UNK         0.1400 
     71 CB         -1.5581  -24.8151  -44.7878 C.3       12 UNK        -0.1800 
     72 C          -1.4638  -25.1547  -47.2897 C.2       12 UNK         0.5000 
     73 O          -2.0504  -26.1711  -47.6613 O.2       12 UNK        -0.5000 
     74 N          -0.3531  -24.6828  -47.8769 N.am      13 UNK        -0.5000 
     75 CA          0.2775  -25.2572  -49.0697 C.3       13 UNK         0.1400 
     76 CB          1.6193  -24.5491  -49.3096 C.3       13 UNK        -0.1800 
     77 C          -0.6048  -25.1776  -50.3347 C.2       13 UNK         0.5000 
     78 O          -0.4261  -25.9830  -51.2484 O.2       13 UNK        -0.5000 
     79 N          -1.5503  -24.2297  -50.3499 N.am      14 UNK        -0.5000 
     80 CA         -2.5517  -24.0244  -51.3938 C.3       14 UNK         0.1400 
     81 CB         -2.5043  -22.5471  -51.8137 C.3       14 UNK        -0.1800 
     82 C          -3.9574  -24.4322  -50.9094 C.2       14 UNK         0.5000 
     83 O          -4.9489  -23.9666  -51.4737 O.2       14 UNK        -0.5000 
     84 N          -4.0252  -25.2654  -49.8579 N.am      15 UNK        -0.5000 
     85 CA         -5.2366  -25.7615  -49.1963 C.3       15 UNK         0.1400 
     86 CB         -6.0187  -26.7069  -50.1320 C.3       15 UNK        -0.1800 
     87 C          -6.0976  -24.6212  -48.6140 C.2       15 UNK         0.5000 
     88 O          -7.3087  -24.5849  -48.8288 O.2       15 UNK        -0.5000 
     89 N          -5.4312  -23.6928  -47.9116 N.am      16 UNK        -0.5000 
     90 CA         -5.9658  -22.4459  -47.3498 C.3       16 UNK         0.1400 
     91 CB         -7.0849  -22.7120  -46.3209 C.3       16 UNK        -0.1800 
     92 C          -6.3625  -21.4482  -48.4566 C.2       16 UNK         0.5000 
     93 O          -7.3998  -20.7908  -48.3618 O.2       16 UNK        -0.5000 
     94 N          -5.5137  -21.3755  -49.4941 N.am      17 UNK        -0.5000 
     95 CA         -5.6620  -20.5747  -50.7160 C.3       17 UNK         0.1400 
     96 CB         -5.5695  -19.0674  -50.4027 C.3       17 UNK        -0.1800 
     97 C          -6.9022  -20.9430  -51.5606 C.2       17 UNK         0.5000 
     98 O          -7.4231  -20.0967  -52.2893 O.2       17 UNK        -0.5000 
     99 N          -7.3437  -22.2051  -51.4692 N.am      18 UNK        -0.5000 
    100 CA        -8.4032  -22.7711  -52.3031 C.3       18 UNK         0.1400 
    101 CB        -8.9706  -24.0295  -51.6325 C.3       18 UNK        -0.1800 
    102 C         -7.8983  -23.0905  -53.7209 C.2       18 UNK         0.5000 
    103 O         -8.6641  -22.9681  -54.6781 O.2       18 UNK        -0.5000 
    104 N         -6.6175  -23.4702  -53.8372 N.am      19 UNK        -0.5000 
    105 CA        -5.9173  -23.6286  -55.1070 C.3       19 UNK         0.1400 
    106 CB        -4.6449  -24.4641  -54.8891 C.3       19 UNK        -0.1800 
    107 C         -5.5851  -22.2413  -55.6807 C.2       19 UNK         0.5000 
    108 O         -4.7250  -21.5486  -55.1335 O.2       19 UNK        -0.5000 
    109 N         -6.2712  -21.8578  -56.7655 N.am      20 UNK        -0.5000 
    110 CA        -6.1617  -20.5456  -57.4159 C.3       20 UNK         0.1400 
    111 CB        -7.2319  -20.4421  -58.5132 C.3       20 UNK        -0.1800 
    112 C         -4.7655  -20.2362  -57.9936 C.2       20 UNK         0.5000 
    113 O         -4.4032  -19.0658  -58.1156 O.2       20 UNK        -0.5000 
    114 N         -4.0002  -21.2884  -58.3126 N.am      21 UNK        -0.5000 
    115 CA        -2.6036  -21.2144  -58.7447 C.3       21 UNK         0.1400 
    116 CB        -2.2441  -22.5298  -59.4545 C.3       21 UNK        -0.1800 
    117 C         -1.6158  -20.9360  -57.5903 C.2       21 UNK         0.5000 
    118 O         -0.4443  -20.6686  -57.8604 O.2       21 UNK        -0.5000 
    119 N         -2.0855  -21.0151  -56.3359 N.am      22 UNK        -0.5000 
    120 CA        -1.2986  -20.8677  -55.1003 C.3       22 UNK         0.1400 
    121 C         -0.3080  -22.0456  -54.8323 C.2       22 UNK         0.5000 
    122 N         -0.5093  -23.2194  -55.4198 N.am      22 UNK        -0.7600 
    123 O          0.6426  -21.9127  -54.0677 O.2       22 UNK        -0.5000 
    124 C124       -0.6524  -19.4536  -54.9517 C.3       23 UNK        -0.0398 
    125 S125       -1.1286  -18.5927  -53.4128 S.3       23 UNK        -0.2404 
    126 C126       -0.0028  -19.3625  -52.2061 C.3       23 UNK        -0.0205 
    127 H127       -2.4218  -14.1010  -49.7859 H         1 UNK         0.0600 
    128 H128       -1.7016  -13.6806  -51.3436 H         1 UNK         0.0600 
    129 H129       -1.1857  -15.1418  -50.5066 H         1 UNK         0.0600 
    130 H130        0.4956  -14.9882  -49.0155 H         1 UNK         0.3000 
    131 H131        2.1591  -12.7033  -48.9137 H         1 UNK         0.0600 
    132 H132        2.1991  -15.1398  -47.0686 H         1 UNK         0.0800 
    133 H133        3.5065  -14.0111  -47.3042 H         1 UNK         0.0800 
    134 H134        2.8652  -17.2487  -47.5814 H         1 UNK         0.0800 
    135 H135        3.5597  -17.8665  -49.0460 H         1 UNK         0.0800 
    136 H136        2.2247  -18.4563  -50.9537 H         1 UNK         0.1150 
    137 H137       -2.0385  -18.5610  -50.5530 H         1 UNK         0.1150 
    138 H138        0.3554  -16.6928  -47.5224 H         1 UNK         0.1150 
    139 H139       -3.1334  -17.3465  -48.8278 H         1 UNK         0.0800 
    140 H140       -2.2142  -16.0856  -48.0573 H         1 UNK         0.0800 
    141 H141       -3.4828  -20.0665  -46.2290 H         1 UNK         0.0800 
    142 H142       -3.5113  -19.6864  -47.9292 H         1 UNK         0.0800 
    143 H143       -1.2503  -20.4176  -48.2730 H         1 UNK         0.0600 
    144 H144       -0.7663  -19.7550  -45.5735 H         1 UNK         0.3000 
    145 H145        2.2563  -21.4218  -45.0697 H         1 UNK         0.0600 
    146 H146        3.3833  -19.2504  -45.0071 H         1 UNK         0.0600 
    147 H147        3.0419  -19.6369  -46.6862 H         1 UNK         0.0600 
    148 H148        2.0329  -18.4699  -45.8304 H         1 UNK         0.0600 
    149 H149        1.3450  -19.2619  -43.6087 H         1 UNK         0.3000 
    150 H150       -0.8850  -19.5564  -42.0105 H         1 UNK         0.0600 
    151 H151       -1.6995  -21.7694  -41.3292 H         1 UNK         0.0600 
    152 H152       -0.9816  -20.9669  -39.9419 H         1 UNK         0.0600 
    153 H153       -0.1022  -22.2477  -40.7763 H         1 UNK         0.0600 
    154 H154        0.9533  -18.6846  -41.1368 H         1 UNK         0.3000 
    155 H155        3.8009  -19.7807  -39.6260 H         1 UNK         0.0600 
    156 H156        4.8305  -20.2176  -41.8288 H         1 UNK         0.0600 
    157 H157        5.2544  -18.6018  -41.2871 H         1 UNK         0.0600 
    158 H158        4.0236  -18.8223  -42.5288 H         1 UNK         0.0600 
    159 H159        2.4984  -17.4362  -40.9752 H         1 UNK         0.3000 
    160 H160        2.2442  -15.7486  -37.8371 H         1 UNK         0.0600 
    161 H161        3.9973  -15.0754  -40.2565 H         1 UNK         0.0600 
    162 H162        3.3755  -13.9235  -39.0777 H         1 UNK         0.0600 
    163 H163        4.5359  -15.1468  -38.5844 H         1 UNK         0.0600 
    164 H164        1.5128  -14.9124  -40.4477 H         1 UNK         0.3000 
    165 H165       -1.9082  -16.0081  -40.1663 H         1 UNK         0.0600 
    166 H166       -2.1573  -13.5586  -40.4519 H         1 UNK         0.0600 
    167 H167       -1.6047  -13.9345  -38.8271 H         1 UNK         0.0600 
    168 H168       -0.4687  -13.3060  -40.0158 H         1 UNK         0.0600 
    169 H169        0.0677  -14.7236  -42.0076 H         1 UNK         0.3000 
    170 H170       -0.5353  -17.1273  -44.5286 H         1 UNK         0.0600 
    171 H171       -2.4507  -15.5030  -44.8558 H         1 UNK         0.0600 
    172 H172       -1.3615  -14.1679  -44.5099 H         1 UNK         0.0600 
    173 H173       -1.1065  -15.1749  -45.9356 H         1 UNK         0.0600 
    174 H174        1.0077  -14.7601  -44.5646 H         1 UNK         0.3000 
    175 H175        3.7001  -15.7386  -42.5262 H         1 UNK         0.0600 
    176 H176        3.8115  -15.8885  -45.5789 H         1 UNK         0.0600 
    177 H177        5.1757  -15.5517  -44.5162 H         1 UNK         0.0600 
    178 H178        4.3799  -17.1123  -44.4558 H         1 UNK         0.0600 
    179 H179        3.6304  -13.6263  -44.3639 H         1 UNK         0.3000 
    180 H180        2.0406  -11.2549  -42.1794 H         1 UNK         0.0600 
    181 H181        4.5662  -11.5423  -42.0859 H         1 UNK         0.0600 
    182 H182        4.6008  -11.6389  -43.8436 H         1 UNK         0.0600 
    183 H183        4.0742  -10.1608  -43.0475 H         1 UNK         0.0600 
    184 H184        1.5997  -12.3225  -44.7585 H         1 UNK         0.3000 
    185 H185       -0.3127  -10.6899  -45.7600 H         1 UNK         0.0600 
    186 H186        0.0881   -8.2566  -45.9893 H         1 UNK         0.0600 
    187 H187        1.5156   -8.5592  -46.9744 H         1 UNK         0.0600 
    188 H188       -0.0859   -9.0023  -47.5666 H         1 UNK         0.0600 
    189 H189        1.5389  -10.8574  -47.9033 H         1 UNK         0.3000 
    190 H190       -1.2661  -22.4657  -45.5025 H         1 UNK         0.3000 
    191 H191       -3.1488  -24.4484  -46.1744 H         1 UNK         0.0600 
    192 H192       -1.7681  -25.8775  -44.6572 H         1 UNK         0.0600 
    193 H193       -2.0411  -24.2852  -43.9665 H         1 UNK         0.0600 
    194 H194       -0.4808  -24.6765  -44.6862 H         1 UNK         0.0600 
    195 H195        0.0547  -23.8260  -47.5232 H         1 UNK         0.3000 
    196 H196        0.4745  -26.3126  -48.8713 H         1 UNK         0.0600 
    197 H197        2.1385  -24.9741  -50.1696 H         1 UNK         0.0600 
    198 H198        2.2796  -24.6511  -48.4482 H         1 UNK         0.0600 
    199 H199        1.4817  -23.4841  -49.5019 H         1 UNK         0.0600 
    200 H200       -1.6507  -23.6317  -49.5375 H         1 UNK         0.3000 
    201 H201       -2.3270  -24.6362  -52.2694 H         1 UNK         0.0600 
    202 H202       -1.5188  -22.3011  -52.2017 H         1 UNK         0.0600 
    203 H203       -2.7041  -21.8806  -50.9747 H         1 UNK         0.0600 
    204 H204       -3.2274  -22.3254  -52.5991 H         1 UNK         0.0600 
    205 H205       -3.1546  -25.5820  -49.4482 H         1 UNK         0.3000 
    206 H206       -4.9018  -26.3520  -48.3422 H         1 UNK         0.0600 
    207 H207       -5.3945  -27.5388  -50.4575 H         1 UNK         0.0600 
    208 H208       -6.8857  -27.1322  -49.6252 H         1 UNK         0.0600 
    209 H209       -6.3787  -26.1941  -51.0233 H         1 UNK         0.0600 
    210 H210       -4.4226  -23.7692  -47.8810 H         1 UNK         0.3000 
    211 H211       -5.1428  -21.9804  -46.8072 H         1 UNK         0.0600 
    212 H212       -7.9916  -23.0943  -46.7901 H         1 UNK         0.0600 
    213 H213       -7.3551  -21.7945  -45.7971 H         1 UNK         0.0600 
    214 H214       -6.7655  -23.4328  -45.5684 H         1 UNK         0.0600 
    215 H215       -4.6931  -21.9661  -49.4582 H         1 UNK         0.3000 
    216 H216       -4.8075  -20.8218  -51.3451 H         1 UNK         0.0600 
    217 H217       -5.5487  -18.4762  -51.3189 H         1 UNK         0.0600 
    218 H218       -4.6581  -18.8370  -49.8546 H         1 UNK         0.0600 
    219 H219       -6.4168  -18.7224  -49.8099 H         1 UNK         0.0600 
    220 H220       -6.8318  -22.8529  -50.8839 H         1 UNK         0.3000 
    221 H221       -9.2105  -22.0408  -52.3893 H         1 UNK         0.0600 
    222 H222       -8.2110  -24.8029  -51.5221 H         1 UNK         0.0600 
    223 H223       -9.3651  -23.8039  -50.6415 H         1 UNK         0.0600 
    224 H224       -9.7866  -24.4514  -52.2203 H         1 UNK         0.0600 
    225 H225       -6.0514  -23.5437  -52.9961 H         1 UNK         0.3000 
    226 H226       -6.5607  -24.1684  -55.8051 H         1 UNK         0.0600 
    227 H227       -4.8833  -25.4427  -54.4720 H         1 UNK         0.0600 
    228 H228       -4.1215  -24.6292  -55.8314 H         1 UNK         0.0600 
    229 H229       -3.9477  -23.9746  -54.2095 H         1 UNK         0.0600 
    230 H230       -6.9771  -22.4790  -57.1350 H         1 UNK         0.3000 
    231 H231       -6.3730  -19.7860  -56.6603 H         1 UNK         0.0600 
    232 H232       -7.0904  -21.1991  -59.2856 H         1 UNK         0.0600 
    233 H233       -8.2336  -20.5647  -58.1007 H         1 UNK         0.0600 
    234 H234       -7.2004  -19.4664  -59.0000 H         1 UNK         0.0600 
    235 H235       -4.3889  -22.2119  -58.1917 H         1 UNK         0.3000 
    236 H236       -2.5027  -20.3991  -59.4641 H         1 UNK         0.0600 
    237 H237       -2.3293  -23.3860  -58.7843 H         1 UNK         0.0600 
    238 H238       -2.8954  -22.7067  -60.3107 H         1 UNK         0.0600 
    239 H239       -1.2196  -22.5066  -59.8285 H         1 UNK         0.0600 
    240 H240       -3.0683  -21.2196  -56.1884 H         1 UNK         0.3000 
    241 H241       -2.0452  -20.9750  -54.3140 H         1 UNK         0.0600 
    242 H242        0.1308  -23.9762  -55.2383 H         1 UNK         0.3800 
    243 H243       -1.2815  -23.3550  -56.0505 H         1 UNK         0.3800 
    244 H244       -0.9741  -18.8008  -55.7639 H         1 UNK         0.0800 
    245 H245        0.4350  -19.4833  -55.0382 H         1 UNK         0.0800 
    246 H246       -0.3384  -20.3752  -51.9904 H         1 UNK         0.0800 
    247 H247        0.9871  -19.4548  -52.6557 H         1 UNK         0.0800 
@<TRIPOS>BOND
     1    1    2 1    
     2    1  127 1    
     3    1  128 1    
     4    1  129 1    
     5    2    3 2    
     6    2    4 am   BACKBONE|DICT|INTERRES
     7    4    5 1    
     8    4  130 1    
     9    5    6 1    
    10    5   65 1    
    11    5  131 1    
    12    6    7 1    
    13    6  132 1    
    14    6  133 1    
    15    7    8 1    
    16    8    9 1    
    17    8  134 1    
    18    8  135 1    
    19    9   10 ar   
    20    9   14 ar   
    21   10   11 ar   
    22   10  136 1    
    23   11   12 ar   
    24   11  126 1    
    25   12   13 ar   
    26   12  137 1    
    27   13   14 ar   
    28   13   15 1    
    29   14  138 1    
    30   15   16 1    
    31   15  139 1    
    32   15  140 1    
    33   16   17 1    
    34   17   18 1    
    35   17  141 1    
    36   17  142 1    
    37   18   19 1    
    38   18   67 1    
    39   18  143 1    
    40   19   20 am   BACKBONE|DICT|INTERRES
    41   19  144 1    
    42   20   21 2    
    43   20   22 1    
    44   22   23 1    
    45   22   24 1    
    46   22  145 1    
    47   23  146 1    
    48   23  147 1    
    49   23  148 1    
    50   24   25 am   BACKBONE|DICT|INTERRES
    51   24  149 1    
    52   25   26 2    
    53   25   27 1    
    54   27   28 1    
    55   27   29 1    
    56   27  150 1    
    57   28  151 1    
    58   28  152 1    
    59   28  153 1    
    60   29   30 am   BACKBONE|DICT|INTERRES
    61   29  154 1    
    62   30   31 2    
    63   30   32 1    
    64   32   33 1    
    65   32   34 1    
    66   32  155 1    
    67   33  156 1    
    68   33  157 1    
    69   33  158 1    
    70   34   35 am   BACKBONE|DICT|INTERRES
    71   34  159 1    
    72   35   36 2    
    73   35   37 1    
    74   37   38 1    
    75   37   39 1    
    76   37  160 1    
    77   38  161 1    
    78   38  162 1    
    79   38  163 1    
    80   39   40 am   BACKBONE|DICT|INTERRES
    81   39  164 1    
    82   40   41 2    
    83   40   42 1    
    84   42   43 1    
    85   42   44 1    
    86   42  165 1    
    87   43  166 1    
    88   43  167 1    
    89   43  168 1    
    90   44   45 am   BACKBONE|DICT|INTERRES
    91   44  169 1    
    92   45   46 2    
    93   45   47 1    
    94   47   48 1    
    95   47   49 1    
    96   47  170 1    
    97   48  171 1    
    98   48  172 1    
    99   48  173 1    
   100   49   50 am   BACKBONE|DICT|INTERRES
   101   49  174 1    
   102   50   51 2    
   103   50   52 1    
   104   52   53 1    
   105   52   54 1    
   106   52  175 1    
   107   53  176 1    
   108   53  177 1    
   109   53  178 1    
   110   54   55 am   BACKBONE|DICT|INTERRES
   111   54  179 1    
   112   55   56 2    
   113   55   57 1    
   114   57   58 1    
   115   57   59 1    
   116   57  180 1    
   117   58  181 1    
   118   58  182 1    
   119   58  183 1    
   120   59   60 am   BACKBONE|DICT|INTERRES
   121   59  184 1    
   122   60   61 2    
   123   60   62 1    
   124   62   63 1    
   125   62   64 1    
   126   62  185 1    
   127   63  186 1    
   128   63  187 1    
   129   63  188 1    
   130   64   65 am   BACKBONE|DICT|INTERRES
   131   64  189 1    
   132   65   66 2    
   133   67   68 2    
   134   67   69 am   BACKBONE|DICT|INTERRES
   135   69   70 1    
   136   69  190 1    
   137   70   71 1    
   138   70   72 1    
   139   70  191 1    
   140   71  192 1    
   141   71  193 1    
   142   71  194 1    
   143   72   73 2    
   144   72   74 am   BACKBONE|DICT|INTERRES
   145   74   75 1    
   146   74  195 1    
   147   75   76 1    
   148   75   77 1    
   149   75  196 1    
   150   76  197 1    
   151   76  198 1    
   152   76  199 1    
   153   77   78 2    
   154   77   79 am   BACKBONE|DICT|INTERRES
   155   79   80 1    
   156   79  200 1    
   157   80   81 1    
   158   80   82 1    
   159   80  201 1    
   160   81  202 1    
   161   81  203 1    
   162   81  204 1    
   163   82   83 2    
   164   82   84 am   BACKBONE|DICT|INTERRES
   165   84   85 1    
   166   84  205 1    
   167   85   86 1    
   168   85   87 1    
   169   85  206 1    
   170   86  207 1    
   171   86  208 1    
   172   86  209 1    
   173   87   88 2    
   174   87   89 am   BACKBONE|DICT|INTERRES
   175   89   90 1    
   176   89  210 1    
   177   90   91 1    
   178   90   92 1    
   179   90  211 1    
   180   91  212 1    
   181   91  213 1    
   182   91  214 1    
   183   92   93 2    
   184   92   94 am   BACKBONE|DICT|INTERRES
   185   94   95 1    
   186   94  215 1    
   187   95   96 1    
   188   95   97 1    
   189   95  216 1    
   190   96  217 1    
   191   96  218 1    
   192   96  219 1    
   193   97   98 2    
   194   97   99 am   BACKBONE|DICT|INTERRES
   195   99  100 1    
   196   99  220 1    
   197  100  101 1    
   198  100  102 1    
   199  100  221 1    
   200  101  222 1    
   201  101  223 1    
   202  101  224 1    
   203  102  103 2    
   204  102  104 am   BACKBONE|DICT|INTERRES
   205  104  105 1    
   206  104  225 1    
   207  105  106 1    
   208  105  107 1    
   209  105  226 1    
   210  106  227 1    
   211  106  228 1    
   212  106  229 1    
   213  107  108 2    
   214  107  109 am   BACKBONE|DICT|INTERRES
   215  109  110 1    
   216  109  230 1    
   217  110  111 1    
   218  110  112 1    
   219  110  231 1    
   220  111  232 1    
   221  111  233 1    
   222  111  234 1    
   223  112  113 2    
   224  112  114 am   BACKBONE|DICT|INTERRES
   225  114  115 1    
   226  114  235 1    
   227  115  116 1    
   228  115  117 1    
   229  115  236 1    
   230  116  237 1    
   231  116  238 1    
   232  116  239 1    
   233  117  118 2    
   234  117  119 am   BACKBONE|DICT|INTERRES
   235  119  120 1    
   236  119  240 1    
   237  120  121 1    
   238  120  124 1    
   239  120  241 1    
   240  121  122 am   BACKBONE|DICT|INTERRES
   241  121  123 2    
   242  122  242 1    
   243  122  243 1    
   244  124  125 1    
   245  124  244 1    
   246  124  245 1    
   247  125  126 1    
   248  126  246 1    
   249  126  247 1    
@<TRIPOS>SUBSTRUCTURE
     1 UNK         1 GROUP             0       ****    0 ROOT    
