@<TRIPOS>MOLECULE
3R540
247   249    1
SMALL
USER_CHARGES


@<TRIPOS>ATOM
      1 CA         -2.2476  -16.5770  -42.5339 C.3       0 UNK        -0.1800 
      2 C          -2.6433  -15.1263  -42.7787 C.2       0 UNK         0.5000 
      3 O          -2.7695  -14.3559  -41.8266 O.2       0 UNK        -0.5000 
      4 N          -2.8520  -14.7569  -44.0482 N.am      1 UNK        -0.5000 
      5 CA         -3.1449  -13.3920  -44.4992 C.3       1 UNK         0.1400 
      6 C6         -3.6978  -13.3806  -45.9503 C.3       23 UNK        -0.0398 
      7 S7         -2.5671  -14.1373  -47.1730 S.3       23 UNK        -0.2404 
      8 C8         -3.6035  -15.4307  -47.9380 C.3       23 UNK        -0.0205 
      9 C9         -2.7857  -16.5590  -48.5630 C.ar      23 UNK        -0.0193 
     10 C10        -1.6210  -16.2970  -49.2937 C.ar      23 UNK        -0.1150 
     11 C11        -0.8565  -17.3425  -49.8149 C.ar      23 UNK        -0.0193 
     12 C12        -1.2878  -18.6602  -49.6399 C.ar      23 UNK        -0.1150 
     13 C13        -2.4598  -18.9465  -48.9256 C.ar      23 UNK        -0.0193 
     14 C14        -3.1965  -17.8848  -48.3916 C.ar      23 UNK        -0.1150 
     15 C15        -2.9724  -20.3699  -48.6844 C.3       23 UNK        -0.0205 
     16 S16        -2.0595  -21.7095  -49.5326 S.3       23 UNK        -0.2404 
     17 C17        -0.5585  -21.8003  -48.4830 C.3       23 UNK        -0.0398 
     18 CA         -0.4250  -23.0243  -47.5343 C.3       11 UNK         0.1400 
     19 N           0.5721  -22.7769  -46.4898 N.am      11 UNK        -0.5000 
     20 C           1.0138  -23.6758  -45.5992 C.2       10 UNK         0.5000 
     21 O           0.6784  -24.8592  -45.5956 O.2       10 UNK        -0.5000 
     22 CA          1.9352  -23.1470  -44.4849 C.3       10 UNK         0.1400 
     23 CB          3.3743  -22.9728  -44.9918 C.3       10 UNK        -0.1800 
     24 N           1.4497  -21.8883  -43.9151 N.am      10 UNK        -0.5000 
     25 C           0.2871  -21.7606  -43.2575 C.2       9 UNK         0.5000 
     26 O          -0.4654  -22.7040  -43.0128 O.2       9 UNK        -0.5000 
     27 CA         -0.1284  -20.3383  -42.8413 C.3       9 UNK         0.1400 
     28 CB          0.5746  -19.9241  -41.5406 C.3       9 UNK        -0.1800 
     29 N           0.1332  -19.3449  -43.8832 N.am      9 UNK        -0.5000 
     30 C          -0.4597  -19.3298  -45.0855 C.2       8 UNK         0.5000 
     31 O          -1.3272  -20.1313  -45.4277 O.2       8 UNK        -0.5000 
     32 CA          0.0367  -18.2818  -46.0959 C.3       8 UNK         0.1400 
     33 CB         -0.5619  -16.9021  -45.8022 C.3       8 UNK        -0.1800 
     34 N           1.4933  -18.1905  -46.1390 N.am      8 UNK        -0.5000 
     35 C           2.3095  -19.1883  -46.5034 C.2       7 UNK         0.5000 
     36 O           1.9184  -20.2896  -46.8879 O.2       7 UNK        -0.5000 
     37 CA          3.8174  -18.9276  -46.3660 C.3       7 UNK         0.1400 
     38 CB          4.3607  -18.1870  -47.5976 C.3       7 UNK        -0.1800 
     39 N           4.1224  -18.1687  -45.1533 N.am      7 UNK        -0.5000 
     40 C           4.0405  -18.6667  -43.9115 C.2       6 UNK         0.5000 
     41 O           3.7403  -19.8347  -43.6614 O.2       6 UNK        -0.5000 
     42 CA          4.2985  -17.6805  -42.7564 C.3       6 UNK         0.1400 
     43 CB          5.8056  -17.4801  -42.5381 C.3       6 UNK        -0.1800 
     44 N           3.6602  -16.3798  -42.9715 N.am      6 UNK        -0.5000 
     45 C           2.3336  -16.1912  -42.9937 C.2       5 UNK         0.5000 
     46 O           1.5171  -17.0893  -42.7987 O.2       5 UNK        -0.5000 
     47 CA          1.8244  -14.7768  -43.3268 C.3       5 UNK         0.1400 
     48 CB          1.6901  -13.9391  -42.0467 C.3       5 UNK        -0.1800 
     49 N           2.6239  -14.0377  -44.3099 N.am      5 UNK        -0.5000 
     50 C           2.9634  -14.4701  -45.5327 C.2       4 UNK         0.5000 
     51 O           2.7321  -15.6058  -45.9480 O.2       4 UNK        -0.5000 
     52 CA          3.6571  -13.4326  -46.4350 C.3       4 UNK         0.1400 
     53 CB          4.2951  -14.0545  -47.6961 C.3       4 UNK        -0.1800 
     54 N           2.7391  -12.3384  -46.7748 N.am      4 UNK        -0.5000 
     55 C           1.6088  -12.4197  -47.4941 C.2       3 UNK         0.5000 
     56 O           1.2046  -13.4420  -48.0486 O.2       3 UNK        -0.5000 
     57 CA          0.7637  -11.1396  -47.5375 C.3       3 UNK         0.1400 
     58 CB         -0.2576  -11.1246  -48.6922 C.3       3 UNK        -0.1800 
     59 N           0.0763  -11.0376  -46.2574 N.am      3 UNK        -0.5000 
     60 C          -0.3923   -9.9254  -45.6864 C.2       2 UNK         0.5000 
     61 O          -0.2834   -8.8073  -46.1934 O.2       2 UNK        -0.5000 
     62 CA         -1.1134  -10.1042  -44.3278 C.3       2 UNK         0.1400 
     63 CB         -1.7531   -8.7996  -43.8189 C.3       2 UNK        -0.1800 
     64 N          -2.1448  -11.1482  -44.3646 N.am      2 UNK        -0.5000 
     65 C          -1.9133  -12.4676  -44.3574 C.2       1 UNK         0.5000 
     66 O          -0.7778  -12.9460  -44.3024 O.2       1 UNK        -0.5000 
     67 C          -1.7640  -23.4912  -46.9259 C.2       11 UNK         0.5000 
     68 O          -2.3017  -24.5065  -47.3707 O.2       11 UNK        -0.5000 
     69 N          -2.2626  -22.7653  -45.9145 N.am      12 UNK        -0.5000 
     70 CA         -3.5065  -23.0589  -45.2001 C.3       12 UNK         0.1400 
     71 CB         -3.8088  -21.9352  -44.1984 C.3       12 UNK        -0.1800 
     72 C          -3.5039  -24.4317  -44.5061 C.2       12 UNK         0.5000 
     73 O          -4.5185  -25.1283  -44.5402 O.2       12 UNK        -0.5000 
     74 N          -2.3590  -24.8064  -43.9212 N.am      13 UNK        -0.5000 
     75 CA         -2.1297  -26.1244  -43.3334 C.3       13 UNK         0.1400 
     76 CB         -0.8508  -26.0854  -42.4828 C.3       13 UNK        -0.1800 
     77 C          -2.0478  -27.2405  -44.3929 C.2       13 UNK         0.5000 
     78 O          -2.5662  -28.3332  -44.1595 O.2       13 UNK        -0.5000 
     79 N          -1.3929  -26.9527  -45.5260 N.am      14 UNK        -0.5000 
     80 CA         -1.1677  -27.8975  -46.6175 C.3       14 UNK         0.1400 
     81 CB         -0.0569  -27.3696  -47.5396 C.3       14 UNK        -0.1800 
     82 C          -2.4359  -28.2187  -47.4268 C.2       14 UNK         0.5000 
     83 O          -2.7243  -29.3978  -47.6403 O.2       14 UNK        -0.5000 
     84 N          -3.1511  -27.1831  -47.8883 N.am      15 UNK        -0.5000 
     85 CA         -4.2783  -27.3339  -48.8164 C.3       15 UNK         0.1400 
     86 CB         -3.7471  -27.5992  -50.2398 C.3       15 UNK        -0.1800 
     87 C          -5.2539  -26.1449  -48.8419 C.2       15 UNK         0.5000 
     88 O          -6.3981  -26.3381  -49.2550 O.2       15 UNK        -0.5000 
     89 N          -4.8017  -24.9466  -48.4419 N.am      16 UNK        -0.5000 
     90 CA         -5.5194  -23.6675  -48.5177 C.3       16 UNK         0.1400 
     91 CB         -6.7391  -23.6538  -47.5719 C.3       16 UNK        -0.1800 
     92 C          -5.8634  -23.2716  -49.9693 C.2       16 UNK         0.5000 
     93 O          -6.9934  -22.8750  -50.2585 O.2       16 UNK        -0.5000 
     94 N          -4.8666  -23.4008  -50.8575 N.am      17 UNK        -0.5000 
     95 CA         -4.9535  -23.0862  -52.2862 C.3       17 UNK         0.1400 
     96 CB         -3.6506  -23.5274  -52.9697 C.3       17 UNK        -0.1800 
     97 C          -5.2369  -21.5992  -52.5725 C.2       17 UNK         0.5000 
     98 O          -5.9742  -21.2920  -53.5107 O.2       17 UNK        -0.5000 
     99 N          -4.6590  -20.7144  -51.7456 N.am      18 UNK        -0.5000 
    100 CA        -4.8331  -19.2594  -51.7439 C.3       18 UNK         0.1400 
    101 CB        -6.2233  -18.8915  -51.1818 C.3       18 UNK        -0.1800 
    102 C         -4.5183  -18.6462  -53.1193 C.2       18 UNK         0.5000 
    103 O         -3.3726  -18.7354  -53.5601 O.2       18 UNK        -0.5000 
    104 N         -5.5288  -18.0823  -53.7935 N.am      19 UNK        -0.5000 
    105 CA        -5.4328  -17.4704  -55.1208 C.3       19 UNK         0.1400 
    106 CB        -6.8004  -16.8816  -55.4976 C.3       19 UNK        -0.1800 
    107 C         -4.9304  -18.4168  -56.2307 C.2       19 UNK         0.5000 
    108 O         -4.3504  -17.9373  -57.2051 O.2       19 UNK        -0.5000 
    109 N         -5.1185  -19.7342  -56.0625 N.am      20 UNK        -0.5000 
    110 CA        -4.6048  -20.7516  -56.9824 C.3       20 UNK         0.1400 
    111 CB        -5.3376  -22.0792  -56.7362 C.3       20 UNK        -0.1800 
    112 C         -3.0768  -20.9457  -56.8874 C.2       20 UNK         0.5000 
    113 O         -2.4823  -21.4531  -57.8394 O.2       20 UNK        -0.5000 
    114 N         -2.4712  -20.5469  -55.7600 N.am      21 UNK        -0.5000 
    115 CA        -1.0316  -20.6251  -55.5136 C.3       21 UNK         0.1400 
    116 CB        -0.7908  -21.2875  -54.1467 C.3       21 UNK        -0.1800 
    117 C         -0.3763  -19.2353  -55.5576 C.2       21 UNK         0.5000 
    118 O          0.6800  -19.0822  -56.1726 O.2       21 UNK        -0.5000 
    119 N         -1.0061  -18.2591  -54.8960 N.am      22 UNK        -0.5000 
    120 CA        -0.4710  -16.9129  -54.6375 C.3       22 UNK         0.1400 
    121 C         -1.1675  -15.7896  -55.4577 C.2       22 UNK         0.5000 
    122 N         -2.0908  -16.0881  -56.3623 N.am      22 UNK        -0.7600 
    123 O         -0.8481  -14.6158  -55.2896 O.2       22 UNK        -0.5000 
    124 C124       -0.4830  -16.6002  -53.1167 C.3       23 UNK        -0.0398 
    125 S125        0.5802  -17.7484  -52.1781 S.3       23 UNK        -0.2404 
    126 C126        0.4730  -17.0518  -50.4996 C.3       23 UNK        -0.0205 
    127 H127       -1.1933  -16.6381  -42.2639 H         1 UNK         0.0600 
    128 H128       -2.4119  -17.1974  -43.4150 H         1 UNK         0.0600 
    129 H129       -2.8337  -16.9957  -41.7160 H         1 UNK         0.0600 
    130 H130       -2.6904  -15.4192  -44.7918 H         1 UNK         0.3000 
    131 H131       -3.9225  -12.9917  -43.8453 H         1 UNK         0.0600 
    132 H132       -3.9160  -12.3615  -46.2736 H         1 UNK         0.0800 
    133 H133       -4.6577  -13.8974  -45.9714 H         1 UNK         0.0800 
    134 H134       -4.2733  -15.8413  -47.1812 H         1 UNK         0.0800 
    135 H135       -4.2343  -14.9785  -48.7041 H         1 UNK         0.0800 
    136 H136       -1.2853  -15.2776  -49.4219 H         1 UNK         0.1150 
    137 H137       -0.6821  -19.4524  -50.0522 H         1 UNK         0.1150 
    138 H138       -4.0957  -18.0957  -47.8296 H         1 UNK         0.1150 
    139 H139       -2.9709  -20.5637  -47.6111 H         1 UNK         0.0800 
    140 H140       -4.0169  -20.4210  -48.9919 H         1 UNK         0.0800 
    141 H141       -0.5091  -20.8837  -47.8966 H         1 UNK         0.0800 
    142 H142        0.3117  -21.7606  -49.1393 H         1 UNK         0.0800 
    143 H143       -0.0547  -23.8574  -48.1350 H         1 UNK         0.0600 
    144 H144        0.9464  -21.8321  -46.4452 H         1 UNK         0.3000 
    145 H145        1.9473  -23.8907  -43.6853 H         1 UNK         0.0600 
    146 H146        3.7628  -23.9108  -45.3903 H         1 UNK         0.0600 
    147 H147        3.4380  -22.2284  -45.7850 H         1 UNK         0.0600 
    148 H148        4.0399  -22.6605  -44.1870 H         1 UNK         0.0600 
    149 H149        2.0355  -21.0710  -44.0429 H         1 UNK         0.3000 
    150 H150       -1.2040  -20.3478  -42.6548 H         1 UNK         0.0600 
    151 H151        0.3964  -20.6534  -40.7494 H         1 UNK         0.0600 
    152 H152        0.2059  -18.9619  -41.1846 H         1 UNK         0.0600 
    153 H153        1.6535  -19.8396  -41.6755 H         1 UNK         0.0600 
    154 H154        0.8007  -18.6135  -43.6519 H         1 UNK         0.3000 
    155 H155       -0.2973  -18.5904  -47.0852 H         1 UNK         0.0600 
    156 H156       -0.2963  -16.5518  -44.8073 H         1 UNK         0.0600 
    157 H157       -0.2182  -16.1592  -46.5230 H         1 UNK         0.0600 
    158 H158       -1.6494  -16.9363  -45.8611 H         1 UNK         0.0600 
    159 H159        1.9067  -17.2935  -45.8954 H         1 UNK         0.3000 
    160 H160        4.3219  -19.8939  -46.3023 H         1 UNK         0.0600 
    161 H161        3.8803  -17.2181  -47.7350 H         1 UNK         0.0600 
    162 H162        4.1881  -18.7668  -48.5052 H         1 UNK         0.0600 
    163 H163        5.4350  -18.0209  -47.5168 H         1 UNK         0.0600 
    164 H164        4.2787  -17.1774  -45.2706 H         1 UNK         0.3000 
    165 H165        3.8787  -18.1178  -41.8478 H         1 UNK         0.0600 
    166 H166        5.9975  -16.8487  -41.6703 H         1 UNK         0.0600 
    167 H167        6.3039  -18.4342  -42.3610 H         1 UNK         0.0600 
    168 H168        6.2818  -17.0165  -43.4030 H         1 UNK         0.0600 
    169 H169        4.2647  -15.5907  -43.1459 H         1 UNK         0.3000 
    170 H170        0.8287  -14.8931  -43.7534 H         1 UNK         0.0600 
    171 H171        1.0720  -14.4519  -41.3083 H         1 UNK         0.0600 
    172 H172        2.6602  -13.7443  -41.5882 H         1 UNK         0.0600 
    173 H173        1.2143  -12.9799  -42.2522 H         1 UNK         0.0600 
    174 H174        2.8496  -13.0859  -44.0623 H         1 UNK         0.3000 
    175 H175        4.4650  -12.9929  -45.8483 H         1 UNK         0.0600 
    176 H176        3.5618  -14.5609  -48.3242 H         1 UNK         0.0600 
    177 H177        4.7886  -13.2956  -48.3029 H         1 UNK         0.0600 
    178 H178        5.0490  -14.7935  -47.4225 H         1 UNK         0.0600 
    179 H179        2.9539  -11.4493  -46.3451 H         1 UNK         0.3000 
    180 H180        1.4404  -10.2912  -47.6597 H         1 UNK         0.0600 
    181 H181       -0.9914  -11.9249  -48.5921 H         1 UNK         0.0600 
    182 H182        0.2403  -11.2523  -49.6538 H         1 UNK         0.0600 
    183 H183       -0.7991  -10.1794  -48.7295 H         1 UNK         0.0600 
    184 H184       -0.0519  -11.9128  -45.7542 H         1 UNK         0.3000 
    185 H185       -0.3505  -10.3983  -43.6038 H         1 UNK         0.0600 
    186 H186       -1.0073   -8.0103  -43.7163 H         1 UNK         0.0600 
    187 H187       -2.5248   -8.4376  -44.4994 H         1 UNK         0.0600 
    188 H188       -2.2086   -8.9399  -42.8385 H         1 UNK         0.0600 
    189 H189       -3.0962  -10.8199  -44.4464 H         1 UNK         0.3000 
    190 H190       -1.7778  -21.9141  -45.6375 H         1 UNK         0.3000 
    191 H191       -4.3102  -23.0687  -45.9341 H         1 UNK         0.0600 
    192 H192       -3.0277  -21.8478  -43.4437 H         1 UNK         0.0600 
    193 H193       -4.7495  -22.1186  -43.6779 H         1 UNK         0.0600 
    194 H194       -3.8982  -20.9722  -44.7014 H         1 UNK         0.0600 
    195 H195       -1.5894  -24.1453  -43.8833 H         1 UNK         0.3000 
    196 H196       -2.9683  -26.3528  -42.6723 H         1 UNK         0.0600 
    197 H197       -0.6643  -27.0516  -42.0124 H         1 UNK         0.0600 
    198 H198       -0.9303  -25.3448  -41.6868 H         1 UNK         0.0600 
    199 H199        0.0252  -25.8365  -43.0826 H         1 UNK         0.0600 
    200 H200       -0.9497  -26.0442  -45.6169 H         1 UNK         0.3000 
    201 H201       -0.8126  -28.8332  -46.1803 H         1 UNK         0.0600 
    202 H202        0.8823  -27.2562  -46.9981 H         1 UNK         0.0600 
    203 H203       -0.3136  -26.4010  -47.9691 H         1 UNK         0.0600 
    204 H204        0.1265  -28.0575  -48.3659 H         1 UNK         0.0600 
    205 H205       -2.8540  -26.2407  -47.6486 H         1 UNK         0.3000 
    206 H206       -4.8693  -28.1971  -48.5023 H         1 UNK         0.0600 
    207 H207       -4.5650  -27.6912  -50.9558 H         1 UNK         0.0600 
    208 H208       -3.1017  -26.7890  -50.5812 H         1 UNK         0.0600 
    209 H209       -3.1753  -28.5258  -50.2886 H         1 UNK         0.0600 
    210 H210       -3.8433  -24.8715  -48.1084 H         1 UNK         0.3000 
    211 H211       -4.8228  -22.9064  -48.1660 H         1 UNK         0.0600 
    212 H212       -7.5278  -24.3239  -47.9146 H         1 UNK         0.0600 
    213 H213       -7.1683  -22.6534  -47.5065 H         1 UNK         0.0600 
    214 H214       -6.4631  -23.9564  -46.5620 H         1 UNK         0.0600 
    215 H215       -3.9753  -23.7410  -50.5275 H         1 UNK         0.3000 
    216 H216       -5.7774  -23.6653  -52.7082 H         1 UNK         0.0600 
    217 H217       -2.7826  -23.0388  -52.5257 H         1 UNK         0.0600 
    218 H218       -3.6566  -23.2835  -54.0324 H         1 UNK         0.0600 
    219 H219       -3.5071  -24.6047  -52.8851 H         1 UNK         0.0600 
    220 H220       -4.0174  -21.0779  -51.0552 H         1 UNK         0.3000 
    221 H221       -4.0852  -18.8487  -51.0688 H         1 UNK         0.0600 
    222 H222       -7.0345  -19.3000  -51.7856 H         1 UNK         0.0600 
    223 H223       -6.3437  -19.2787  -50.1699 H         1 UNK         0.0600 
    224 H224       -6.3542  -17.8101  -51.1264 H         1 UNK         0.0600 
    225 H225       -6.4453  -18.0915  -53.3706 H         1 UNK         0.3000 
    226 H226       -4.7163  -16.6498  -55.0484 H         1 UNK         0.0600 
    227 H227       -7.1232  -16.1351  -54.7716 H         1 UNK         0.0600 
    228 H228       -6.7600  -16.3895  -56.4704 H         1 UNK         0.0600 
    229 H229       -7.5688  -17.6539  -55.5517 H         1 UNK         0.0600 
    230 H230       -5.5792  -20.0679  -55.2224 H         1 UNK         0.3000 
    231 H231       -4.8291  -20.4327  -58.0026 H         1 UNK         0.0600 
    232 H232       -5.0321  -22.8332  -57.4627 H         1 UNK         0.0600 
    233 H233       -6.4171  -21.9583  -56.8281 H         1 UNK         0.0600 
    234 H234       -5.1281  -22.4792  -55.7450 H         1 UNK         0.0600 
    235 H235       -3.0251  -20.0954  -55.0413 H         1 UNK         0.3000 
    236 H236       -0.5433  -21.2419  -56.2709 H         1 UNK         0.0600 
    237 H237       -1.1298  -22.3227  -54.1521 H         1 UNK         0.0600 
    238 H238        0.2709  -21.2968  -53.8967 H         1 UNK         0.0600 
    239 H239       -1.3122  -20.7654  -53.3428 H         1 UNK         0.0600 
    240 H240       -1.8744  -18.4740  -54.4084 H         1 UNK         0.3000 
    241 H241        0.5708  -16.8765  -54.9606 H         1 UNK         0.0600 
    242 H242       -2.3709  -17.0422  -56.5367 H         1 UNK         0.3800 
    243 H243       -2.5160  -15.3448  -56.8930 H         1 UNK         0.3800 
    244 H244       -0.1269  -15.5866  -52.9252 H         1 UNK         0.0800 
    245 H245       -1.4989  -16.6537  -52.7212 H         1 UNK         0.0800 
    246 H246        0.6697  -15.9791  -50.5387 H         1 UNK         0.0800 
    247 H247        1.2699  -17.4836  -49.8924 H         1 UNK         0.0800 
@<TRIPOS>BOND
     1    1    2 1    
     2    1  127 1    
     3    1  128 1    
     4    1  129 1    
     5    2    3 2    
     6    2    4 am   BACKBONE|DICT|INTERRES
     7    4    5 1    
     8    4  130 1    
     9    5    6 1    
    10    5   65 1    
    11    5  131 1    
    12    6    7 1    
    13    6  132 1    
    14    6  133 1    
    15    7    8 1    
    16    8    9 1    
    17    8  134 1    
    18    8  135 1    
    19    9   10 ar   
    20    9   14 ar   
    21   10   11 ar   
    22   10  136 1    
    23   11   12 ar   
    24   11  126 1    
    25   12   13 ar   
    26   12  137 1    
    27   13   14 ar   
    28   13   15 1    
    29   14  138 1    
    30   15   16 1    
    31   15  139 1    
    32   15  140 1    
    33   16   17 1    
    34   17   18 1    
    35   17  141 1    
    36   17  142 1    
    37   18   19 1    
    38   18   67 1    
    39   18  143 1    
    40   19   20 am   BACKBONE|DICT|INTERRES
    41   19  144 1    
    42   20   21 2    
    43   20   22 1    
    44   22   23 1    
    45   22   24 1    
    46   22  145 1    
    47   23  146 1    
    48   23  147 1    
    49   23  148 1    
    50   24   25 am   BACKBONE|DICT|INTERRES
    51   24  149 1    
    52   25   26 2    
    53   25   27 1    
    54   27   28 1    
    55   27   29 1    
    56   27  150 1    
    57   28  151 1    
    58   28  152 1    
    59   28  153 1    
    60   29   30 am   BACKBONE|DICT|INTERRES
    61   29  154 1    
    62   30   31 2    
    63   30   32 1    
    64   32   33 1    
    65   32   34 1    
    66   32  155 1    
    67   33  156 1    
    68   33  157 1    
    69   33  158 1    
    70   34   35 am   BACKBONE|DICT|INTERRES
    71   34  159 1    
    72   35   36 2    
    73   35   37 1    
    74   37   38 1    
    75   37   39 1    
    76   37  160 1    
    77   38  161 1    
    78   38  162 1    
    79   38  163 1    
    80   39   40 am   BACKBONE|DICT|INTERRES
    81   39  164 1    
    82   40   41 2    
    83   40   42 1    
    84   42   43 1    
    85   42   44 1    
    86   42  165 1    
    87   43  166 1    
    88   43  167 1    
    89   43  168 1    
    90   44   45 am   BACKBONE|DICT|INTERRES
    91   44  169 1    
    92   45   46 2    
    93   45   47 1    
    94   47   48 1    
    95   47   49 1    
    96   47  170 1    
    97   48  171 1    
    98   48  172 1    
    99   48  173 1    
   100   49   50 am   BACKBONE|DICT|INTERRES
   101   49  174 1    
   102   50   51 2    
   103   50   52 1    
   104   52   53 1    
   105   52   54 1    
   106   52  175 1    
   107   53  176 1    
   108   53  177 1    
   109   53  178 1    
   110   54   55 am   BACKBONE|DICT|INTERRES
   111   54  179 1    
   112   55   56 2    
   113   55   57 1    
   114   57   58 1    
   115   57   59 1    
   116   57  180 1    
   117   58  181 1    
   118   58  182 1    
   119   58  183 1    
   120   59   60 am   BACKBONE|DICT|INTERRES
   121   59  184 1    
   122   60   61 2    
   123   60   62 1    
   124   62   63 1    
   125   62   64 1    
   126   62  185 1    
   127   63  186 1    
   128   63  187 1    
   129   63  188 1    
   130   64   65 am   BACKBONE|DICT|INTERRES
   131   64  189 1    
   132   65   66 2    
   133   67   68 2    
   134   67   69 am   BACKBONE|DICT|INTERRES
   135   69   70 1    
   136   69  190 1    
   137   70   71 1    
   138   70   72 1    
   139   70  191 1    
   140   71  192 1    
   141   71  193 1    
   142   71  194 1    
   143   72   73 2    
   144   72   74 am   BACKBONE|DICT|INTERRES
   145   74   75 1    
   146   74  195 1    
   147   75   76 1    
   148   75   77 1    
   149   75  196 1    
   150   76  197 1    
   151   76  198 1    
   152   76  199 1    
   153   77   78 2    
   154   77   79 am   BACKBONE|DICT|INTERRES
   155   79   80 1    
   156   79  200 1    
   157   80   81 1    
   158   80   82 1    
   159   80  201 1    
   160   81  202 1    
   161   81  203 1    
   162   81  204 1    
   163   82   83 2    
   164   82   84 am   BACKBONE|DICT|INTERRES
   165   84   85 1    
   166   84  205 1    
   167   85   86 1    
   168   85   87 1    
   169   85  206 1    
   170   86  207 1    
   171   86  208 1    
   172   86  209 1    
   173   87   88 2    
   174   87   89 am   BACKBONE|DICT|INTERRES
   175   89   90 1    
   176   89  210 1    
   177   90   91 1    
   178   90   92 1    
   179   90  211 1    
   180   91  212 1    
   181   91  213 1    
   182   91  214 1    
   183   92   93 2    
   184   92   94 am   BACKBONE|DICT|INTERRES
   185   94   95 1    
   186   94  215 1    
   187   95   96 1    
   188   95   97 1    
   189   95  216 1    
   190   96  217 1    
   191   96  218 1    
   192   96  219 1    
   193   97   98 2    
   194   97   99 am   BACKBONE|DICT|INTERRES
   195   99  100 1    
   196   99  220 1    
   197  100  101 1    
   198  100  102 1    
   199  100  221 1    
   200  101  222 1    
   201  101  223 1    
   202  101  224 1    
   203  102  103 2    
   204  102  104 am   BACKBONE|DICT|INTERRES
   205  104  105 1    
   206  104  225 1    
   207  105  106 1    
   208  105  107 1    
   209  105  226 1    
   210  106  227 1    
   211  106  228 1    
   212  106  229 1    
   213  107  108 2    
   214  107  109 am   BACKBONE|DICT|INTERRES
   215  109  110 1    
   216  109  230 1    
   217  110  111 1    
   218  110  112 1    
   219  110  231 1    
   220  111  232 1    
   221  111  233 1    
   222  111  234 1    
   223  112  113 2    
   224  112  114 am   BACKBONE|DICT|INTERRES
   225  114  115 1    
   226  114  235 1    
   227  115  116 1    
   228  115  117 1    
   229  115  236 1    
   230  116  237 1    
   231  116  238 1    
   232  116  239 1    
   233  117  118 2    
   234  117  119 am   BACKBONE|DICT|INTERRES
   235  119  120 1    
   236  119  240 1    
   237  120  121 1    
   238  120  124 1    
   239  120  241 1    
   240  121  122 am   BACKBONE|DICT|INTERRES
   241  121  123 2    
   242  122  242 1    
   243  122  243 1    
   244  124  125 1    
   245  124  244 1    
   246  124  245 1    
   247  125  126 1    
   248  126  246 1    
   249  126  247 1    
@<TRIPOS>SUBSTRUCTURE
     1 UNK         1 GROUP             0       ****    0 ROOT    
