@<TRIPOS>MOLECULE
3R540
247   249    1
SMALL
USER_CHARGES


@<TRIPOS>ATOM
      1 CA          0.3296  -11.9071  -47.7090 C.3       0 UNK        -0.1800 
      2 C           1.6967  -12.4362  -48.1161 C.2       0 UNK         0.5000 
      3 O           2.7153  -11.8432  -47.7621 O.2       0 UNK        -0.5000 
      4 N           1.7219  -13.5599  -48.8463 N.am      1 UNK        -0.5000 
      5 CA          2.9291  -14.2236  -49.3618 C.3       1 UNK         0.1400 
      6 C6          2.5581  -15.4086  -50.2879 C.3       23 UNK        -0.0398 
      7 S7          3.8529  -15.7907  -51.5175 S.3       23 UNK        -0.2404 
      8 C8          4.5601  -17.3432  -50.8564 C.3       23 UNK        -0.0205 
      9 C9          3.5990  -18.5316  -50.7754 C.ar      23 UNK        -0.0193 
     10 C10         2.4335  -18.6106  -51.5486 C.ar      23 UNK        -0.1150 
     11 C11         1.5619  -19.6957  -51.4251 C.ar      23 UNK        -0.0193 
     12 C12         1.8802  -20.7344  -50.5466 C.ar      23 UNK        -0.1150 
     13 C13         3.0571  -20.6909  -49.7941 C.ar      23 UNK        -0.0193 
     14 C14         3.9062  -19.5861  -49.9092 C.ar      23 UNK        -0.1150 
     15 C15         3.4254  -21.8546  -48.8841 C.3       23 UNK        -0.0205 
     16 S16         3.4331  -21.4155  -47.1150 S.3       23 UNK        -0.2404 
     17 C17         1.7244  -20.8513  -46.8182 C.3       23 UNK        -0.0398 
     18 CA          0.7535  -21.9997  -46.4354 C.3       11 UNK         0.1400 
     19 N          -0.2545  -21.5713  -45.4618 N.am      11 UNK        -0.5000 
     20 C          -1.1500  -22.3741  -44.8684 C.2       10 UNK         0.5000 
     21 O          -1.1956  -23.5935  -45.0338 O.2       10 UNK        -0.5000 
     22 CA         -2.2083  -21.6905  -43.9820 C.3       10 UNK         0.1400 
     23 CB         -1.6441  -21.3715  -42.5895 C.3       10 UNK        -0.1800 
     24 N          -2.7431  -20.4713  -44.5909 N.am      10 UNK        -0.5000 
     25 C          -3.4387  -20.4484  -45.7371 C.2       9 UNK         0.5000 
     26 O          -3.7489  -21.4580  -46.3690 O.2       9 UNK        -0.5000 
     27 CA         -3.7976  -19.0655  -46.3036 C.3       9 UNK         0.1400 
     28 CB         -5.0043  -18.4612  -45.5700 C.3       9 UNK        -0.1800 
     29 N          -2.6765  -18.1270  -46.2619 N.am      9 UNK        -0.5000 
     30 C          -1.5157  -18.2892  -46.9122 C.2       8 UNK         0.5000 
     31 O          -1.2809  -19.2283  -47.6671 O.2       8 UNK        -0.5000 
     32 CA         -0.4082  -17.2605  -46.6338 C.3       8 UNK         0.1400 
     33 CB         -0.6084  -16.0005  -47.4867 C.3       8 UNK        -0.1800 
     34 N          -0.3261  -16.8959  -45.2192 N.am      8 UNK        -0.5000 
     35 C          -0.0396  -17.7542  -44.2285 C.2       7 UNK         0.5000 
     36 O           0.2251  -18.9413  -44.4078 O.2       7 UNK        -0.5000 
     37 CA         -0.1083  -17.2072  -42.7944 C.3       7 UNK         0.1400 
     38 CB          1.1536  -16.4062  -42.4409 C.3       7 UNK        -0.1800 
     39 N          -1.2963  -16.3804  -42.5958 N.am      7 UNK        -0.5000 
     40 C          -2.5493  -16.8570  -42.5849 C.2       6 UNK         0.5000 
     41 O          -2.8287  -18.0527  -42.6803 O.2       6 UNK        -0.5000 
     42 CA         -3.6766  -15.8122  -42.4968 C.3       6 UNK         0.1400 
     43 CB         -3.9427  -15.4233  -41.0350 C.3       6 UNK        -0.1800 
     44 N          -3.3820  -14.6066  -43.2749 N.am      6 UNK        -0.5000 
     45 C          -3.3018  -14.5738  -44.6128 C.2       5 UNK         0.5000 
     46 O          -3.4966  -15.5510  -45.3324 O.2       5 UNK        -0.5000 
     47 CA         -2.8805  -13.2384  -45.2494 C.3       5 UNK         0.1400 
     48 CB         -4.0953  -12.3191  -45.4399 C.3       5 UNK        -0.1800 
     49 N          -1.8499  -12.5417  -44.4747 N.am      5 UNK        -0.5000 
     50 C          -0.6013  -12.9954  -44.3122 C.2       4 UNK         0.5000 
     51 O          -0.1890  -14.0572  -44.7877 O.2       4 UNK        -0.5000 
     52 CA          0.3417  -12.1346  -43.4669 C.3       4 UNK         0.1400 
     53 CB          0.2561  -12.5218  -41.9800 C.3       4 UNK        -0.1800 
     54 N           1.6947  -12.3327  -43.9702 N.am      4 UNK        -0.5000 
     55 C           2.7259  -11.4992  -43.8038 C.2       3 UNK         0.5000 
     56 O           2.6594  -10.4735  -43.1242 O.2       3 UNK        -0.5000 
     57 CA          4.0370  -11.8231  -44.5518 C.3       3 UNK         0.1400 
     58 CB          5.2756  -11.7165  -43.6372 C.3       3 UNK        -0.1800 
     59 N           4.0244  -13.0854  -45.3051 N.am      3 UNK        -0.5000 
     60 C           4.0782  -14.3428  -44.8382 C.2       2 UNK         0.5000 
     61 O           4.1119  -14.6248  -43.6405 O.2       2 UNK        -0.5000 
     62 CA          4.0768  -15.4710  -45.8934 C.3       2 UNK         0.1400 
     63 CB          3.4709  -16.7797  -45.3618 C.3       2 UNK        -0.1800 
     64 N           3.3438  -15.0755  -47.0971 N.am      2 UNK        -0.5000 
     65 C           3.9012  -14.6707  -48.2457 C.2       1 UNK         0.5000 
     66 O           5.1167  -14.6050  -48.4293 O.2       1 UNK        -0.5000 
     67 C           0.1002  -22.6211  -47.6859 C.2       11 UNK         0.5000 
     68 O           0.4711  -23.7241  -48.0836 O.2       11 UNK        -0.5000 
     69 N          -0.8872  -21.9196  -48.2580 N.am      12 UNK        -0.5000 
     70 CA         -1.6629  -22.3487  -49.4175 C.3       12 UNK         0.1400 
     71 CB         -2.6004  -21.2184  -49.8548 C.3       12 UNK        -0.1800 
     72 C          -2.4516  -23.6418  -49.1675 C.2       12 UNK         0.5000 
     73 O          -2.4379  -24.5238  -50.0239 O.2       12 UNK        -0.5000 
     74 N          -3.0856  -23.7541  -47.9926 N.am      13 UNK        -0.5000 
     75 CA         -3.7920  -24.9563  -47.5519 C.3       13 UNK         0.1400 
     76 CB         -4.5424  -24.6664  -46.2439 C.3       13 UNK        -0.1800 
     77 C          -2.8565  -26.1705  -47.3976 C.2       13 UNK         0.5000 
     78 O          -3.2073  -27.2614  -47.8479 O.2       13 UNK        -0.5000 
     79 N          -1.6700  -25.9543  -46.8103 N.am      14 UNK        -0.5000 
     80 CA         -0.6204  -26.9662  -46.6631 C.3       14 UNK         0.1400 
     81 CB          0.4703  -26.4402  -45.7177 C.3       14 UNK        -0.1800 
     82 C          -0.0129  -27.4037  -48.0107 C.2       14 UNK         0.5000 
     83 O           0.2584  -28.5899  -48.1995 O.2       14 UNK        -0.5000 
     84 N           0.1638  -26.4452  -48.9296 N.am      15 UNK        -0.5000 
     85 CA          0.6578  -26.6572  -50.2923 C.3       15 UNK         0.1400 
     86 CB          1.1269  -25.3070  -50.8604 C.3       15 UNK        -0.1800 
     87 C          -0.3756  -27.3021  -51.2399 C.2       15 UNK         0.5000 
     88 O           0.0025  -27.7218  -52.3344 O.2       15 UNK        -0.5000 
     89 N          -1.6492  -27.3472  -50.8203 N.am      16 UNK        -0.5000 
     90 CA         -2.8291  -27.7706  -51.5831 C.3       16 UNK         0.1400 
     91 CB         -2.7495  -29.2649  -51.9602 C.3       16 UNK        -0.1800 
     92 C          -3.1182  -26.8459  -52.7867 C.2       16 UNK         0.5000 
     93 O          -3.5564  -27.3087  -53.8422 O.2       16 UNK        -0.5000 
     94 N          -2.8691  -25.5467  -52.5909 N.am      17 UNK        -0.5000 
     95 CA         -3.1908  -24.4572  -53.5062 C.3       17 UNK         0.1400 
     96 CB         -2.0588  -23.4138  -53.4226 C.3       17 UNK        -0.1800 
     97 C          -4.5626  -23.8516  -53.1409 C.2       17 UNK         0.5000 
     98 O          -5.3127  -24.4341  -52.3519 O.2       17 UNK        -0.5000 
     99 N          -4.8755  -22.6851  -53.7214 N.am      18 UNK        -0.5000 
    100 CA        -6.0574  -21.8834  -53.4036 C.3       18 UNK         0.1400 
    101 CB        -6.2057  -20.7693  -54.4536 C.3       18 UNK        -0.1800 
    102 C         -5.9512  -21.3087  -51.9785 C.2       18 UNK         0.5000 
    103 O         -5.2485  -20.3186  -51.7709 O.2       18 UNK        -0.5000 
    104 N         -6.6238  -21.9619  -51.0216 N.am      19 UNK        -0.5000 
    105 CA        -6.5327  -21.7097  -49.5791 C.3       19 UNK         0.1400 
    106 CB        -7.3491  -22.7761  -48.8337 C.3       19 UNK        -0.1800 
    107 C         -6.9428  -20.2941  -49.1250 C.2       19 UNK         0.5000 
    108 O         -6.5766  -19.8904  -48.0230 O.2       19 UNK        -0.5000 
    109 N         -7.6542  -19.5417  -49.9747 N.am      20 UNK        -0.5000 
    110 CA        -8.0324  -18.1394  -49.7753 C.3       20 UNK         0.1400 
    111 CB        -9.2264  -17.8217  -50.6939 C.3       20 UNK        -0.1800 
    112 C         -6.8447  -17.1664  -49.9803 C.2       20 UNK         0.5000 
    113 O         -6.9514  -16.2138  -50.7538 O.2       20 UNK        -0.5000 
    114 N         -5.7308  -17.4390  -49.2861 N.am      21 UNK        -0.5000 
    115 CA        -4.4654  -16.6929  -49.2662 C.3       21 UNK         0.1400 
    116 CB        -4.6622  -15.3038  -48.6226 C.3       21 UNK        -0.1800 
    117 C         -3.7223  -16.6319  -50.6200 C.2       21 UNK         0.5000 
    118 O         -2.8898  -15.7420  -50.8015 O.2       21 UNK        -0.5000 
    119 N         -4.0123  -17.5913  -51.5136 N.am      22 UNK        -0.5000 
    120 CA        -3.4440  -17.7908  -52.8584 C.3       22 UNK         0.1400 
    121 C         -3.2488  -16.4994  -53.7121 C.2       22 UNK         0.5000 
    122 N         -2.0710  -16.2478  -54.2693 N.am      22 UNK        -0.7600 
    123 O         -4.1965  -15.7474  -53.9279 O.2       22 UNK        -0.5000 
    124 C124       -2.2704  -18.8130  -52.8793 C.3       23 UNK        -0.0398 
    125 S125       -0.8193  -18.3562  -51.8725 S.3       23 UNK        -0.2404 
    126 C126        0.2882  -19.7487  -52.2557 C.3       23 UNK        -0.0205 
    127 H127       -0.4179  -12.7006  -47.6879 H         1 UNK         0.0600 
    128 H128        0.0005  -11.1404  -48.4099 H         1 UNK         0.0600 
    129 H129        0.3777  -11.4609  -46.7161 H         1 UNK         0.0600 
    130 H130        0.8443  -13.9780  -49.1193 H         1 UNK         0.3000 
    131 H131        3.4517  -13.4726  -49.9584 H         1 UNK         0.0600 
    132 H132        1.6658  -15.1622  -50.8654 H         1 UNK         0.0800 
    133 H133        2.2914  -16.2968  -49.7119 H         1 UNK         0.0800 
    134 H134        5.4034  -17.6295  -51.4859 H         1 UNK         0.0800 
    135 H135        4.9717  -17.1375  -49.8671 H         1 UNK         0.0800 
    136 H136        2.1816  -17.8221  -52.2426 H         1 UNK         0.1150 
    137 H137        1.2206  -21.5854  -50.4590 H         1 UNK         0.1150 
    138 H138        4.8130  -19.5516  -49.3212 H         1 UNK         0.1150 
    139 H139        2.7574  -22.7012  -49.0439 H         1 UNK         0.0800 
    140 H140        4.4210  -22.2080  -49.1558 H         1 UNK         0.0800 
    141 H141        1.3591  -20.2556  -47.6565 H         1 UNK         0.0800 
    142 H142        1.8073  -20.1476  -45.9908 H         1 UNK         0.0800 
    143 H143        1.3257  -22.7886  -45.9425 H         1 UNK         0.0600 
    144 H144       -0.2621  -20.5828  -45.2238 H         1 UNK         0.3000 
    145 H145       -3.0373  -22.3903  -43.8577 H         1 UNK         0.0600 
    146 H146       -2.4113  -20.9459  -41.9424 H         1 UNK         0.0600 
    147 H147       -1.2718  -22.2745  -42.1042 H         1 UNK         0.0600 
    148 H148       -0.8189  -20.6612  -42.6387 H         1 UNK         0.0600 
    149 H149       -2.5500  -19.5970  -44.1151 H         1 UNK         0.3000 
    150 H150       -4.0702  -19.2117  -47.3494 H         1 UNK         0.0600 
    151 H151       -5.8426  -19.1583  -45.5518 H         1 UNK         0.0600 
    152 H152       -5.3483  -17.5521  -46.0634 H         1 UNK         0.0600 
    153 H153       -4.7666  -18.2121  -44.5366 H         1 UNK         0.0600 
    154 H154       -2.8143  -17.2830  -45.7122 H         1 UNK         0.3000 
    155 H155        0.5457  -17.7126  -46.9141 H         1 UNK         0.0600 
    156 H156       -1.5653  -15.5220  -47.2802 H         1 UNK         0.0600 
    157 H157       -0.5848  -16.2412  -48.5506 H         1 UNK         0.0600 
    158 H158        0.1754  -15.2711  -47.2930 H         1 UNK         0.0600 
    159 H159       -0.4893  -15.9191  -44.9913 H         1 UNK         0.3000 
    160 H160       -0.1685  -18.0594  -42.1139 H         1 UNK         0.0600 
    161 H161        1.2855  -15.5415  -43.0912 H         1 UNK         0.0600 
    162 H162        2.0464  -17.0251  -42.5383 H         1 UNK         0.0600 
    163 H163        1.1195  -16.0500  -41.4114 H         1 UNK         0.0600 
    164 H164       -1.1572  -15.3831  -42.5485 H         1 UNK         0.3000 
    165 H165       -4.5842  -16.2654  -42.9010 H         1 UNK         0.0600 
    166 H166       -4.7872  -14.7384  -40.9570 H         1 UNK         0.0600 
    167 H167       -4.1823  -16.3026  -40.4355 H         1 UNK         0.0600 
    168 H168       -3.0761  -14.9419  -40.5801 H         1 UNK         0.0600 
    169 H169       -3.2088  -13.7572  -42.7584 H         1 UNK         0.3000 
    170 H170       -2.4685  -13.4600  -46.2360 H         1 UNK         0.0600 
    171 H171       -4.8670  -12.8123  -46.0330 H         1 UNK         0.0600 
    172 H172       -4.5432  -12.0371  -44.4863 H         1 UNK         0.0600 
    173 H173       -3.8187  -11.4049  -45.9654 H         1 UNK         0.0600 
    174 H174       -2.1167  -11.6627  -44.0546 H         1 UNK         0.3000 
    175 H175        0.0625  -11.0862  -43.5913 H         1 UNK         0.0600 
    176 H176       -0.7618  -12.4147  -41.6033 H         1 UNK         0.0600 
    177 H177        0.5632  -13.5540  -41.8136 H         1 UNK         0.0600 
    178 H178        0.8944  -11.8840  -41.3684 H         1 UNK         0.0600 
    179 H179        1.8071  -13.1518  -44.5525 H         1 UNK         0.3000 
    180 H180        4.1338  -11.0442  -45.3097 H         1 UNK         0.0600 
    181 H181        5.2167  -12.3990  -42.7892 H         1 UNK         0.0600 
    182 H182        5.3755  -10.7086  -43.2327 H         1 UNK         0.0600 
    183 H183        6.1921  -11.9362  -44.1849 H         1 UNK         0.0600 
    184 H184        3.9398  -12.9641  -46.3077 H         1 UNK         0.3000 
    185 H185        5.1224  -15.6700  -46.1364 H         1 UNK         0.0600 
    186 H186        4.0183  -17.1492  -44.4940 H         1 UNK         0.0600 
    187 H187        2.4358  -16.6353  -45.0636 H         1 UNK         0.0600 
    188 H188        3.4951  -17.5646  -46.1184 H         1 UNK         0.0600 
    189 H189        2.3380  -15.0534  -47.0199 H         1 UNK         0.3000 
    190 H190       -1.1074  -20.9934  -47.8938 H         1 UNK         0.3000 
    191 H191       -0.9612  -22.5417  -50.2301 H         1 UNK         0.0600 
    192 H192       -3.3124  -20.9560  -49.0728 H         1 UNK         0.0600 
    193 H193       -3.1654  -21.5078  -50.7396 H         1 UNK         0.0600 
    194 H194       -2.0414  -20.3176  -50.1012 H         1 UNK         0.0600 
    195 H195       -3.0923  -22.9609  -47.3561 H         1 UNK         0.3000 
    196 H196       -4.5312  -25.2030  -48.3171 H         1 UNK         0.0600 
    197 H197       -5.0877  -25.5469  -45.9020 H         1 UNK         0.0600 
    198 H198       -5.2690  -23.8648  -46.3775 H         1 UNK         0.0600 
    199 H199       -3.8611  -24.3694  -45.4460 H         1 UNK         0.0600 
    200 H200       -1.4674  -25.0322  -46.4362 H         1 UNK         0.3000 
    201 H201       -1.0695  -27.8483  -46.2019 H         1 UNK         0.0600 
    202 H202        0.0594  -26.2039  -44.7360 H         1 UNK         0.0600 
    203 H203        0.9417  -25.5375  -46.1073 H         1 UNK         0.0600 
    204 H204        1.2542  -27.1844  -45.5724 H         1 UNK         0.0600 
    205 H205       -0.0100  -25.4801  -48.6601 H         1 UNK         0.3000 
    206 H206        1.5196  -27.3259  -50.2455 H         1 UNK         0.0600 
    207 H207        1.9057  -24.8660  -50.2382 H         1 UNK         0.0600 
    208 H208        1.5404  -25.4230  -51.8629 H         1 UNK         0.0600 
    209 H209        0.3051  -24.5931  -50.9254 H         1 UNK         0.0600 
    210 H210       -1.8465  -26.9408  -49.9151 H         1 UNK         0.3000 
    211 H211       -3.6764  -27.6510  -50.9063 H         1 UNK         0.0600 
    212 H212       -1.9727  -29.4586  -52.7001 H         1 UNK         0.0600 
    213 H213       -3.6938  -29.6099  -52.3827 H         1 UNK         0.0600 
    214 H214       -2.5421  -29.8812  -51.0853 H         1 UNK         0.0600 
    215 H215       -2.5971  -25.2565  -51.6528 H         1 UNK         0.3000 
    216 H216       -3.2471  -24.8332  -54.5295 H         1 UNK         0.0600 
    217 H217       -2.0350  -22.9231  -52.4498 H         1 UNK         0.0600 
    218 H218       -2.1687  -22.6388  -54.1815 H         1 UNK         0.0600 
    219 H219       -1.0850  -23.8782  -53.5820 H         1 UNK         0.0600 
    220 H220       -4.2105  -22.2635  -54.3528 H         1 UNK         0.3000 
    221 H221       -6.9421  -22.5215  -53.4625 H         1 UNK         0.0600 
    222 H222       -6.3816  -21.1859  -55.4455 H         1 UNK         0.0600 
    223 H223       -5.3152  -20.1425  -54.5092 H         1 UNK         0.0600 
    224 H224       -7.0510  -20.1207  -54.2194 H         1 UNK         0.0600 
    225 H225       -7.1403  -22.7883  -51.2890 H         1 UNK         0.3000 
    226 H226       -5.4871  -21.8386  -49.2955 H         1 UNK         0.0600 
    227 H227       -6.9839  -23.7790  -49.0573 H         1 UNK         0.0600 
    228 H228       -7.2759  -22.6410  -47.7535 H         1 UNK         0.0600 
    229 H229       -8.4057  -22.7328  -49.1007 H         1 UNK         0.0600 
    230 H230       -7.8807  -19.9418  -50.8727 H         1 UNK         0.3000 
    231 H231       -8.3683  -18.0154  -48.7436 H         1 UNK         0.0600 
    232 H232       -8.9610  -17.9222  -51.7471 H         1 UNK         0.0600 
    233 H233       -9.5811  -16.8019  -50.5385 H         1 UNK         0.0600 
    234 H234      -10.0659  -18.4881  -50.4939 H         1 UNK         0.0600 
    235 H235       -5.7701  -18.2615  -48.6912 H         1 UNK         0.3000 
    236 H236       -3.8008  -17.2533  -48.6125 H         1 UNK         0.0600 
    237 H237       -3.7054  -14.8076  -48.4553 H         1 UNK         0.0600 
    238 H238       -5.2658  -14.6490  -49.2514 H         1 UNK         0.0600 
    239 H239       -5.1522  -15.3854  -47.6523 H         1 UNK         0.0600 
    240 H240       -4.6996  -18.2879  -51.2538 H         1 UNK         0.3000 
    241 H241       -4.2523  -18.2932  -53.3898 H         1 UNK         0.0600 
    242 H242       -1.9598  -15.4223  -54.8369 H         1 UNK         0.3800 
    243 H243       -1.2719  -16.8291  -54.0694 H         1 UNK         0.3800 
    244 H244       -1.9494  -19.0033  -53.9047 H         1 UNK         0.0800 
    245 H245       -2.6352  -19.7729  -52.5126 H         1 UNK         0.0800 
    246 H246       -0.2434  -20.6861  -52.0840 H         1 UNK         0.0800 
    247 H247        0.5490  -19.7255  -53.3148 H         1 UNK         0.0800 
@<TRIPOS>BOND
     1    1    2 1    
     2    1  127 1    
     3    1  128 1    
     4    1  129 1    
     5    2    3 2    
     6    2    4 am   BACKBONE|DICT|INTERRES
     7    4    5 1    
     8    4  130 1    
     9    5    6 1    
    10    5   65 1    
    11    5  131 1    
    12    6    7 1    
    13    6  132 1    
    14    6  133 1    
    15    7    8 1    
    16    8    9 1    
    17    8  134 1    
    18    8  135 1    
    19    9   10 ar   
    20    9   14 ar   
    21   10   11 ar   
    22   10  136 1    
    23   11   12 ar   
    24   11  126 1    
    25   12   13 ar   
    26   12  137 1    
    27   13   14 ar   
    28   13   15 1    
    29   14  138 1    
    30   15   16 1    
    31   15  139 1    
    32   15  140 1    
    33   16   17 1    
    34   17   18 1    
    35   17  141 1    
    36   17  142 1    
    37   18   19 1    
    38   18   67 1    
    39   18  143 1    
    40   19   20 am   BACKBONE|DICT|INTERRES
    41   19  144 1    
    42   20   21 2    
    43   20   22 1    
    44   22   23 1    
    45   22   24 1    
    46   22  145 1    
    47   23  146 1    
    48   23  147 1    
    49   23  148 1    
    50   24   25 am   BACKBONE|DICT|INTERRES
    51   24  149 1    
    52   25   26 2    
    53   25   27 1    
    54   27   28 1    
    55   27   29 1    
    56   27  150 1    
    57   28  151 1    
    58   28  152 1    
    59   28  153 1    
    60   29   30 am   BACKBONE|DICT|INTERRES
    61   29  154 1    
    62   30   31 2    
    63   30   32 1    
    64   32   33 1    
    65   32   34 1    
    66   32  155 1    
    67   33  156 1    
    68   33  157 1    
    69   33  158 1    
    70   34   35 am   BACKBONE|DICT|INTERRES
    71   34  159 1    
    72   35   36 2    
    73   35   37 1    
    74   37   38 1    
    75   37   39 1    
    76   37  160 1    
    77   38  161 1    
    78   38  162 1    
    79   38  163 1    
    80   39   40 am   BACKBONE|DICT|INTERRES
    81   39  164 1    
    82   40   41 2    
    83   40   42 1    
    84   42   43 1    
    85   42   44 1    
    86   42  165 1    
    87   43  166 1    
    88   43  167 1    
    89   43  168 1    
    90   44   45 am   BACKBONE|DICT|INTERRES
    91   44  169 1    
    92   45   46 2    
    93   45   47 1    
    94   47   48 1    
    95   47   49 1    
    96   47  170 1    
    97   48  171 1    
    98   48  172 1    
    99   48  173 1    
   100   49   50 am   BACKBONE|DICT|INTERRES
   101   49  174 1    
   102   50   51 2    
   103   50   52 1    
   104   52   53 1    
   105   52   54 1    
   106   52  175 1    
   107   53  176 1    
   108   53  177 1    
   109   53  178 1    
   110   54   55 am   BACKBONE|DICT|INTERRES
   111   54  179 1    
   112   55   56 2    
   113   55   57 1    
   114   57   58 1    
   115   57   59 1    
   116   57  180 1    
   117   58  181 1    
   118   58  182 1    
   119   58  183 1    
   120   59   60 am   BACKBONE|DICT|INTERRES
   121   59  184 1    
   122   60   61 2    
   123   60   62 1    
   124   62   63 1    
   125   62   64 1    
   126   62  185 1    
   127   63  186 1    
   128   63  187 1    
   129   63  188 1    
   130   64   65 am   BACKBONE|DICT|INTERRES
   131   64  189 1    
   132   65   66 2    
   133   67   68 2    
   134   67   69 am   BACKBONE|DICT|INTERRES
   135   69   70 1    
   136   69  190 1    
   137   70   71 1    
   138   70   72 1    
   139   70  191 1    
   140   71  192 1    
   141   71  193 1    
   142   71  194 1    
   143   72   73 2    
   144   72   74 am   BACKBONE|DICT|INTERRES
   145   74   75 1    
   146   74  195 1    
   147   75   76 1    
   148   75   77 1    
   149   75  196 1    
   150   76  197 1    
   151   76  198 1    
   152   76  199 1    
   153   77   78 2    
   154   77   79 am   BACKBONE|DICT|INTERRES
   155   79   80 1    
   156   79  200 1    
   157   80   81 1    
   158   80   82 1    
   159   80  201 1    
   160   81  202 1    
   161   81  203 1    
   162   81  204 1    
   163   82   83 2    
   164   82   84 am   BACKBONE|DICT|INTERRES
   165   84   85 1    
   166   84  205 1    
   167   85   86 1    
   168   85   87 1    
   169   85  206 1    
   170   86  207 1    
   171   86  208 1    
   172   86  209 1    
   173   87   88 2    
   174   87   89 am   BACKBONE|DICT|INTERRES
   175   89   90 1    
   176   89  210 1    
   177   90   91 1    
   178   90   92 1    
   179   90  211 1    
   180   91  212 1    
   181   91  213 1    
   182   91  214 1    
   183   92   93 2    
   184   92   94 am   BACKBONE|DICT|INTERRES
   185   94   95 1    
   186   94  215 1    
   187   95   96 1    
   188   95   97 1    
   189   95  216 1    
   190   96  217 1    
   191   96  218 1    
   192   96  219 1    
   193   97   98 2    
   194   97   99 am   BACKBONE|DICT|INTERRES
   195   99  100 1    
   196   99  220 1    
   197  100  101 1    
   198  100  102 1    
   199  100  221 1    
   200  101  222 1    
   201  101  223 1    
   202  101  224 1    
   203  102  103 2    
   204  102  104 am   BACKBONE|DICT|INTERRES
   205  104  105 1    
   206  104  225 1    
   207  105  106 1    
   208  105  107 1    
   209  105  226 1    
   210  106  227 1    
   211  106  228 1    
   212  106  229 1    
   213  107  108 2    
   214  107  109 am   BACKBONE|DICT|INTERRES
   215  109  110 1    
   216  109  230 1    
   217  110  111 1    
   218  110  112 1    
   219  110  231 1    
   220  111  232 1    
   221  111  233 1    
   222  111  234 1    
   223  112  113 2    
   224  112  114 am   BACKBONE|DICT|INTERRES
   225  114  115 1    
   226  114  235 1    
   227  115  116 1    
   228  115  117 1    
   229  115  236 1    
   230  116  237 1    
   231  116  238 1    
   232  116  239 1    
   233  117  118 2    
   234  117  119 am   BACKBONE|DICT|INTERRES
   235  119  120 1    
   236  119  240 1    
   237  120  121 1    
   238  120  124 1    
   239  120  241 1    
   240  121  122 am   BACKBONE|DICT|INTERRES
   241  121  123 2    
   242  122  242 1    
   243  122  243 1    
   244  124  125 1    
   245  124  244 1    
   246  124  245 1    
   247  125  126 1    
   248  126  246 1    
   249  126  247 1    
@<TRIPOS>SUBSTRUCTURE
     1 UNK         1 GROUP             0       ****    0 ROOT    
