@<TRIPOS>MOLECULE
3R540
247   249    1
SMALL
USER_CHARGES


@<TRIPOS>ATOM
      1 CA         -4.5719  -12.1179  -49.7340 C.3       0 UNK        -0.1800 
      2 C          -3.2350  -11.3970  -49.6263 C.2       0 UNK         0.5000 
      3 O          -3.1779  -10.1772  -49.7846 O.2       0 UNK        -0.5000 
      4 N          -2.1607  -12.1493  -49.3678 N.am      1 UNK        -0.5000 
      5 CA         -0.7993  -11.6510  -49.1612 C.3       1 UNK         0.1400 
      6 C6          0.2683  -12.7694  -49.3208 C.3       23 UNK        -0.0398 
      7 S7         -0.1837  -14.3733  -48.5586 S.3       23 UNK        -0.2404 
      8 C8         -0.6413  -15.2924  -50.0612 C.3       23 UNK        -0.0205 
      9 C9         -1.4135  -16.5643  -49.7538 C.ar      23 UNK        -0.0193 
     10 C10        -2.7984  -16.5201  -49.5702 C.ar      23 UNK        -0.1150 
     11 C11        -3.5256  -17.6933  -49.3441 C.ar      23 UNK        -0.0193 
     12 C12        -2.8524  -18.9177  -49.2976 C.ar      23 UNK        -0.1150 
     13 C13        -1.4660  -18.9735  -49.4713 C.ar      23 UNK        -0.0193 
     14 C14        -0.7525  -17.7928  -49.6942 C.ar      23 UNK        -0.1150 
     15 C15        -0.7405  -20.3090  -49.4410 C.3       23 UNK        -0.0205 
     16 S16         0.2995  -20.4728  -47.9625 S.3       23 UNK        -0.2404 
     17 C17         0.6549  -22.2611  -47.9737 C.3       23 UNK        -0.0398 
     18 CA         -0.1776  -23.0694  -46.9492 C.3       11 UNK         0.1400 
     19 N           0.0107  -22.5981  -45.5724 N.am      11 UNK        -0.5000 
     20 C          -0.3926  -23.2527  -44.4740 C.2       10 UNK         0.5000 
     21 O          -1.0843  -24.2712  -44.5202 O.2       10 UNK        -0.5000 
     22 CA          0.0248  -22.6774  -43.1050 C.3       10 UNK         0.1400 
     23 CB          0.2585  -23.7802  -42.0526 C.3       10 UNK        -0.1800 
     24 N           1.1698  -21.7633  -43.1725 N.am      10 UNK        -0.5000 
     25 C           2.4356  -22.0350  -43.5291 C.2       9 UNK         0.5000 
     26 O           2.8325  -23.1522  -43.8605 O.2       9 UNK        -0.5000 
     27 CA          3.4258  -20.8532  -43.5288 C.3       9 UNK         0.1400 
     28 CB          3.8869  -20.5302  -44.9607 C.3       9 UNK        -0.1800 
     29 N           2.8255  -19.6539  -42.9372 N.am      9 UNK        -0.5000 
     30 C           3.0441  -19.2310  -41.6854 C.2       8 UNK         0.5000 
     31 O           3.8637  -19.7435  -40.9222 O.2       8 UNK        -0.5000 
     32 CA          2.1856  -18.0543  -41.1858 C.3       8 UNK         0.1400 
     33 CB          2.8088  -16.7092  -41.5888 C.3       8 UNK        -0.1800 
     34 N           0.7907  -18.1060  -41.6344 N.am      8 UNK        -0.5000 
     35 C          -0.1067  -19.0111  -41.2136 C.2       7 UNK         0.5000 
     36 O           0.1775  -19.9634  -40.4881 O.2       7 UNK        -0.5000 
     37 CA         -1.5640  -18.8326  -41.6695 C.3       7 UNK         0.1400 
     38 CB         -2.2711  -17.7865  -40.7939 C.3       7 UNK        -0.1800 
     39 N          -1.6412  -18.4113  -43.0640 N.am      7 UNK        -0.5000 
     40 C          -2.0035  -19.1956  -44.0882 C.2       6 UNK         0.5000 
     41 O          -2.3375  -20.3756  -43.9818 O.2       6 UNK        -0.5000 
     42 CA         -1.9500  -18.5527  -45.4863 C.3       6 UNK         0.1400 
     43 CB         -3.2074  -17.6968  -45.7024 C.3       6 UNK        -0.1800 
     44 N          -0.7790  -17.7046  -45.7066 N.am      6 UNK        -0.5000 
     45 C           0.4971  -17.9896  -45.4093 C.2       5 UNK         0.5000 
     46 O           0.8824  -19.0594  -44.9377 O.2       5 UNK        -0.5000 
     47 CA          1.5016  -16.8378  -45.5766 C.3       5 UNK         0.1400 
     48 CB          2.1231  -16.8706  -46.9797 C.3       5 UNK        -0.1800 
     49 N           0.9280  -15.5107  -45.3163 N.am      5 UNK        -0.5000 
     50 C           0.2805  -15.1334  -44.2003 C.2       4 UNK         0.5000 
     51 O           0.0384  -15.8950  -43.2598 O.2       4 UNK        -0.5000 
     52 CA         -0.1921  -13.6667  -44.1466 C.3       4 UNK         0.1400 
     53 CB         -0.5648  -13.2086  -42.7214 C.3       4 UNK        -0.1800 
     54 N           0.7577  -12.7353  -44.7633 N.am      4 UNK        -0.5000 
     55 C           2.0316  -12.5099  -44.3976 C.2       3 UNK         0.5000 
     56 O           2.5878  -13.0776  -43.4572 O.2       3 UNK        -0.5000 
     57 CA          2.8363  -11.4896  -45.2303 C.3       3 UNK         0.1400 
     58 CB          3.8233  -12.2220  -46.1536 C.3       3 UNK        -0.1800 
     59 N           1.9990  -10.6113  -46.0483 N.am      3 UNK        -0.5000 
     60 C           1.1954   -9.6458  -45.5800 C.2       2 UNK         0.5000 
     61 O           1.1441   -9.3122  -44.3960 O.2       2 UNK        -0.5000 
     62 CA          0.2699   -8.9608  -46.6065 C.3       2 UNK         0.1400 
     63 CB          0.8605   -7.6127  -47.0472 C.3       2 UNK        -0.1800 
     64 N           0.0022   -9.7776  -47.7972 N.am      2 UNK        -0.5000 
     65 C          -0.6722  -10.9367  -47.8009 C.2       1 UNK         0.5000 
     66 O          -1.1338  -11.4612  -46.7846 O.2       1 UNK        -0.5000 
     67 C          -1.6571  -23.1866  -47.3701 C.2       11 UNK         0.5000 
     68 O          -1.9718  -24.0264  -48.2120 O.2       11 UNK        -0.5000 
     69 N          -2.5435  -22.3897  -46.7553 N.am      12 UNK        -0.5000 
     70 CA         -3.9893  -22.4586  -46.9745 C.3       12 UNK         0.1400 
     71 CB         -4.6531  -21.1889  -46.4254 C.3       12 UNK        -0.1800 
     72 C          -4.6341  -23.7212  -46.3672 C.2       12 UNK         0.5000 
     73 O          -5.7113  -24.1169  -46.8100 O.2       12 UNK        -0.5000 
     74 N          -3.9707  -24.3377  -45.3805 N.am      13 UNK        -0.5000 
     75 CA         -4.3766  -25.6062  -44.7815 C.3       13 UNK         0.1400 
     76 CB         -4.1389  -25.5519  -43.2635 C.3       13 UNK        -0.1800 
     77 C          -3.6020  -26.7724  -45.4148 C.2       13 UNK         0.5000 
     78 O          -4.2095  -27.7752  -45.7898 O.2       13 UNK        -0.5000 
     79 N          -2.2751  -26.6202  -45.5212 N.am      14 UNK        -0.5000 
     80 CA         -1.3487  -27.6647  -45.9562 C.3       14 UNK         0.1400 
     81 CB          0.0777  -27.2623  -45.5503 C.3       14 UNK        -0.1800 
     82 C          -1.4070  -27.9765  -47.4623 C.2       14 UNK         0.5000 
     83 O          -1.1501  -29.1190  -47.8442 O.2       14 UNK        -0.5000 
     84 N          -1.7187  -26.9698  -48.2882 N.am      15 UNK        -0.5000 
     85 CA         -1.6895  -27.0571  -49.7497 C.3       15 UNK         0.1400 
     86 CB         -0.3523  -26.4815  -50.2518 C.3       15 UNK        -0.1800 
     87 C          -2.9011  -26.3602  -50.3941 C.2       15 UNK         0.5000 
     88 O          -2.8330  -25.9944  -51.5700 O.2       15 UNK        -0.5000 
     89 N          -3.9752  -26.1539  -49.6151 N.am      16 UNK        -0.5000 
     90 CA         -5.2632  -25.5167  -49.9435 C.3       16 UNK         0.1400 
     91 CB         -6.0061  -26.3146  -51.0317 C.3       16 UNK        -0.1800 
     92 C          -5.1955  -24.0191  -50.3205 C.2       16 UNK         0.5000 
     93 O          -6.1045  -23.2657  -49.9727 O.2       16 UNK        -0.5000 
     94 N          -4.1271  -23.6187  -51.0120 N.am      17 UNK        -0.5000 
     95 CA         -3.8209  -22.2763  -51.4990 C.3       17 UNK         0.1400 
     96 CB         -4.8764  -21.8045  -52.5154 C.3       17 UNK        -0.1800 
     97 C          -2.4300  -22.2122  -52.1523 C.2       17 UNK         0.5000 
     98 O          -1.9116  -21.1094  -52.3303 O.2       17 UNK        -0.5000 
     99 N          -1.8662  -23.3664  -52.5541 N.am      18 UNK        -0.5000 
    100 CA        -0.5556  -23.5410  -53.2027 C.3       18 UNK         0.1400 
    101 CB         0.5745  -23.1511  -52.2268 C.3       18 UNK        -0.1800 
    102 C         -0.3999  -22.8172  -54.5619 C.2       18 UNK         0.5000 
    103 O          0.7185  -22.7165  -55.0680 O.2       18 UNK        -0.5000 
    104 N         -1.5127  -22.2993  -55.1074 N.am      19 UNK        -0.5000 
    105 CA        -1.6114  -21.3699  -56.2397 C.3       19 UNK         0.1400 
    106 CB        -1.1884  -22.0578  -57.5544 C.3       19 UNK        -0.1800 
    107 C         -0.8735  -20.0304  -55.9980 C.2       19 UNK         0.5000 
    108 O         -0.4867  -19.3642  -56.9597 O.2       19 UNK        -0.5000 
    109 N         -0.6796  -19.6600  -54.7227 N.am      20 UNK        -0.5000 
    110 CA         0.1074  -18.4975  -54.3103 C.3       20 UNK         0.1400 
    111 CB         0.5355  -18.6847  -52.8494 C.3       20 UNK        -0.1800 
    112 C         -0.6432  -17.1666  -54.4883 C.2       20 UNK         0.5000 
    113 O         -0.0232  -16.1670  -54.8535 O.2       20 UNK        -0.5000 
    114 N         -1.9582  -17.1834  -54.2408 N.am      21 UNK        -0.5000 
    115 CA        -2.8615  -16.0418  -54.3933 C.3       21 UNK         0.1400 
    116 CB        -2.6183  -14.9815  -53.3012 C.3       21 UNK        -0.1800 
    117 C         -4.3188  -16.5146  -54.3523 C.2       21 UNK         0.5000 
    118 O         -5.1147  -16.1171  -55.2028 O.2       21 UNK        -0.5000 
    119 N         -4.6335  -17.3656  -53.3674 N.am      22 UNK        -0.5000 
    120 CA        -5.9852  -17.8849  -53.0956 C.3       22 UNK         0.1400 
    121 C         -6.4917  -18.9850  -54.0783 C.2       22 UNK         0.5000 
    122 N         -5.7296  -19.3894  -55.0871 N.am      22 UNK        -0.7600 
    123 O         -7.6075  -19.4755  -53.9302 O.2       22 UNK        -0.5000 
    124 C124       -6.1232  -18.3230  -51.6136 C.3       23 UNK        -0.0398 
    125 S125       -5.9593  -16.9070  -50.4733 S.3       23 UNK        -0.2404 
    126 C126       -5.0257  -17.6282  -49.0858 C.3       23 UNK        -0.0205 
    127 H127       -4.4665  -13.1934  -49.5877 H         1 UNK         0.0600 
    128 H128       -5.2643  -11.7388  -48.9824 H         1 UNK         0.0600 
    129 H129       -5.0099  -11.9514  -50.7182 H         1 UNK         0.0600 
    130 H130       -2.2749  -13.1367  -49.1904 H         1 UNK         0.3000 
    131 H131       -0.6059  -10.9093  -49.9396 H         1 UNK         0.0600 
    132 H132        1.2332  -12.4559  -48.9185 H         1 UNK         0.0800 
    133 H133        0.4533  -12.9278  -50.3841 H         1 UNK         0.0800 
    134 H134        0.2610  -15.5259  -50.6288 H         1 UNK         0.0800 
    135 H135       -1.2464  -14.6527  -50.7034 H         1 UNK         0.0800 
    136 H136       -3.3149  -15.5715  -49.6058 H         1 UNK         0.1150 
    137 H137       -3.4055  -19.8269  -49.1145 H         1 UNK         0.1150 
    138 H138        0.3182  -17.8361  -49.8356 H         1 UNK         0.1150 
    139 H139       -1.4594  -21.1275  -49.4736 H         1 UNK         0.0800 
    140 H140       -0.1177  -20.4078  -50.3304 H         1 UNK         0.0800 
    141 H141        1.7151  -22.3830  -47.7480 H         1 UNK         0.0800 
    142 H142        0.5263  -22.6607  -48.9811 H         1 UNK         0.0800 
    143 H143        0.2121  -24.0890  -46.9740 H         1 UNK         0.0600 
    144 H144        0.5312  -21.7386  -45.4595 H         1 UNK         0.3000 
    145 H145       -0.8170  -22.0796  -42.7572 H         1 UNK         0.0600 
    146 H146        0.5515  -23.3529  -41.0936 H         1 UNK         0.0600 
    147 H147       -0.6505  -24.3588  -41.8839 H         1 UNK         0.0600 
    148 H148        1.0355  -24.4796  -42.3622 H         1 UNK         0.0600 
    149 H149        0.9658  -20.8036  -42.9351 H         1 UNK         0.3000 
    150 H150        4.3022  -21.1624  -42.9558 H         1 UNK         0.0600 
    151 H151        4.4260  -21.3735  -45.3938 H         1 UNK         0.0600 
    152 H152        4.5603  -19.6732  -44.9749 H         1 UNK         0.0600 
    153 H153        3.0490  -20.3093  -45.6220 H         1 UNK         0.0600 
    154 H154        2.1194  -19.1960  -43.5066 H         1 UNK         0.3000 
    155 H155        2.1794  -18.0993  -40.0946 H         1 UNK         0.0600 
    156 H156        2.8474  -16.5861  -42.6700 H         1 UNK         0.0600 
    157 H157        3.8293  -16.6238  -41.2137 H         1 UNK         0.0600 
    158 H158        2.2414  -15.8726  -41.1802 H         1 UNK         0.0600 
    159 H159        0.4813  -17.3350  -42.2220 H         1 UNK         0.3000 
    160 H160       -2.0755  -19.7879  -41.5330 H         1 UNK         0.0600 
    161 H161       -3.3226  -17.6937  -41.0661 H         1 UNK         0.0600 
    162 H162       -1.8126  -16.8013  -40.8912 H         1 UNK         0.0600 
    163 H163       -2.2313  -18.0664  -39.7404 H         1 UNK         0.0600 
    164 H164       -1.3201  -17.4717  -43.2676 H         1 UNK         0.3000 
    165 H165       -1.9282  -19.3485  -46.2321 H         1 UNK         0.0600 
    166 H166       -3.2019  -17.2288  -46.6842 H         1 UNK         0.0600 
    167 H167       -4.1148  -18.2959  -45.6265 H         1 UNK         0.0600 
    168 H168       -3.2821  -16.8984  -44.9629 H         1 UNK         0.0600 
    169 H169       -0.9641  -16.7925  -46.0961 H         1 UNK         0.3000 
    170 H170        2.3021  -16.9945  -44.8534 H         1 UNK         0.0600 
    171 H171        2.6258  -17.8223  -47.1582 H         1 UNK         0.0600 
    172 H172        2.8643  -16.0814  -47.1061 H         1 UNK         0.0600 
    173 H173        1.3684  -16.7541  -47.7570 H         1 UNK         0.0600 
    174 H174        1.0544  -14.8211  -46.0430 H         1 UNK         0.3000 
    175 H175       -1.0977  -13.6204  -44.7532 H         1 UNK         0.0600 
    176 H176       -0.9010  -12.1717  -42.7165 H         1 UNK         0.0600 
    177 H177       -1.3760  -13.8141  -42.3155 H         1 UNK         0.0600 
    178 H178        0.2785  -13.2919  -42.0350 H         1 UNK         0.0600 
    179 H179        0.3806  -12.2038  -45.5399 H         1 UNK         0.3000 
    180 H180        3.4065  -10.8714  -44.5338 H         1 UNK         0.0600 
    181 H181        3.3057  -12.8530  -46.8776 H         1 UNK         0.0600 
    182 H182        4.4931  -12.8641  -45.5798 H         1 UNK         0.0600 
    183 H183        4.4461  -11.5174  -46.7051 H         1 UNK         0.0600 
    184 H184        1.9921  -10.7914  -47.0406 H         1 UNK         0.3000 
    185 H185       -0.6835   -8.7711  -46.1089 H         1 UNK         0.0600 
    186 H186        1.8083   -7.7403  -47.5719 H         1 UNK         0.0600 
    187 H187        0.1778   -7.0800  -47.7095 H         1 UNK         0.0600 
    188 H188        1.0458   -6.9671  -46.1876 H         1 UNK         0.0600 
    189 H189        0.3484   -9.4097  -48.6721 H         1 UNK         0.3000 
    190 H190       -2.2154  -21.7530  -46.0417 H         1 UNK         0.3000 
    191 H191       -4.1644  -22.4845  -48.0509 H         1 UNK         0.0600 
    192 H192       -4.2403  -20.2971  -46.8939 H         1 UNK         0.0600 
    193 H193       -4.5241  -21.0996  -45.3467 H         1 UNK         0.0600 
    194 H194       -5.7249  -21.1922  -46.6276 H         1 UNK         0.0600 
    195 H195       -3.0721  -23.9716  -45.0904 H         1 UNK         0.3000 
    196 H196       -5.4423  -25.7816  -44.9438 H         1 UNK         0.0600 
    197 H197       -4.4363  -26.4879  -42.7891 H         1 UNK         0.0600 
    198 H198       -4.7234  -24.7548  -42.8041 H         1 UNK         0.0600 
    199 H199       -3.0903  -25.3790  -43.0187 H         1 UNK         0.0600 
    200 H200       -1.8505  -25.7655  -45.1664 H         1 UNK         0.3000 
    201 H201       -1.6033  -28.5829  -45.4224 H         1 UNK         0.0600 
    202 H202        0.1523  -27.1050  -44.4740 H         1 UNK         0.0600 
    203 H203        0.3923  -26.3426  -46.0439 H         1 UNK         0.0600 
    204 H204        0.7951  -28.0399  -45.8159 H         1 UNK         0.0600 
    205 H205       -1.8987  -26.0447  -47.9117 H         1 UNK         0.3000 
    206 H206       -1.7525  -28.0996  -50.0673 H         1 UNK         0.0600 
    207 H207        0.4921  -27.0375  -49.8445 H         1 UNK         0.0600 
    208 H208       -0.2754  -26.5308  -51.3386 H         1 UNK         0.0600 
    209 H209       -0.2379  -25.4389  -49.9561 H         1 UNK         0.0600 
    210 H210       -3.9015  -26.4798  -48.6621 H         1 UNK         0.3000 
    211 H211       -5.8612  -25.5798  -49.0338 H         1 UNK         0.0600 
    212 H212       -5.4794  -26.2915  -51.9861 H         1 UNK         0.0600 
    213 H213       -7.0027  -25.9052  -51.2012 H         1 UNK         0.0600 
    214 H214       -6.1290  -27.3579  -50.7409 H         1 UNK         0.0600 
    215 H215       -3.4471  -24.3440  -51.2170 H         1 UNK         0.3000 
    216 H216       -3.8134  -21.5961  -50.6466 H         1 UNK         0.0600 
    217 H217       -4.5753  -20.8624  -52.9723 H         1 UNK         0.0600 
    218 H218       -5.8454  -21.6358  -52.0465 H         1 UNK         0.0600 
    219 H219       -5.0136  -22.5283  -53.3193 H         1 UNK         0.0600 
    220 H220       -2.3717  -24.2348  -52.4210 H         1 UNK         0.3000 
    221 H221       -0.4623  -24.6075  -53.4123 H         1 UNK         0.0600 
    222 H222        0.6059  -22.0753  -52.0534 H         1 UNK         0.0600 
    223 H223        0.4527  -23.6409  -51.2625 H         1 UNK         0.0600 
    224 H224        1.5492  -23.4458  -52.6169 H         1 UNK         0.0600 
    225 H225       -2.3725  -22.4530  -54.6015 H         1 UNK         0.3000 
    226 H226       -2.6684  -21.1153  -56.3288 H         1 UNK         0.0600 
    227 H227       -1.7214  -22.9978  -57.6968 H         1 UNK         0.0600 
    228 H228       -1.4113  -21.4272  -58.4157 H         1 UNK         0.0600 
    229 H229       -0.1195  -22.2714  -57.5754 H         1 UNK         0.0600 
    230 H230       -1.0375  -20.2505  -53.9784 H         1 UNK         0.3000 
    231 H231        1.0109  -18.4537  -54.9224 H         1 UNK         0.0600 
    232 H232        1.1621  -19.5687  -52.7308 H         1 UNK         0.0600 
    233 H233       -0.3334  -18.8028  -52.2037 H         1 UNK         0.0600 
    234 H234        1.1046  -17.8269  -52.4888 H         1 UNK         0.0600 
    235 H235       -2.3824  -18.0650  -53.9922 H         1 UNK         0.3000 
    236 H236       -2.6838  -15.5895  -55.3713 H         1 UNK         0.0600 
    237 H237       -3.2941  -14.1343  -53.4243 H         1 UNK         0.0600 
    238 H238       -2.7896  -15.3918  -52.3066 H         1 UNK         0.0600 
    239 H239       -1.6024  -14.5887  -53.3339 H         1 UNK         0.0600 
    240 H240       -3.9325  -17.5961  -52.6791 H         1 UNK         0.3000 
    241 H241       -6.6793  -17.0554  -53.2453 H         1 UNK         0.0600 
    242 H242       -6.0818  -20.0910  -55.7188 H         1 UNK         0.3800 
    243 H243       -4.8392  -18.9563  -55.2613 H         1 UNK         0.3800 
    244 H244       -7.0981  -18.7758  -51.4250 H         1 UNK         0.0800 
    245 H245       -5.3796  -19.0830  -51.3703 H         1 UNK         0.0800 
    246 H246       -5.4299  -18.6136  -48.8486 H         1 UNK         0.0800 
    247 H247       -5.1955  -17.0116  -48.2024 H         1 UNK         0.0800 
@<TRIPOS>BOND
     1    1    2 1    
     2    1  127 1    
     3    1  128 1    
     4    1  129 1    
     5    2    3 2    
     6    2    4 am   BACKBONE|DICT|INTERRES
     7    4    5 1    
     8    4  130 1    
     9    5    6 1    
    10    5   65 1    
    11    5  131 1    
    12    6    7 1    
    13    6  132 1    
    14    6  133 1    
    15    7    8 1    
    16    8    9 1    
    17    8  134 1    
    18    8  135 1    
    19    9   10 ar   
    20    9   14 ar   
    21   10   11 ar   
    22   10  136 1    
    23   11   12 ar   
    24   11  126 1    
    25   12   13 ar   
    26   12  137 1    
    27   13   14 ar   
    28   13   15 1    
    29   14  138 1    
    30   15   16 1    
    31   15  139 1    
    32   15  140 1    
    33   16   17 1    
    34   17   18 1    
    35   17  141 1    
    36   17  142 1    
    37   18   19 1    
    38   18   67 1    
    39   18  143 1    
    40   19   20 am   BACKBONE|DICT|INTERRES
    41   19  144 1    
    42   20   21 2    
    43   20   22 1    
    44   22   23 1    
    45   22   24 1    
    46   22  145 1    
    47   23  146 1    
    48   23  147 1    
    49   23  148 1    
    50   24   25 am   BACKBONE|DICT|INTERRES
    51   24  149 1    
    52   25   26 2    
    53   25   27 1    
    54   27   28 1    
    55   27   29 1    
    56   27  150 1    
    57   28  151 1    
    58   28  152 1    
    59   28  153 1    
    60   29   30 am   BACKBONE|DICT|INTERRES
    61   29  154 1    
    62   30   31 2    
    63   30   32 1    
    64   32   33 1    
    65   32   34 1    
    66   32  155 1    
    67   33  156 1    
    68   33  157 1    
    69   33  158 1    
    70   34   35 am   BACKBONE|DICT|INTERRES
    71   34  159 1    
    72   35   36 2    
    73   35   37 1    
    74   37   38 1    
    75   37   39 1    
    76   37  160 1    
    77   38  161 1    
    78   38  162 1    
    79   38  163 1    
    80   39   40 am   BACKBONE|DICT|INTERRES
    81   39  164 1    
    82   40   41 2    
    83   40   42 1    
    84   42   43 1    
    85   42   44 1    
    86   42  165 1    
    87   43  166 1    
    88   43  167 1    
    89   43  168 1    
    90   44   45 am   BACKBONE|DICT|INTERRES
    91   44  169 1    
    92   45   46 2    
    93   45   47 1    
    94   47   48 1    
    95   47   49 1    
    96   47  170 1    
    97   48  171 1    
    98   48  172 1    
    99   48  173 1    
   100   49   50 am   BACKBONE|DICT|INTERRES
   101   49  174 1    
   102   50   51 2    
   103   50   52 1    
   104   52   53 1    
   105   52   54 1    
   106   52  175 1    
   107   53  176 1    
   108   53  177 1    
   109   53  178 1    
   110   54   55 am   BACKBONE|DICT|INTERRES
   111   54  179 1    
   112   55   56 2    
   113   55   57 1    
   114   57   58 1    
   115   57   59 1    
   116   57  180 1    
   117   58  181 1    
   118   58  182 1    
   119   58  183 1    
   120   59   60 am   BACKBONE|DICT|INTERRES
   121   59  184 1    
   122   60   61 2    
   123   60   62 1    
   124   62   63 1    
   125   62   64 1    
   126   62  185 1    
   127   63  186 1    
   128   63  187 1    
   129   63  188 1    
   130   64   65 am   BACKBONE|DICT|INTERRES
   131   64  189 1    
   132   65   66 2    
   133   67   68 2    
   134   67   69 am   BACKBONE|DICT|INTERRES
   135   69   70 1    
   136   69  190 1    
   137   70   71 1    
   138   70   72 1    
   139   70  191 1    
   140   71  192 1    
   141   71  193 1    
   142   71  194 1    
   143   72   73 2    
   144   72   74 am   BACKBONE|DICT|INTERRES
   145   74   75 1    
   146   74  195 1    
   147   75   76 1    
   148   75   77 1    
   149   75  196 1    
   150   76  197 1    
   151   76  198 1    
   152   76  199 1    
   153   77   78 2    
   154   77   79 am   BACKBONE|DICT|INTERRES
   155   79   80 1    
   156   79  200 1    
   157   80   81 1    
   158   80   82 1    
   159   80  201 1    
   160   81  202 1    
   161   81  203 1    
   162   81  204 1    
   163   82   83 2    
   164   82   84 am   BACKBONE|DICT|INTERRES
   165   84   85 1    
   166   84  205 1    
   167   85   86 1    
   168   85   87 1    
   169   85  206 1    
   170   86  207 1    
   171   86  208 1    
   172   86  209 1    
   173   87   88 2    
   174   87   89 am   BACKBONE|DICT|INTERRES
   175   89   90 1    
   176   89  210 1    
   177   90   91 1    
   178   90   92 1    
   179   90  211 1    
   180   91  212 1    
   181   91  213 1    
   182   91  214 1    
   183   92   93 2    
   184   92   94 am   BACKBONE|DICT|INTERRES
   185   94   95 1    
   186   94  215 1    
   187   95   96 1    
   188   95   97 1    
   189   95  216 1    
   190   96  217 1    
   191   96  218 1    
   192   96  219 1    
   193   97   98 2    
   194   97   99 am   BACKBONE|DICT|INTERRES
   195   99  100 1    
   196   99  220 1    
   197  100  101 1    
   198  100  102 1    
   199  100  221 1    
   200  101  222 1    
   201  101  223 1    
   202  101  224 1    
   203  102  103 2    
   204  102  104 am   BACKBONE|DICT|INTERRES
   205  104  105 1    
   206  104  225 1    
   207  105  106 1    
   208  105  107 1    
   209  105  226 1    
   210  106  227 1    
   211  106  228 1    
   212  106  229 1    
   213  107  108 2    
   214  107  109 am   BACKBONE|DICT|INTERRES
   215  109  110 1    
   216  109  230 1    
   217  110  111 1    
   218  110  112 1    
   219  110  231 1    
   220  111  232 1    
   221  111  233 1    
   222  111  234 1    
   223  112  113 2    
   224  112  114 am   BACKBONE|DICT|INTERRES
   225  114  115 1    
   226  114  235 1    
   227  115  116 1    
   228  115  117 1    
   229  115  236 1    
   230  116  237 1    
   231  116  238 1    
   232  116  239 1    
   233  117  118 2    
   234  117  119 am   BACKBONE|DICT|INTERRES
   235  119  120 1    
   236  119  240 1    
   237  120  121 1    
   238  120  124 1    
   239  120  241 1    
   240  121  122 am   BACKBONE|DICT|INTERRES
   241  121  123 2    
   242  122  242 1    
   243  122  243 1    
   244  124  125 1    
   245  124  244 1    
   246  124  245 1    
   247  125  126 1    
   248  126  246 1    
   249  126  247 1    
@<TRIPOS>SUBSTRUCTURE
     1 UNK         1 GROUP             0       ****    0 ROOT    
