@<TRIPOS>MOLECULE
3R540
247   249    1
SMALL
USER_CHARGES


@<TRIPOS>ATOM
      1 CA         -0.1052  -14.9555  -46.6911 C.3       0 UNK        -0.1800 
      2 C          -0.0526  -13.5074  -46.2318 C.2       0 UNK         0.5000 
      3 O           0.4410  -13.2328  -45.1402 O.2       0 UNK        -0.5000 
      4 N          -0.5221  -12.5734  -47.0708 N.am      1 UNK        -0.5000 
      5 CA         -0.3767  -11.1262  -46.8505 C.3       1 UNK         0.1400 
      6 C6         -1.2597  -10.2818  -47.8014 C.3       23 UNK        -0.0398 
      7 S7         -3.0429  -10.4916  -47.4723 S.3       23 UNK        -0.2404 
      8 C8         -3.6455  -11.2306  -49.0234 C.3       23 UNK        -0.0205 
      9 C9         -3.2738  -12.7004  -49.1282 C.ar      23 UNK        -0.0193 
     10 C10        -2.1922  -13.1035  -49.9179 C.ar      23 UNK        -0.1150 
     11 C11        -1.8431  -14.4540  -49.9990 C.ar      23 UNK        -0.0193 
     12 C12        -2.5923  -15.4016  -49.2979 C.ar      23 UNK        -0.1150 
     13 C13        -3.6734  -15.0116  -48.5052 C.ar      23 UNK        -0.0193 
     14 C14        -4.0120  -13.6585  -48.4254 C.ar      23 UNK        -0.1150 
     15 C15        -4.4475  -16.0585  -47.7215 C.3       23 UNK        -0.0205 
     16 S16        -3.5139  -16.5574  -46.2440 S.3       23 UNK        -0.2404 
     17 C17        -4.3460  -18.1064  -45.7669 C.3       23 UNK        -0.0398 
     18 CA         -3.9343  -19.3291  -46.6294 C.3       11 UNK         0.1400 
     19 N          -2.4786  -19.4987  -46.7097 N.am      11 UNK        -0.5000 
     20 C          -1.8537  -20.0981  -47.7332 C.2       10 UNK         0.5000 
     21 O          -2.4370  -20.7457  -48.6010 O.2       10 UNK        -0.5000 
     22 CA         -0.3284  -19.9245  -47.8193 C.3       10 UNK         0.1400 
     23 CB          0.0241  -18.5151  -48.3256 C.3       10 UNK        -0.1800 
     24 N           0.2876  -20.1390  -46.5125 N.am      10 UNK        -0.5000 
     25 C           1.0197  -21.2122  -46.1823 C.2       9 UNK         0.5000 
     26 O           1.3881  -22.0633  -46.9916 O.2       9 UNK        -0.5000 
     27 CA          1.3929  -21.3886  -44.6930 C.3       9 UNK         0.1400 
     28 CB          2.8367  -20.9331  -44.4369 C.3       9 UNK        -0.1800 
     29 N           0.5062  -20.6826  -43.7659 N.am      9 UNK        -0.5000 
     30 C          -0.8123  -20.8865  -43.6402 C.2       8 UNK         0.5000 
     31 O          -1.4292  -21.7584  -44.2500 O.2       8 UNK        -0.5000 
     32 CA         -1.5885  -19.9054  -42.7430 C.3       8 UNK         0.1400 
     33 CB         -1.7738  -20.4974  -41.3390 C.3       8 UNK        -0.1800 
     34 N          -0.9683  -18.5827  -42.6244 N.am      8 UNK        -0.5000 
     35 C          -0.6616  -17.7467  -43.6244 C.2       7 UNK         0.5000 
     36 O          -0.8385  -18.0223  -44.8122 O.2       7 UNK        -0.5000 
     37 CA          0.0023  -16.4099  -43.2398 C.3       7 UNK         0.1400 
     38 CB         -1.0303  -15.4127  -42.6856 C.3       7 UNK        -0.1800 
     39 N           1.1670  -16.5406  -42.3532 N.am      7 UNK        -0.5000 
     40 C           1.2338  -16.9921  -41.0904 C.2       6 UNK         0.5000 
     41 O           0.2539  -17.3523  -40.4369 O.2       6 UNK        -0.5000 
     42 CA          2.6348  -17.1078  -40.4575 C.3       6 UNK         0.1400 
     43 CB          3.0952  -18.5745  -40.4688 C.3       6 UNK        -0.1800 
     44 N           3.6469  -16.2959  -41.1346 N.am      6 UNK        -0.5000 
     45 C           3.7665  -14.9663  -41.0172 C.2       5 UNK         0.5000 
     46 O           3.0654  -14.2795  -40.2735 O.2       5 UNK        -0.5000 
     47 CA          4.8427  -14.2893  -41.8902 C.3       5 UNK         0.1400 
     48 CB          6.1391  -14.0934  -41.0892 C.3       5 UNK        -0.1800 
     49 N           5.1488  -15.0206  -43.1260 N.am      5 UNK        -0.5000 
     50 C           4.2881  -15.1924  -44.1370 C.2       4 UNK         0.5000 
     51 O           3.1238  -14.7908  -44.1228 O.2       4 UNK        -0.5000 
     52 CA          4.7859  -15.9880  -45.3460 C.3       4 UNK         0.1400 
     53 CB          4.3677  -17.4644  -45.2199 C.3       4 UNK        -0.1800 
     54 N           4.2024  -15.3997  -46.5456 N.am      4 UNK        -0.5000 
     55 C           4.6372  -15.5936  -47.7951 C.2       3 UNK         0.5000 
     56 O           5.5990  -16.3076  -48.0816 O.2       3 UNK        -0.5000 
     57 CA          3.8748  -14.8693  -48.9196 C.3       3 UNK         0.1400 
     58 CB          2.7462  -15.7585  -49.4641 C.3       3 UNK        -0.1800 
     59 N           3.3180  -13.5744  -48.5143 N.am      3 UNK        -0.5000 
     60 C           4.0488  -12.4610  -48.3415 C.2       2 UNK         0.5000 
     61 O           5.2752  -12.4381  -48.4533 O.2       2 UNK        -0.5000 
     62 CA          3.3069  -11.1502  -48.0086 C.3       2 UNK         0.1400 
     63 CB          3.5442  -10.0825  -49.0920 C.3       2 UNK        -0.1800 
     64 N           1.8663  -11.3462  -47.8325 N.am      2 UNK        -0.5000 
     65 C           1.1017  -10.6861  -46.9513 C.2       1 UNK         0.5000 
     66 O           1.5175   -9.7833  -46.2234 O.2       1 UNK        -0.5000 
     67 C          -4.7042  -20.5822  -46.1616 C.2       11 UNK         0.5000 
     68 O          -5.9269  -20.5944  -46.3087 O.2       11 UNK        -0.5000 
     69 N          -4.0261  -21.5872  -45.5886 N.am      12 UNK        -0.5000 
     70 CA         -4.6737  -22.7670  -45.0069 C.3       12 UNK         0.1400 
     71 CB         -4.8117  -22.5837  -43.4865 C.3       12 UNK        -0.1800 
     72 C          -3.9423  -24.0752  -45.3368 C.2       12 UNK         0.5000 
     73 O          -4.6029  -25.0559  -45.6842 O.2       12 UNK        -0.5000 
     74 N          -2.6071  -24.0814  -45.2311 N.am      13 UNK        -0.5000 
     75 CA         -1.7503  -25.2525  -45.4339 C.3       13 UNK         0.1400 
     76 CB         -0.2897  -24.8599  -45.1803 C.3       13 UNK        -0.1800 
     77 C          -1.9043  -25.8778  -46.8323 C.2       13 UNK         0.5000 
     78 O          -1.9826  -25.1481  -47.8233 O.2       13 UNK        -0.5000 
     79 N          -1.9655  -27.2170  -46.8736 N.am      14 UNK        -0.5000 
     80 CA         -2.1936  -28.0494  -48.0625 C.3       14 UNK         0.1400 
     81 CB         -0.9655  -28.0073  -48.9961 C.3       14 UNK        -0.1800 
     82 C          -3.5156  -27.7068  -48.7846 C.2       14 UNK         0.5000 
     83 O          -3.5504  -27.6472  -50.0145 O.2       14 UNK        -0.5000 
     84 N          -4.5683  -27.4448  -47.9927 N.am      15 UNK        -0.5000 
     85 CA         -5.8920  -26.9681  -48.4125 C.3       15 UNK         0.1400 
     86 CB         -6.6413  -28.0570  -49.2095 C.3       15 UNK        -0.1800 
     87 C          -5.7995  -25.6247  -49.1643 C.2       15 UNK         0.5000 
     88 O          -6.3418  -25.4873  -50.2605 O.2       15 UNK        -0.5000 
     89 N          -5.0576  -24.6800  -48.5700 N.am      16 UNK        -0.5000 
     90 CA         -4.6660  -23.3773  -49.1185 C.3       16 UNK         0.1400 
     91 CB         -5.8888  -22.4450  -49.2319 C.3       16 UNK        -0.1800 
     92 C          -3.9004  -23.5260  -50.4485 C.2       16 UNK         0.5000 
     93 O          -4.2864  -22.9313  -51.4570 O.2       16 UNK        -0.5000 
     94 N          -2.8616  -24.3733  -50.4329 N.am      17 UNK        -0.5000 
     95 CA         -2.0257  -24.7742  -51.5703 C.3       17 UNK         0.1400 
     96 CB         -1.0729  -23.6259  -51.9556 C.3       17 UNK        -0.1800 
     97 C          -2.8550  -25.2962  -52.7650 C.2       17 UNK         0.5000 
     98 O          -2.6819  -24.8281  -53.8913 O.2       17 UNK        -0.5000 
     99 N          -3.7670  -26.2349  -52.4737 N.am      18 UNK        -0.5000 
    100 CA        -4.7742  -26.8054  -53.3733 C.3       18 UNK         0.1400 
    101 CB        -4.1085  -27.6585  -54.4733 C.3       18 UNK        -0.1800 
    102 C         -5.7453  -25.7386  -53.9264 C.2       18 UNK         0.5000 
    103 O         -5.9831  -25.6793  -55.1345 O.2       18 UNK        -0.5000 
    104 N         -6.2897  -24.9242  -53.0108 N.am      19 UNK        -0.5000 
    105 CA        -7.2551  -23.8423  -53.2196 C.3       19 UNK         0.1400 
    106 CB        -8.6308  -24.4228  -53.6078 C.3       19 UNK        -0.1800 
    107 C         -6.7543  -22.7581  -54.1962 C.2       19 UNK         0.5000 
    108 O         -7.4694  -22.3908  -55.1317 O.2       19 UNK        -0.5000 
    109 N         -5.5295  -22.2708  -53.9649 N.am      20 UNK        -0.5000 
    110 CA        -4.8711  -21.2717  -54.8100 C.3       20 UNK         0.1400 
    111 CB        -4.0274  -21.9830  -55.8809 C.3       20 UNK        -0.1800 
    112 C         -4.0102  -20.2705  -54.0225 C.2       20 UNK         0.5000 
    113 O         -3.8219  -19.1509  -54.5012 O.2       20 UNK        -0.5000 
    114 N         -3.4961  -20.6689  -52.8497 N.am      21 UNK        -0.5000 
    115 CA        -2.5654  -19.9279  -51.9946 C.3       21 UNK         0.1400 
    116 CB        -3.3105  -18.7989  -51.2500 C.3       21 UNK        -0.1800 
    117 C         -1.3124  -19.4682  -52.7746 C.2       21 UNK         0.5000 
    118 O         -0.5865  -20.3140  -53.2991 O.2       21 UNK        -0.5000 
    119 N         -1.0930  -18.1523  -52.8585 N.am      22 UNK        -0.5000 
    120 CA        -0.0615  -17.5064  -53.6864 C.3       22 UNK         0.1400 
    121 C         -0.4128  -17.3857  -55.2010 C.2       22 UNK         0.5000 
    122 N         -1.5940  -17.7786  -55.6614 N.am      22 UNK        -0.7600 
    123 O          0.4183  -16.9389  -55.9872 O.2       22 UNK        -0.5000 
    124 C124        0.3899  -16.1469  -53.0843 C.3       23 UNK        -0.0398 
    125 S125       -0.9958  -15.0683  -52.5644 S.3       23 UNK        -0.2404 
    126 C126       -0.6265  -14.8922  -50.7939 C.3       23 UNK        -0.0205 
    127 H127        0.8422  -15.4523  -46.4819 H         1 UNK         0.0600 
    128 H128       -0.2926  -15.0362  -47.7589 H         1 UNK         0.0600 
    129 H129       -0.8908  -15.4874  -46.1597 H         1 UNK         0.0600 
    130 H130       -1.0074  -12.8510  -47.9131 H         1 UNK         0.3000 
    131 H131       -0.6958  -10.9148  -45.8273 H         1 UNK         0.0600 
    132 H132       -1.0431   -9.2191  -47.6759 H         1 UNK         0.0800 
    133 H133       -1.0362  -10.5103  -48.8443 H         1 UNK         0.0800 
    134 H134       -4.7315  -11.1325  -49.0588 H         1 UNK         0.0800 
    135 H135       -3.2642  -10.6679  -49.8770 H         1 UNK         0.0800 
    136 H136       -1.6157  -12.3687  -50.4626 H         1 UNK         0.1150 
    137 H137       -2.3136  -16.4437  -49.3360 H         1 UNK         0.1150 
    138 H138       -4.8410  -13.3470  -47.8055 H         1 UNK         0.1150 
    139 H139       -5.4259  -15.6788  -47.4236 H         1 UNK         0.0800 
    140 H140       -4.6285  -16.9218  -48.3626 H         1 UNK         0.0800 
    141 H141       -5.4242  -17.9420  -45.8137 H         1 UNK         0.0800 
    142 H142       -4.1117  -18.2906  -44.7170 H         1 UNK         0.0800 
    143 H143       -4.2899  -19.1356  -47.6436 H         1 UNK         0.0600 
    144 H144       -1.9333  -18.9476  -46.0524 H         1 UNK         0.3000 
    145 H145        0.0458  -20.6464  -48.5483 H         1 UNK         0.0600 
    146 H146        1.1033  -18.3879  -48.4104 H         1 UNK         0.0600 
    147 H147       -0.4029  -18.3361  -49.3130 H         1 UNK         0.0600 
    148 H148       -0.3519  -17.7391  -47.6579 H         1 UNK         0.0600 
    149 H149        0.0294  -19.4806  -45.7849 H         1 UNK         0.3000 
    150 H150        1.3282  -22.4536  -44.4652 H         1 UNK         0.0600 
    151 H151        3.5343  -21.4466  -45.1000 H         1 UNK         0.0600 
    152 H152        3.1441  -21.1487  -43.4134 H         1 UNK         0.0600 
    153 H153        2.9513  -19.8633  -44.6039 H         1 UNK         0.0600 
    154 H154        0.9187  -19.9353  -43.2289 H         1 UNK         0.3000 
    155 H155       -2.5738  -19.7677  -43.1922 H         1 UNK         0.0600 
    156 H156       -2.2396  -21.4825  -41.3840 H         1 UNK         0.0600 
    157 H157       -2.4152  -19.8635  -40.7264 H         1 UNK         0.0600 
    158 H158       -0.8199  -20.6079  -40.8216 H         1 UNK         0.0600 
    159 H159       -0.7392  -18.2687  -41.6838 H         1 UNK         0.3000 
    160 H160        0.4015  -15.9860  -44.1597 H         1 UNK         0.0600 
    161 H161       -1.8405  -15.2592  -43.4000 H         1 UNK         0.0600 
    162 H162       -0.5734  -14.4402  -42.5016 H         1 UNK         0.0600 
    163 H163       -1.4772  -15.7573  -41.7530 H         1 UNK         0.0600 
    164 H164        2.0342  -16.2307  -42.7731 H         1 UNK         0.3000 
    165 H165        2.5570  -16.7793  -39.4190 H         1 UNK         0.0600 
    166 H166        4.0558  -18.6900  -39.9664 H         1 UNK         0.0600 
    167 H167        2.3805  -19.2139  -39.9487 H         1 UNK         0.0600 
    168 H168        3.1991  -18.9577  -41.4849 H         1 UNK         0.0600 
    169 H169        4.2818  -16.7797  -41.7519 H         1 UNK         0.3000 
    170 H170        4.4621  -13.3043  -42.1692 H         1 UNK         0.0600 
    171 H171        5.9522  -13.5282  -40.1750 H         1 UNK         0.0600 
    172 H172        6.5821  -15.0473  -40.8003 H         1 UNK         0.0600 
    173 H173        6.8797  -13.5388  -41.6657 H         1 UNK         0.0600 
    174 H174        6.0848  -15.3919  -43.2068 H         1 UNK         0.3000 
    175 H175        5.8741  -15.9133  -45.3997 H         1 UNK         0.0600 
    176 H176        3.2817  -17.5674  -45.2044 H         1 UNK         0.0600 
    177 H177        4.7467  -18.0600  -46.0503 H         1 UNK         0.0600 
    178 H178        4.7564  -17.9072  -44.3022 H         1 UNK         0.0600 
    179 H179        3.4259  -14.7755  -46.3696 H         1 UNK         0.3000 
    180 H180        4.5838  -14.6978  -49.7327 H         1 UNK         0.0600 
    181 H181        1.9611  -15.9189  -48.7253 H         1 UNK         0.0600 
    182 H182        3.1254  -16.7389  -49.7561 H         1 UNK         0.0600 
    183 H183        2.2966  -15.3128  -50.3501 H         1 UNK         0.0600 
    184 H184        2.3237  -13.5402  -48.3686 H         1 UNK         0.3000 
    185 H185        3.7396  -10.7938  -47.0714 H         1 UNK         0.0600 
    186 H186        4.6090   -9.8952  -49.2357 H         1 UNK         0.0600 
    187 H187        3.1306  -10.3895  -50.0532 H         1 UNK         0.0600 
    188 H188        3.0847   -9.1329  -48.8173 H         1 UNK         0.0600 
    189 H189        1.4260  -12.0311  -48.4262 H         1 UNK         0.3000 
    190 H190       -3.0197  -21.5198  -45.4871 H         1 UNK         0.3000 
    191 H191       -5.6788  -22.8809  -45.4189 H         1 UNK         0.0600 
    192 H192       -5.4146  -21.7073  -43.2486 H         1 UNK         0.0600 
    193 H193       -5.2985  -23.4468  -43.0308 H         1 UNK         0.0600 
    194 H194       -3.8408  -22.4624  -43.0062 H         1 UNK         0.0600 
    195 H195       -2.1365  -23.2351  -44.9171 H         1 UNK         0.3000 
    196 H196       -2.0394  -25.9932  -44.6857 H         1 UNK         0.0600 
    197 H197        0.0480  -24.1163  -45.9013 H         1 UNK         0.0600 
    198 H198        0.3702  -25.7240  -45.2667 H         1 UNK         0.0600 
    199 H199       -0.1585  -24.4473  -44.1799 H         1 UNK         0.0600 
    200 H200       -1.8929  -27.7246  -46.0025 H         1 UNK         0.3000 
    201 H201       -2.3019  -29.0757  -47.7090 H         1 UNK         0.0600 
    202 H202       -0.0618  -28.3118  -48.4685 H         1 UNK         0.0600 
    203 H203       -0.7947  -27.0094  -49.3986 H         1 UNK         0.0600 
    204 H204       -1.0899  -28.6855  -49.8411 H         1 UNK         0.0600 
    205 H205       -4.4207  -27.4780  -46.9933 H         1 UNK         0.3000 
    206 H206       -6.4588  -26.7737  -47.5008 H         1 UNK         0.0600 
    207 H207       -6.7016  -28.9870  -48.6446 H         1 UNK         0.0600 
    208 H208       -7.6626  -27.7439  -49.4295 H         1 UNK         0.0600 
    209 H209       -6.1559  -28.2738  -50.1615 H         1 UNK         0.0600 
    210 H210       -4.6567  -24.9116  -47.6671 H         1 UNK         0.3000 
    211 H211       -3.9717  -22.9361  -48.4027 H         1 UNK         0.0600 
    212 H212       -6.5974  -22.7904  -49.9845 H         1 UNK         0.0600 
    213 H213       -5.5808  -21.4358  -49.5080 H         1 UNK         0.0600 
    214 H214       -6.4205  -22.3769  -48.2835 H         1 UNK         0.0600 
    215 H215       -2.6139  -24.7922  -49.5383 H         1 UNK         0.3000 
    216 H216       -1.4162  -25.6106  -51.2281 H         1 UNK         0.0600 
    217 H217       -0.3497  -23.9531  -52.7031 H         1 UNK         0.0600 
    218 H218       -0.5113  -23.2692  -51.0921 H         1 UNK         0.0600 
    219 H219       -1.6139  -22.7798  -52.3770 H         1 UNK         0.0600 
    220 H220       -3.7971  -26.5838  -51.5173 H         1 UNK         0.3000 
    221 H221       -5.3779  -27.4764  -52.7604 H         1 UNK         0.0600 
    222 H222       -3.5155  -27.0511  -55.1575 H         1 UNK         0.0600 
    223 H223       -3.4530  -28.4149  -54.0417 H         1 UNK         0.0600 
    224 H224       -4.8588  -28.1807  -55.0679 H         1 UNK         0.0600 
    225 H225       -6.0516  -25.0854  -52.0339 H         1 UNK         0.3000 
    226 H226       -7.3697  -23.3497  -52.2535 H         1 UNK         0.0600 
    227 H227       -8.9718  -25.1501  -52.8709 H         1 UNK         0.0600 
    228 H228       -9.3859  -23.6377  -53.6608 H         1 UNK         0.0600 
    229 H229       -8.6026  -24.9173  -54.5792 H         1 UNK         0.0600 
    230 H230       -5.0197  -22.6140  -53.1549 H         1 UNK         0.3000 
    231 H231       -5.6294  -20.6726  -55.3186 H         1 UNK         0.0600 
    232 H232       -3.2499  -22.6004  -55.4298 H         1 UNK         0.0600 
    233 H233       -3.5370  -21.2629  -56.5371 H         1 UNK         0.0600 
    234 H234       -4.6447  -22.6275  -56.5070 H         1 UNK         0.0600 
    235 H235       -3.7250  -21.5961  -52.5015 H         1 UNK         0.3000 
    236 H236       -2.2102  -20.6369  -51.2464 H         1 UNK         0.0600 
    237 H237       -4.1435  -19.2018  -50.6734 H         1 UNK         0.0600 
    238 H238       -2.6491  -18.3028  -50.5418 H         1 UNK         0.0600 
    239 H239       -3.7116  -18.0451  -51.9284 H         1 UNK         0.0600 
    240 H240       -1.7563  -17.5202  -52.4340 H         1 UNK         0.3000 
    241 H241        0.8170  -18.1543  -53.6668 H         1 UNK         0.0600 
    242 H242       -1.7868  -17.6908  -56.6460 H         1 UNK         0.3800 
    243 H243       -2.3029  -18.1818  -55.0542 H         1 UNK         0.3800 
    244 H244        1.0330  -16.3473  -52.2275 H         1 UNK         0.0800 
    245 H245        1.0214  -15.5909  -53.7793 H         1 UNK         0.0800 
    246 H246       -0.2585  -15.8395  -50.3965 H         1 UNK         0.0800 
    247 H247        0.1795  -14.1683  -50.6679 H         1 UNK         0.0800 
@<TRIPOS>BOND
     1    1    2 1    
     2    1  127 1    
     3    1  128 1    
     4    1  129 1    
     5    2    3 2    
     6    2    4 am   BACKBONE|DICT|INTERRES
     7    4    5 1    
     8    4  130 1    
     9    5    6 1    
    10    5   65 1    
    11    5  131 1    
    12    6    7 1    
    13    6  132 1    
    14    6  133 1    
    15    7    8 1    
    16    8    9 1    
    17    8  134 1    
    18    8  135 1    
    19    9   10 ar   
    20    9   14 ar   
    21   10   11 ar   
    22   10  136 1    
    23   11   12 ar   
    24   11  126 1    
    25   12   13 ar   
    26   12  137 1    
    27   13   14 ar   
    28   13   15 1    
    29   14  138 1    
    30   15   16 1    
    31   15  139 1    
    32   15  140 1    
    33   16   17 1    
    34   17   18 1    
    35   17  141 1    
    36   17  142 1    
    37   18   19 1    
    38   18   67 1    
    39   18  143 1    
    40   19   20 am   BACKBONE|DICT|INTERRES
    41   19  144 1    
    42   20   21 2    
    43   20   22 1    
    44   22   23 1    
    45   22   24 1    
    46   22  145 1    
    47   23  146 1    
    48   23  147 1    
    49   23  148 1    
    50   24   25 am   BACKBONE|DICT|INTERRES
    51   24  149 1    
    52   25   26 2    
    53   25   27 1    
    54   27   28 1    
    55   27   29 1    
    56   27  150 1    
    57   28  151 1    
    58   28  152 1    
    59   28  153 1    
    60   29   30 am   BACKBONE|DICT|INTERRES
    61   29  154 1    
    62   30   31 2    
    63   30   32 1    
    64   32   33 1    
    65   32   34 1    
    66   32  155 1    
    67   33  156 1    
    68   33  157 1    
    69   33  158 1    
    70   34   35 am   BACKBONE|DICT|INTERRES
    71   34  159 1    
    72   35   36 2    
    73   35   37 1    
    74   37   38 1    
    75   37   39 1    
    76   37  160 1    
    77   38  161 1    
    78   38  162 1    
    79   38  163 1    
    80   39   40 am   BACKBONE|DICT|INTERRES
    81   39  164 1    
    82   40   41 2    
    83   40   42 1    
    84   42   43 1    
    85   42   44 1    
    86   42  165 1    
    87   43  166 1    
    88   43  167 1    
    89   43  168 1    
    90   44   45 am   BACKBONE|DICT|INTERRES
    91   44  169 1    
    92   45   46 2    
    93   45   47 1    
    94   47   48 1    
    95   47   49 1    
    96   47  170 1    
    97   48  171 1    
    98   48  172 1    
    99   48  173 1    
   100   49   50 am   BACKBONE|DICT|INTERRES
   101   49  174 1    
   102   50   51 2    
   103   50   52 1    
   104   52   53 1    
   105   52   54 1    
   106   52  175 1    
   107   53  176 1    
   108   53  177 1    
   109   53  178 1    
   110   54   55 am   BACKBONE|DICT|INTERRES
   111   54  179 1    
   112   55   56 2    
   113   55   57 1    
   114   57   58 1    
   115   57   59 1    
   116   57  180 1    
   117   58  181 1    
   118   58  182 1    
   119   58  183 1    
   120   59   60 am   BACKBONE|DICT|INTERRES
   121   59  184 1    
   122   60   61 2    
   123   60   62 1    
   124   62   63 1    
   125   62   64 1    
   126   62  185 1    
   127   63  186 1    
   128   63  187 1    
   129   63  188 1    
   130   64   65 am   BACKBONE|DICT|INTERRES
   131   64  189 1    
   132   65   66 2    
   133   67   68 2    
   134   67   69 am   BACKBONE|DICT|INTERRES
   135   69   70 1    
   136   69  190 1    
   137   70   71 1    
   138   70   72 1    
   139   70  191 1    
   140   71  192 1    
   141   71  193 1    
   142   71  194 1    
   143   72   73 2    
   144   72   74 am   BACKBONE|DICT|INTERRES
   145   74   75 1    
   146   74  195 1    
   147   75   76 1    
   148   75   77 1    
   149   75  196 1    
   150   76  197 1    
   151   76  198 1    
   152   76  199 1    
   153   77   78 2    
   154   77   79 am   BACKBONE|DICT|INTERRES
   155   79   80 1    
   156   79  200 1    
   157   80   81 1    
   158   80   82 1    
   159   80  201 1    
   160   81  202 1    
   161   81  203 1    
   162   81  204 1    
   163   82   83 2    
   164   82   84 am   BACKBONE|DICT|INTERRES
   165   84   85 1    
   166   84  205 1    
   167   85   86 1    
   168   85   87 1    
   169   85  206 1    
   170   86  207 1    
   171   86  208 1    
   172   86  209 1    
   173   87   88 2    
   174   87   89 am   BACKBONE|DICT|INTERRES
   175   89   90 1    
   176   89  210 1    
   177   90   91 1    
   178   90   92 1    
   179   90  211 1    
   180   91  212 1    
   181   91  213 1    
   182   91  214 1    
   183   92   93 2    
   184   92   94 am   BACKBONE|DICT|INTERRES
   185   94   95 1    
   186   94  215 1    
   187   95   96 1    
   188   95   97 1    
   189   95  216 1    
   190   96  217 1    
   191   96  218 1    
   192   96  219 1    
   193   97   98 2    
   194   97   99 am   BACKBONE|DICT|INTERRES
   195   99  100 1    
   196   99  220 1    
   197  100  101 1    
   198  100  102 1    
   199  100  221 1    
   200  101  222 1    
   201  101  223 1    
   202  101  224 1    
   203  102  103 2    
   204  102  104 am   BACKBONE|DICT|INTERRES
   205  104  105 1    
   206  104  225 1    
   207  105  106 1    
   208  105  107 1    
   209  105  226 1    
   210  106  227 1    
   211  106  228 1    
   212  106  229 1    
   213  107  108 2    
   214  107  109 am   BACKBONE|DICT|INTERRES
   215  109  110 1    
   216  109  230 1    
   217  110  111 1    
   218  110  112 1    
   219  110  231 1    
   220  111  232 1    
   221  111  233 1    
   222  111  234 1    
   223  112  113 2    
   224  112  114 am   BACKBONE|DICT|INTERRES
   225  114  115 1    
   226  114  235 1    
   227  115  116 1    
   228  115  117 1    
   229  115  236 1    
   230  116  237 1    
   231  116  238 1    
   232  116  239 1    
   233  117  118 2    
   234  117  119 am   BACKBONE|DICT|INTERRES
   235  119  120 1    
   236  119  240 1    
   237  120  121 1    
   238  120  124 1    
   239  120  241 1    
   240  121  122 am   BACKBONE|DICT|INTERRES
   241  121  123 2    
   242  122  242 1    
   243  122  243 1    
   244  124  125 1    
   245  124  244 1    
   246  124  245 1    
   247  125  126 1    
   248  126  246 1    
   249  126  247 1    
@<TRIPOS>SUBSTRUCTURE
     1 UNK         1 GROUP             0       ****    0 ROOT    
