@<TRIPOS>MOLECULE
3R540
247   249    1
SMALL
USER_CHARGES


@<TRIPOS>ATOM
      1 CA         -2.9275  -13.8187  -54.3608 C.3       0 UNK        -0.1800 
      2 C          -2.5449  -13.1027  -53.0732 C.2       0 UNK         0.5000 
      3 O          -2.1653  -11.9321  -53.1095 O.2       0 UNK        -0.5000 
      4 N          -2.6276  -13.8068  -51.9396 N.am      1 UNK        -0.5000 
      5 CA         -2.3483  -13.2898  -50.5989 C.3       1 UNK         0.1400 
      6 C6         -2.0239  -14.4208  -49.5849 C.3       23 UNK        -0.0398 
      7 S7         -3.1112  -15.8901  -49.6997 S.3       23 UNK        -0.2404 
      8 C8         -3.3338  -16.3232  -47.9403 C.3       23 UNK        -0.0205 
      9 C9         -2.1254  -16.9505  -47.2391 C.ar      23 UNK        -0.0193 
     10 C10        -0.9741  -17.3723  -47.9182 C.ar      23 UNK        -0.1150 
     11 C11         0.0669  -18.0106  -47.2401 C.ar      23 UNK        -0.0193 
     12 C12        -0.0158  -18.1796  -45.8579 C.ar      23 UNK        -0.1150 
     13 C13        -1.1462  -17.7481  -45.1603 C.ar      23 UNK        -0.0193 
     14 C14        -2.1985  -17.1496  -45.8576 C.ar      23 UNK        -0.1150 
     15 C15        -1.2422  -17.9326  -43.6553 C.3       23 UNK        -0.0205 
     16 S16        -2.1954  -19.4199  -43.2208 S.3       23 UNK        -0.2404 
     17 C17        -1.0258  -20.7531  -43.6543 C.3       23 UNK        -0.0398 
     18 CA         -1.4373  -21.5873  -44.8941 C.3       11 UNK         0.1400 
     19 N          -0.3124  -22.4124  -45.3500 N.am      11 UNK        -0.5000 
     20 C          -0.3372  -23.2711  -46.3822 C.2       10 UNK         0.5000 
     21 O          -1.2875  -23.3724  -47.1537 O.2       10 UNK        -0.5000 
     22 CA          0.8638  -24.2251  -46.5495 C.3       10 UNK         0.1400 
     23 CB          1.8125  -23.7206  -47.6461 C.3       10 UNK        -0.1800 
     24 N           1.6343  -24.4419  -45.3227 N.am      10 UNK        -0.5000 
     25 C           1.1623  -24.8972  -44.1524 C.2       9 UNK         0.5000 
     26 O           0.0075  -25.2938  -43.9862 O.2       9 UNK        -0.5000 
     27 CA          2.1225  -24.8288  -42.9472 C.3       9 UNK         0.1400 
     28 CB          2.7406  -26.2090  -42.6803 C.3       9 UNK        -0.1800 
     29 N           3.1990  -23.8373  -43.0881 N.am      9 UNK        -0.5000 
     30 C           3.0275  -22.5177  -43.2575 C.2       8 UNK         0.5000 
     31 O           1.9222  -21.9779  -43.3443 O.2       8 UNK        -0.5000 
     32 CA          4.3114  -21.6891  -43.4508 C.3       8 UNK         0.1400 
     33 CB          4.7801  -21.7840  -44.9124 C.3       8 UNK        -0.1800 
     34 N           4.1424  -20.2748  -43.1183 N.am      8 UNK        -0.5000 
     35 C           3.8876  -19.7733  -41.9015 C.2       7 UNK         0.5000 
     36 O           3.7705  -20.4703  -40.8921 O.2       7 UNK        -0.5000 
     37 CA          3.7854  -18.2355  -41.7838 C.3       7 UNK         0.1400 
     38 CB          4.6135  -17.7102  -40.5976 C.3       7 UNK        -0.1800 
     39 N           4.2426  -17.5590  -43.0035 N.am      7 UNK        -0.5000 
     40 C           3.4431  -17.0261  -43.9335 C.2       6 UNK         0.5000 
     41 O           2.2148  -16.9783  -43.8414 O.2       6 UNK        -0.5000 
     42 CA          4.1363  -16.4888  -45.1951 C.3       6 UNK         0.1400 
     43 CB          4.7866  -17.6363  -45.9968 C.3       6 UNK        -0.1800 
     44 N           3.1452  -15.7875  -46.0068 N.am      6 UNK        -0.5000 
     45 C           3.4058  -14.9258  -46.9985 C.2       5 UNK         0.5000 
     46 O           4.5463  -14.6543  -47.3758 O.2       5 UNK        -0.5000 
     47 CA          2.2103  -14.2278  -47.6774 C.3       5 UNK         0.1400 
     48 CB          2.0070  -14.7395  -49.1134 C.3       5 UNK        -0.1800 
     49 N           0.9616  -14.3961  -46.9271 N.am      5 UNK        -0.5000 
     50 C           0.3616  -13.4221  -46.2340 C.2       4 UNK         0.5000 
     51 O           0.7574  -12.2550  -46.1847 O.2       4 UNK        -0.5000 
     52 CA         -0.9004  -13.8157  -45.4622 C.3       4 UNK         0.1400 
     53 CB         -0.5733  -14.1797  -44.0035 C.3       4 UNK        -0.1800 
     54 N          -1.8508  -12.7128  -45.5224 N.am      4 UNK        -0.5000 
     55 C          -3.1743  -12.8268  -45.3569 C.2       3 UNK         0.5000 
     56 O          -3.7450  -13.8780  -45.0669 O.2       3 UNK        -0.5000 
     57 CA         -4.0008  -11.5662  -45.6311 C.3       3 UNK         0.1400 
     58 CB         -3.7076  -10.4470  -44.6152 C.3       3 UNK        -0.1800 
     59 N          -3.7271  -11.1179  -46.9929 N.am      3 UNK        -0.5000 
     60 C          -4.5683  -10.4261  -47.7690 C.2       2 UNK         0.5000 
     61 O          -5.6695  -10.0191  -47.3968 O.2       2 UNK        -0.5000 
     62 CA         -4.1009  -10.1467  -49.2108 C.3       2 UNK         0.1400 
     63 CB         -3.4529   -8.7565  -49.3030 C.3       2 UNK        -0.1800 
     64 N          -3.1531  -11.1488  -49.7105 N.am      2 UNK        -0.5000 
     65 C          -3.4974  -12.3775  -50.1209 C.2       1 UNK         0.5000 
     66 O          -4.6575  -12.7938  -50.1314 O.2       1 UNK        -0.5000 
     67 C          -2.6987  -22.4376  -44.6033 C.2       11 UNK         0.5000 
     68 O          -3.8072  -22.0247  -44.9466 O.2       11 UNK        -0.5000 
     69 N          -2.4962  -23.6242  -44.0124 N.am      12 UNK        -0.5000 
     70 CA         -3.5400  -24.6077  -43.7470 C.3       12 UNK         0.1400 
     71 CB         -3.2886  -25.2566  -42.3763 C.3       12 UNK        -0.1800 
     72 C          -3.5833  -25.6686  -44.8573 C.2       12 UNK         0.5000 
     73 O          -4.6506  -25.9077  -45.4241 O.2       12 UNK        -0.5000 
     74 N          -2.4301  -26.2878  -45.1493 N.am      13 UNK        -0.5000 
     75 CA         -2.2803  -27.3809  -46.1105 C.3       13 UNK         0.1400 
     76 CB         -0.8811  -28.0014  -45.9645 C.3       13 UNK        -0.1800 
     77 C          -2.5586  -26.9169  -47.5522 C.2       13 UNK         0.5000 
     78 O          -1.7271  -26.2316  -48.1464 O.2       13 UNK        -0.5000 
     79 N          -3.7427  -27.2832  -48.0623 N.am      14 UNK        -0.5000 
     80 CA         -4.3330  -26.8694  -49.3419 C.3       14 UNK         0.1400 
     81 CB         -3.4391  -27.2537  -50.5409 C.3       14 UNK        -0.1800 
     82 C          -4.7667  -25.3874  -49.3734 C.2       14 UNK         0.5000 
     83 O          -4.9532  -24.8387  -50.4606 O.2       14 UNK        -0.5000 
     84 N          -4.9464  -24.7752  -48.1910 N.am      15 UNK        -0.5000 
     85 CA         -5.4672  -23.4232  -47.9547 C.3       15 UNK         0.1400 
     86 CB         -6.9942  -23.4128  -48.1716 C.3       15 UNK        -0.1800 
     87 C          -4.7469  -22.3350  -48.7779 C.2       15 UNK         0.5000 
     88 O          -5.3904  -21.5986  -49.5287 O.2       15 UNK        -0.5000 
     89 N          -3.4126  -22.2935  -48.6669 N.am      16 UNK        -0.5000 
     90 CA         -2.5029  -21.4012  -49.3900 C.3       16 UNK         0.1400 
     91 CB         -2.7237  -19.9382  -48.9693 C.3       16 UNK        -0.1800 
     92 C          -2.5313  -21.6076  -50.9152 C.2       16 UNK         0.5000 
     93 O          -2.4107  -20.6406  -51.6705 O.2       16 UNK        -0.5000 
     94 N          -2.6974  -22.8720  -51.3305 N.am      17 UNK        -0.5000 
     95 CA         -2.8989  -23.3310  -52.7082 C.3       17 UNK         0.1400 
     96 CB         -1.6343  -23.0867  -53.5598 C.3       17 UNK        -0.1800 
     97 C          -4.1846  -22.7333  -53.3186 C.2       17 UNK         0.5000 
     98 O          -4.1697  -22.2500  -54.4503 O.2       17 UNK        -0.5000 
     99 N          -5.2652  -22.7581  -52.5239 N.am      18 UNK        -0.5000 
    100 CA        -6.5590  -22.1081  -52.7532 C.3       18 UNK         0.1400 
    101 CB        -7.2968  -22.7477  -53.9481 C.3       18 UNK        -0.1800 
    102 C         -6.4229  -20.5733  -52.8622 C.2       18 UNK         0.5000 
    103 O         -6.9045  -19.9713  -53.8239 O.2       18 UNK        -0.5000 
    104 N         -5.7564  -19.9807  -51.8596 N.am      19 UNK        -0.5000 
    105 CA        -5.4647  -18.5508  -51.6984 C.3       19 UNK         0.1400 
    106 CB        -6.7571  -17.7650  -51.3982 C.3       19 UNK        -0.1800 
    107 C         -4.6461  -17.9464  -52.8604 C.2       19 UNK         0.5000 
    108 O         -4.8780  -16.8020  -53.2533 O.2       19 UNK        -0.5000 
    109 N         -3.6795  -18.7171  -53.3723 N.am      20 UNK        -0.5000 
    110 CA        -2.7788  -18.3452  -54.4637 C.3       20 UNK         0.1400 
    111 CB        -2.7751  -19.4641  -55.5181 C.3       20 UNK        -0.1800 
    112 C         -1.3690  -18.0454  -53.9218 C.2       20 UNK         0.5000 
    113 O         -0.3716  -18.4061  -54.5506 O.2       20 UNK        -0.5000 
    114 N         -1.3130  -17.4063  -52.7434 N.am      21 UNK        -0.5000 
    115 CA        -0.1086  -16.9536  -52.0382 C.3       21 UNK         0.1400 
    116 CB         0.5545  -15.7864  -52.7979 C.3       21 UNK        -0.1800 
    117 C          0.8838  -18.0861  -51.7008 C.2       21 UNK         0.5000 
    118 O          2.0895  -17.8416  -51.6424 O.2       21 UNK        -0.5000 
    119 N          0.3590  -19.3011  -51.4844 N.am      22 UNK        -0.5000 
    120 CA         1.1246  -20.5398  -51.2543 C.3       22 UNK         0.1400 
    121 C          1.9228  -21.0367  -52.5004 C.2       22 UNK         0.5000 
    122 N          1.6515  -20.5482  -53.7065 N.am      22 UNK        -0.7600 
    123 O          2.7802  -21.9079  -52.3837 O.2       22 UNK        -0.5000 
    124 C124        1.9792  -20.5112  -49.9506 C.3       23 UNK        -0.0398 
    125 S125        0.9551  -20.3011  -48.4543 S.3       23 UNK        -0.2404 
    126 C126        1.2520  -18.5651  -48.0113 C.3       23 UNK        -0.0205 
    127 H127       -2.1142  -13.7524  -55.0835 H         1 UNK         0.0600 
    128 H128       -3.8139  -13.3589  -54.7975 H         1 UNK         0.0600 
    129 H129       -3.1399  -14.8738  -54.1884 H         1 UNK         0.0600 
    130 H130       -3.0202  -14.7369  -51.9599 H         1 UNK         0.3000 
    131 H131       -1.4493  -12.6733  -50.6720 H         1 UNK         0.0600 
    132 H132       -1.0040  -14.7624  -49.7531 H         1 UNK         0.0800 
    133 H133       -2.0269  -14.0354  -48.5641 H         1 UNK         0.0800 
    134 H134       -3.6536  -15.4337  -47.3957 H         1 UNK         0.0800 
    135 H135       -4.1604  -17.0320  -47.8771 H         1 UNK         0.0800 
    136 H136       -0.8997  -17.2655  -48.9872 H         1 UNK         0.1150 
    137 H137        0.7902  -18.6695  -45.3305 H         1 UNK         0.1150 
    138 H138       -3.0802  -16.8317  -45.3179 H         1 UNK         0.1150 
    139 H139       -0.2491  -17.9807  -43.2057 H         1 UNK         0.0800 
    140 H140       -1.7305  -17.0625  -43.2144 H         1 UNK         0.0800 
    141 H141       -0.8976  -21.3965  -42.7820 H         1 UNK         0.0800 
    142 H142       -0.0473  -20.3045  -43.8238 H         1 UNK         0.0800 
    143 H143       -1.6765  -20.9024  -45.7107 H         1 UNK         0.0600 
    144 H144        0.5177  -22.3820  -44.7673 H         1 UNK         0.3000 
    145 H145        0.4639  -25.1879  -46.8666 H         1 UNK         0.0600 
    146 H146        2.5876  -24.4548  -47.8660 H         1 UNK         0.0600 
    147 H147        1.2718  -23.5327  -48.5750 H         1 UNK         0.0600 
    148 H148        2.3030  -22.7911  -47.3552 H         1 UNK         0.0600 
    149 H149        2.5972  -24.1430  -45.3474 H         1 UNK         0.3000 
    150 H150        1.5260  -24.5457  -42.0777 H         1 UNK         0.0600 
    151 H151        1.9657  -26.9651  -42.5457 H         1 UNK         0.0600 
    152 H152        3.3459  -26.2024  -41.7737 H         1 UNK         0.0600 
    153 H153        3.3746  -26.5327  -43.5068 H         1 UNK         0.0600 
    154 H154        4.1405  -24.2010  -43.0480 H         1 UNK         0.3000 
    155 H155        5.0883  -22.0971  -42.8010 H         1 UNK         0.0600 
    156 H156        4.9696  -22.8186  -45.2013 H         1 UNK         0.0600 
    157 H157        5.7084  -21.2332  -45.0663 H         1 UNK         0.0600 
    158 H158        4.0347  -21.3825  -45.6009 H         1 UNK         0.0600 
    159 H159        4.1876  -19.6279  -43.8892 H         1 UNK         0.3000 
    160 H160        2.7363  -18.0022  -41.5908 H         1 UNK         0.0600 
    161 H161        5.6703  -17.9577  -40.7036 H         1 UNK         0.0600 
    162 H162        4.2681  -18.1367  -39.6551 H         1 UNK         0.0600 
    163 H163        4.5298  -16.6268  -40.5093 H         1 UNK         0.0600 
    164 H164        5.2417  -17.5547  -43.1556 H         1 UNK         0.3000 
    165 H165        4.9030  -15.7756  -44.8856 H         1 UNK         0.0600 
    166 H166        5.1923  -17.2882  -46.9464 H         1 UNK         0.0600 
    167 H167        5.6154  -18.0796  -45.4442 H         1 UNK         0.0600 
    168 H168        4.0774  -18.4352  -46.2100 H         1 UNK         0.0600 
    169 H169        2.1959  -15.9256  -45.6853 H         1 UNK         0.3000 
    170 H170        2.4758  -13.1708  -47.7450 H         1 UNK         0.0600 
    171 H171        1.2969  -14.1130  -49.6522 H         1 UNK         0.0600 
    172 H172        2.9404  -14.7204  -49.6776 H         1 UNK         0.0600 
    173 H173        1.6336  -15.7609  -49.1329 H         1 UNK         0.0600 
    174 H174        0.5594  -15.3229  -46.9234 H         1 UNK         0.3000 
    175 H175       -1.3441  -14.6728  -45.9614 H         1 UNK         0.0600 
    176 H176       -0.1449  -13.3333  -43.4656 H         1 UNK         0.0600 
    177 H177       -1.4647  -14.5021  -43.4657 H         1 UNK         0.0600 
    178 H178        0.1453  -14.9991  -43.9569 H         1 UNK         0.0600 
    179 H179       -1.4347  -11.8164  -45.7415 H         1 UNK         0.3000 
    180 H180       -5.0544  -11.8429  -45.5502 H         1 UNK         0.0600 
    181 H181       -2.6814  -10.0864  -44.6914 H         1 UNK         0.0600 
    182 H182       -3.8596  -10.7982  -43.5938 H         1 UNK         0.0600 
    183 H183       -4.3708   -9.5954  -44.7669 H         1 UNK         0.0600 
    184 H184       -2.8636  -11.4422  -47.4018 H         1 UNK         0.3000 
    185 H185       -4.9851  -10.1518  -49.8520 H         1 UNK         0.0600 
    186 H186       -4.1417   -7.9815  -48.9640 H         1 UNK         0.0600 
    187 H187       -2.5543   -8.6881  -48.6885 H         1 UNK         0.0600 
    188 H188       -3.1774   -8.5171  -50.3303 H         1 UNK         0.0600 
    189 H189       -2.1866  -10.8605  -49.7682 H         1 UNK         0.3000 
    190 H190       -1.5446  -23.9265  -43.8388 H         1 UNK         0.3000 
    191 H191       -4.5169  -24.1207  -43.7091 H         1 UNK         0.0600 
    192 H192       -3.3280  -24.5142  -41.5791 H         1 UNK         0.0600 
    193 H193       -4.0460  -26.0100  -42.1564 H         1 UNK         0.0600 
    194 H194       -2.3144  -25.7451  -42.3280 H         1 UNK         0.0600 
    195 H195       -1.5819  -25.9941  -44.6719 H         1 UNK         0.3000 
    196 H196       -3.0057  -28.1542  -45.8487 H         1 UNK         0.0600 
    197 H197       -0.7455  -28.8259  -46.6654 H         1 UNK         0.0600 
    198 H198       -0.7309  -28.3993  -44.9607 H         1 UNK         0.0600 
    199 H199       -0.0902  -27.2773  -46.1543 H         1 UNK         0.0600 
    200 H200       -4.3572  -27.8253  -47.4699 H         1 UNK         0.3000 
    201 H201       -5.2561  -27.4428  -49.4357 H         1 UNK         0.0600 
    202 H202       -3.1285  -28.2969  -50.4847 H         1 UNK         0.0600 
    203 H203       -2.5419  -26.6369  -50.5964 H         1 UNK         0.0600 
    204 H204       -3.9750  -27.1267  -51.4822 H         1 UNK         0.0600 
    205 H205       -4.7583  -25.3120  -47.3502 H         1 UNK         0.3000 
    206 H206       -5.2793  -23.1954  -46.9050 H         1 UNK         0.0600 
    207 H207       -7.4866  -24.1496  -47.5371 H         1 UNK         0.0600 
    208 H208       -7.4178  -22.4384  -47.9254 H         1 UNK         0.0600 
    209 H209       -7.2566  -23.6330  -49.2072 H         1 UNK         0.0600 
    210 H210       -2.9421  -22.9400  -48.0378 H         1 UNK         0.3000 
    211 H211       -1.4948  -21.6777  -49.0874 H         1 UNK         0.0600 
    212 H212       -3.7383  -19.5963  -49.1619 H         1 UNK         0.0600 
    213 H213       -2.0487  -19.2751  -49.5079 H         1 UNK         0.0600 
    214 H214       -2.5281  -19.8119  -47.9048 H         1 UNK         0.0600 
    215 H215       -2.8308  -23.5774  -50.6189 H         1 UNK         0.3000 
    216 H216       -3.0584  -24.4090  -52.6559 H         1 UNK         0.0600 
    217 H217       -1.7509  -23.5045  -54.5602 H         1 UNK         0.0600 
    218 H218       -0.7614  -23.5601  -53.1105 H         1 UNK         0.0600 
    219 H219       -1.4133  -22.0257  -53.6735 H         1 UNK         0.0600 
    220 H220       -5.1685  -23.2255  -51.6267 H         1 UNK         0.3000 
    221 H221       -7.1560  -22.2995  -51.8602 H         1 UNK         0.0600 
    222 H222       -6.7833  -22.5630  -54.8920 H         1 UNK         0.0600 
    223 H223       -7.3890  -23.8264  -53.8216 H         1 UNK         0.0600 
    224 H224       -8.3056  -22.3443  -54.0421 H         1 UNK         0.0600 
    225 H225       -5.4457  -20.5759  -51.0939 H         1 UNK         0.3000 
    226 H226       -4.8277  -18.4682  -50.8185 H         1 UNK         0.0600 
    227 H227       -7.2930  -18.1973  -50.5532 H         1 UNK         0.0600 
    228 H228       -6.5335  -16.7286  -51.1421 H         1 UNK         0.0600 
    229 H229       -7.4318  -17.7536  -52.2547 H         1 UNK         0.0600 
    230 H230       -3.4820  -19.6080  -52.9239 H         1 UNK         0.3000 
    231 H231       -3.1298  -17.4342  -54.9520 H         1 UNK         0.0600 
    232 H232       -2.3363  -20.3813  -55.1262 H         1 UNK         0.0600 
    233 H233       -2.1991  -19.1738  -56.3973 H         1 UNK         0.0600 
    234 H234       -3.7869  -19.6941  -55.8529 H         1 UNK         0.0600 
    235 H235       -2.1905  -17.2132  -52.2834 H         1 UNK         0.3000 
    236 H236       -0.4466  -16.5642  -51.0813 H         1 UNK         0.0600 
    237 H237       -0.1612  -14.9930  -53.0084 H         1 UNK         0.0600 
    238 H238        1.3610  -15.3437  -52.2122 H         1 UNK         0.0600 
    239 H239        0.9801  -16.1133  -53.7470 H         1 UNK         0.0600 
    240 H240       -0.6414  -19.4258  -51.5868 H         1 UNK         0.3000 
    241 H241        0.3727  -21.3155  -51.1139 H         1 UNK         0.0600 
    242 H242        2.1677  -20.8888  -54.5015 H         1 UNK         0.3800 
    243 H243        0.9520  -19.8262  -53.8394 H         1 UNK         0.3800 
    244 H244        2.5135  -21.4543  -49.8277 H         1 UNK         0.0800 
    245 H245        2.7493  -19.7408  -49.9939 H         1 UNK         0.0800 
    246 H246        2.1620  -18.4908  -47.4187 H         1 UNK         0.0800 
    247 H247        1.4213  -17.9797  -48.9116 H         1 UNK         0.0800 
@<TRIPOS>BOND
     1    1    2 1    
     2    1  127 1    
     3    1  128 1    
     4    1  129 1    
     5    2    3 2    
     6    2    4 am   BACKBONE|DICT|INTERRES
     7    4    5 1    
     8    4  130 1    
     9    5    6 1    
    10    5   65 1    
    11    5  131 1    
    12    6    7 1    
    13    6  132 1    
    14    6  133 1    
    15    7    8 1    
    16    8    9 1    
    17    8  134 1    
    18    8  135 1    
    19    9   10 ar   
    20    9   14 ar   
    21   10   11 ar   
    22   10  136 1    
    23   11   12 ar   
    24   11  126 1    
    25   12   13 ar   
    26   12  137 1    
    27   13   14 ar   
    28   13   15 1    
    29   14  138 1    
    30   15   16 1    
    31   15  139 1    
    32   15  140 1    
    33   16   17 1    
    34   17   18 1    
    35   17  141 1    
    36   17  142 1    
    37   18   19 1    
    38   18   67 1    
    39   18  143 1    
    40   19   20 am   BACKBONE|DICT|INTERRES
    41   19  144 1    
    42   20   21 2    
    43   20   22 1    
    44   22   23 1    
    45   22   24 1    
    46   22  145 1    
    47   23  146 1    
    48   23  147 1    
    49   23  148 1    
    50   24   25 am   BACKBONE|DICT|INTERRES
    51   24  149 1    
    52   25   26 2    
    53   25   27 1    
    54   27   28 1    
    55   27   29 1    
    56   27  150 1    
    57   28  151 1    
    58   28  152 1    
    59   28  153 1    
    60   29   30 am   BACKBONE|DICT|INTERRES
    61   29  154 1    
    62   30   31 2    
    63   30   32 1    
    64   32   33 1    
    65   32   34 1    
    66   32  155 1    
    67   33  156 1    
    68   33  157 1    
    69   33  158 1    
    70   34   35 am   BACKBONE|DICT|INTERRES
    71   34  159 1    
    72   35   36 2    
    73   35   37 1    
    74   37   38 1    
    75   37   39 1    
    76   37  160 1    
    77   38  161 1    
    78   38  162 1    
    79   38  163 1    
    80   39   40 am   BACKBONE|DICT|INTERRES
    81   39  164 1    
    82   40   41 2    
    83   40   42 1    
    84   42   43 1    
    85   42   44 1    
    86   42  165 1    
    87   43  166 1    
    88   43  167 1    
    89   43  168 1    
    90   44   45 am   BACKBONE|DICT|INTERRES
    91   44  169 1    
    92   45   46 2    
    93   45   47 1    
    94   47   48 1    
    95   47   49 1    
    96   47  170 1    
    97   48  171 1    
    98   48  172 1    
    99   48  173 1    
   100   49   50 am   BACKBONE|DICT|INTERRES
   101   49  174 1    
   102   50   51 2    
   103   50   52 1    
   104   52   53 1    
   105   52   54 1    
   106   52  175 1    
   107   53  176 1    
   108   53  177 1    
   109   53  178 1    
   110   54   55 am   BACKBONE|DICT|INTERRES
   111   54  179 1    
   112   55   56 2    
   113   55   57 1    
   114   57   58 1    
   115   57   59 1    
   116   57  180 1    
   117   58  181 1    
   118   58  182 1    
   119   58  183 1    
   120   59   60 am   BACKBONE|DICT|INTERRES
   121   59  184 1    
   122   60   61 2    
   123   60   62 1    
   124   62   63 1    
   125   62   64 1    
   126   62  185 1    
   127   63  186 1    
   128   63  187 1    
   129   63  188 1    
   130   64   65 am   BACKBONE|DICT|INTERRES
   131   64  189 1    
   132   65   66 2    
   133   67   68 2    
   134   67   69 am   BACKBONE|DICT|INTERRES
   135   69   70 1    
   136   69  190 1    
   137   70   71 1    
   138   70   72 1    
   139   70  191 1    
   140   71  192 1    
   141   71  193 1    
   142   71  194 1    
   143   72   73 2    
   144   72   74 am   BACKBONE|DICT|INTERRES
   145   74   75 1    
   146   74  195 1    
   147   75   76 1    
   148   75   77 1    
   149   75  196 1    
   150   76  197 1    
   151   76  198 1    
   152   76  199 1    
   153   77   78 2    
   154   77   79 am   BACKBONE|DICT|INTERRES
   155   79   80 1    
   156   79  200 1    
   157   80   81 1    
   158   80   82 1    
   159   80  201 1    
   160   81  202 1    
   161   81  203 1    
   162   81  204 1    
   163   82   83 2    
   164   82   84 am   BACKBONE|DICT|INTERRES
   165   84   85 1    
   166   84  205 1    
   167   85   86 1    
   168   85   87 1    
   169   85  206 1    
   170   86  207 1    
   171   86  208 1    
   172   86  209 1    
   173   87   88 2    
   174   87   89 am   BACKBONE|DICT|INTERRES
   175   89   90 1    
   176   89  210 1    
   177   90   91 1    
   178   90   92 1    
   179   90  211 1    
   180   91  212 1    
   181   91  213 1    
   182   91  214 1    
   183   92   93 2    
   184   92   94 am   BACKBONE|DICT|INTERRES
   185   94   95 1    
   186   94  215 1    
   187   95   96 1    
   188   95   97 1    
   189   95  216 1    
   190   96  217 1    
   191   96  218 1    
   192   96  219 1    
   193   97   98 2    
   194   97   99 am   BACKBONE|DICT|INTERRES
   195   99  100 1    
   196   99  220 1    
   197  100  101 1    
   198  100  102 1    
   199  100  221 1    
   200  101  222 1    
   201  101  223 1    
   202  101  224 1    
   203  102  103 2    
   204  102  104 am   BACKBONE|DICT|INTERRES
   205  104  105 1    
   206  104  225 1    
   207  105  106 1    
   208  105  107 1    
   209  105  226 1    
   210  106  227 1    
   211  106  228 1    
   212  106  229 1    
   213  107  108 2    
   214  107  109 am   BACKBONE|DICT|INTERRES
   215  109  110 1    
   216  109  230 1    
   217  110  111 1    
   218  110  112 1    
   219  110  231 1    
   220  111  232 1    
   221  111  233 1    
   222  111  234 1    
   223  112  113 2    
   224  112  114 am   BACKBONE|DICT|INTERRES
   225  114  115 1    
   226  114  235 1    
   227  115  116 1    
   228  115  117 1    
   229  115  236 1    
   230  116  237 1    
   231  116  238 1    
   232  116  239 1    
   233  117  118 2    
   234  117  119 am   BACKBONE|DICT|INTERRES
   235  119  120 1    
   236  119  240 1    
   237  120  121 1    
   238  120  124 1    
   239  120  241 1    
   240  121  122 am   BACKBONE|DICT|INTERRES
   241  121  123 2    
   242  122  242 1    
   243  122  243 1    
   244  124  125 1    
   245  124  244 1    
   246  124  245 1    
   247  125  126 1    
   248  126  246 1    
   249  126  247 1    
@<TRIPOS>SUBSTRUCTURE
     1 UNK         1 GROUP             0       ****    0 ROOT    
