@<TRIPOS>MOLECULE
3R540
247   249    1
SMALL
USER_CHARGES


@<TRIPOS>ATOM
      1 CA         -8.1196  -13.7727  -47.0884 C.3       0 UNK        -0.1800 
      2 C          -6.9353  -12.9372  -47.5543 C.2       0 UNK         0.5000 
      3 O          -6.9706  -11.7109  -47.4487 O.2       0 UNK        -0.5000 
      4 N          -5.8924  -13.5951  -48.0749 N.am      1 UNK        -0.5000 
      5 CA         -4.6377  -12.9760  -48.5086 C.3       1 UNK         0.1400 
      6 C6         -3.8359  -13.9414  -49.4104 C.3       23 UNK        -0.0398 
      7 S7         -2.5224  -13.1126  -50.3677 S.3       23 UNK        -0.2404 
      8 C8         -2.2708  -14.3018  -51.7252 C.3       23 UNK        -0.0205 
      9 C9         -1.5163  -15.5424  -51.2683 C.ar      23 UNK        -0.0193 
     10 C10        -0.1290  -15.6196  -51.4188 C.ar      23 UNK        -0.1150 
     11 C11         0.5681  -16.7635  -51.0174 C.ar      23 UNK        -0.0193 
     12 C12        -0.1310  -17.8348  -50.4545 C.ar      23 UNK        -0.1150 
     13 C13        -1.5185  -17.7695  -50.3022 C.ar      23 UNK        -0.0193 
     14 C14        -2.2046  -16.6234  -50.7127 C.ar      23 UNK        -0.1150 
     15 C15        -2.2894  -18.9386  -49.7188 C.3       23 UNK        -0.0205 
     16 S16        -2.4313  -18.8054  -47.9122 S.3       23 UNK        -0.2404 
     17 C17        -1.0366  -19.8402  -47.3646 C.3       23 UNK        -0.0398 
     18 CA         -1.4175  -21.3302  -47.1941 C.3       11 UNK         0.1400 
     19 N          -0.2288  -22.1746  -47.0690 N.am      11 UNK        -0.5000 
     20 C          -0.2277  -23.5093  -47.2019 C.2       10 UNK         0.5000 
     21 O          -1.2312  -24.1665  -47.4686 O.2       10 UNK        -0.5000 
     22 CA          1.1047  -24.2395  -46.9510 C.3       10 UNK         0.1400 
     23 CB          1.9285  -24.2970  -48.2455 C.3       10 UNK        -0.1800 
     24 N           1.9059  -23.6172  -45.8970 N.am      10 UNK        -0.5000 
     25 C           1.5243  -23.4790  -44.6187 C.2       9 UNK         0.5000 
     26 O           0.4814  -23.9493  -44.1655 O.2       9 UNK        -0.5000 
     27 CA          2.4275  -22.6162  -43.7141 C.3       9 UNK         0.1400 
     28 CB          3.3951  -23.5026  -42.9169 C.3       9 UNK        -0.1800 
     29 N           3.1921  -21.6021  -44.4507 N.am      9 UNK        -0.5000 
     30 C           2.6435  -20.6023  -45.1541 C.2       8 UNK         0.5000 
     31 O           1.4276  -20.4256  -45.2478 O.2       8 UNK        -0.5000 
     32 CA          3.6058  -19.6957  -45.9295 C.3       8 UNK         0.1400 
     33 CB          3.2479  -19.6645  -47.4266 C.3       8 UNK        -0.1800 
     34 N           3.5236  -18.3468  -45.3879 N.am      8 UNK        -0.5000 
     35 C           4.5708  -17.5729  -45.0799 C.2       7 UNK         0.5000 
     36 O           5.7448  -17.9190  -45.2207 O.2       7 UNK        -0.5000 
     37 CA          4.2622  -16.1738  -44.5149 C.3       7 UNK         0.1400 
     38 CB          3.9449  -15.1902  -45.6515 C.3       7 UNK        -0.1800 
     39 N           3.1627  -16.1702  -43.5503 N.am      7 UNK        -0.5000 
     40 C           3.2078  -16.7359  -42.3353 C.2       6 UNK         0.5000 
     41 O           4.1944  -17.3201  -41.8860 O.2       6 UNK        -0.5000 
     42 CA          1.9337  -16.6353  -41.4794 C.3       6 UNK         0.1400 
     43 CB          1.8707  -15.2880  -40.7422 C.3       6 UNK        -0.1800 
     44 N           0.7347  -16.8033  -42.2986 N.am      6 UNK        -0.5000 
     45 C           0.2200  -17.9943  -42.6356 C.2       5 UNK         0.5000 
     46 O           0.6416  -19.0652  -42.1994 O.2       5 UNK        -0.5000 
     47 CA         -0.9607  -17.9942  -43.6275 C.3       5 UNK         0.1400 
     48 CB         -2.3021  -18.0427  -42.8801 C.3       5 UNK        -0.1800 
     49 N          -0.9681  -16.8393  -44.5281 N.am      5 UNK        -0.5000 
     50 C          -0.0502  -16.5954  -45.4736 C.2       4 UNK         0.5000 
     51 O           0.8991  -17.3363  -45.7157 O.2       4 UNK        -0.5000 
     52 CA         -0.1778  -15.2651  -46.2329 C.3       4 UNK         0.1400 
     53 CB         -1.0667  -15.4283  -47.4650 C.3       4 UNK        -0.1800 
     54 N          -0.6835  -14.1689  -45.4053 N.am      4 UNK        -0.5000 
     55 C          -0.0218  -13.6560  -44.3583 C.2       3 UNK         0.5000 
     56 O           1.0247  -14.1450  -43.9283 O.2       3 UNK        -0.5000 
     57 CA         -0.6292  -12.4252  -43.6506 C.3       3 UNK         0.1400 
     58 CB          0.4554  -11.4221  -43.2069 C.3       3 UNK        -0.1800 
     59 N          -1.6919  -11.7431  -44.4017 N.am      3 UNK        -0.5000 
     60 C          -1.5993  -11.1281  -45.5904 C.2       2 UNK         0.5000 
     61 O          -0.5705  -11.0613  -46.2654 O.2       2 UNK        -0.5000 
     62 CA         -2.9006  -10.4916  -46.1150 C.3       2 UNK         0.1400 
     63 CB         -2.6755   -9.0255  -46.5202 C.3       2 UNK        -0.1800 
     64 N          -3.4944  -11.2110  -47.2442 N.am      2 UNK        -0.5000 
     65 C          -3.8360  -12.5069  -47.2736 C.2       1 UNK         0.5000 
     66 O          -3.5848  -13.3112  -46.3716 O.2       1 UNK        -0.5000 
     67 C          -2.3988  -21.5681  -46.0285 C.2       11 UNK         0.5000 
     68 O          -3.6064  -21.6522  -46.2612 O.2       11 UNK        -0.5000 
     69 N          -1.8607  -21.7323  -44.8111 N.am      12 UNK        -0.5000 
     70 CA         -2.6281  -22.0928  -43.6196 C.3       12 UNK         0.1400 
     71 CB         -1.7464  -21.9521  -42.3689 C.3       12 UNK        -0.1800 
     72 C          -3.2121  -23.5134  -43.7216 C.2       12 UNK         0.5000 
     73 O          -4.4006  -23.7006  -43.4614 O.2       12 UNK        -0.5000 
     74 N          -2.3732  -24.4767  -44.1296 N.am      13 UNK        -0.5000 
     75 CA         -2.7269  -25.8887  -44.2873 C.3       13 UNK         0.1400 
     76 CB         -1.4562  -26.7011  -44.5786 C.3       13 UNK        -0.1800 
     77 C          -3.7894  -26.1378  -45.3735 C.2       13 UNK         0.5000 
     78 O          -4.7036  -26.9339  -45.1566 O.2       13 UNK        -0.5000 
     79 N          -3.6631  -25.4428  -46.5117 N.am      14 UNK        -0.5000 
     80 CA         -4.5898  -25.5277  -47.6421 C.3       14 UNK         0.1400 
     81 CB         -3.8543  -25.0870  -48.9158 C.3       14 UNK        -0.1800 
     82 C          -5.8698  -24.6907  -47.4565 C.2       14 UNK         0.5000 
     83 O          -6.7650  -24.7886  -48.2951 O.2       14 UNK        -0.5000 
     84 N          -5.9273  -23.8625  -46.4022 N.am      15 UNK        -0.5000 
     85 CA         -6.9971  -22.9095  -46.0870 C.3       15 UNK         0.1400 
     86 CB         -8.2941  -23.6476  -45.6953 C.3       15 UNK        -0.1800 
     87 C          -7.1957  -21.8800  -47.2195 C.2       15 UNK         0.5000 
     88 O          -8.3044  -21.7079  -47.7279 O.2       15 UNK        -0.5000 
     89 N          -6.0813  -21.2476  -47.6098 N.am      16 UNK        -0.5000 
     90 CA         -5.9220  -20.2288  -48.6525 C.3       16 UNK         0.1400 
     91 CB         -6.8409  -19.0128  -48.4186 C.3       16 UNK        -0.1800 
     92 C          -5.9942  -20.7435  -50.1043 C.2       16 UNK         0.5000 
     93 O          -5.7552  -19.9577  -51.0216 O.2       16 UNK        -0.5000 
     94 N          -6.2588  -22.0411  -50.3166 N.am      17 UNK        -0.5000 
     95 CA         -6.3514  -22.6510  -51.6496 C.3       17 UNK         0.1400 
     96 CB         -7.0293  -24.0242  -51.5370 C.3       17 UNK        -0.1800 
     97 C          -4.9988  -22.7675  -52.3854 C.2       17 UNK         0.5000 
     98 O          -4.9880  -22.9402  -53.6043 O.2       17 UNK        -0.5000 
     99 N          -3.8843  -22.6537  -51.6484 N.am      18 UNK        -0.5000 
    100 CA        -2.5161  -22.7154  -52.1710 C.3       18 UNK         0.1400 
    101 CB        -1.5515  -23.0685  -51.0264 C.3       18 UNK        -0.1800 
    102 C         -2.0508  -21.4302  -52.8861 C.2       18 UNK         0.5000 
    103 O         -0.9234  -21.4072  -53.3769 O.2       18 UNK        -0.5000 
    104 N         -2.8922  -20.3862  -52.9455 N.am      19 UNK        -0.5000 
    105 CA        -2.5917  -19.0537  -53.4931 C.3       19 UNK         0.1400 
    106 CB        -3.8511  -18.1806  -53.3804 C.3       19 UNK        -0.1800 
    107 C         -2.0457  -19.0137  -54.9364 C.2       19 UNK         0.5000 
    108 O         -1.4147  -18.0270  -55.3160 O.2       19 UNK        -0.5000 
    109 N         -2.2792  -20.0811  -55.7094 N.am      20 UNK        -0.5000 
    110 CA        -1.7395  -20.2735  -57.0537 C.3       20 UNK         0.1400 
    111 CB        -2.5169  -21.4117  -57.7333 C.3       20 UNK        -0.1800 
    112 C         -0.2231  -20.5660  -57.0888 C.2       20 UNK         0.5000 
    113 O          0.3855  -20.3736  -58.1428 O.2       20 UNK        -0.5000 
    114 N          0.3576  -21.0435  -55.9768 N.am      21 UNK        -0.5000 
    115 CA         1.7535  -21.4921  -55.9085 C.3       21 UNK         0.1400 
    116 CB         1.7923  -23.0187  -56.0965 C.3       21 UNK        -0.1800 
    117 C          2.4891  -21.0902  -54.6160 C.2       21 UNK         0.5000 
    118 O          3.7213  -21.0998  -54.6156 O.2       21 UNK        -0.5000 
    119 N          1.7520  -20.7616  -53.5474 N.am      22 UNK        -0.5000 
    120 CA         2.2535  -20.5288  -52.1820 C.3       22 UNK         0.1400 
    121 C          2.8036  -21.8377  -51.5284 C.2       22 UNK         0.5000 
    122 N          3.7462  -21.7663  -50.5960 N.am      22 UNK        -0.7600 
    123 O          2.3440  -22.9377  -51.8268 O.2       22 UNK        -0.5000 
    124 C124        3.2123  -19.3057  -52.0589 C.3       23 UNK        -0.0398 
    125 S125        2.5201  -17.7448  -52.7113 S.3       23 UNK        -0.2404 
    126 C126        2.0755  -16.8371  -51.1935 C.3       23 UNK        -0.0205 
    127 H127       -7.9545  -14.8380  -47.2520 H         1 UNK         0.0600 
    128 H128       -9.0202  -13.4816  -47.6289 H         1 UNK         0.0600 
    129 H129       -8.2936  -13.6155  -46.0239 H         1 UNK         0.0600 
    130 H130       -5.9129  -14.6043  -48.0982 H         1 UNK         0.3000 
    131 H131       -4.9019  -12.1022  -49.1090 H         1 UNK         0.0600 
    132 H132       -4.5162  -14.4031  -50.1274 H         1 UNK         0.0800 
    133 H133       -3.4137  -14.7622  -48.8325 H         1 UNK         0.0800 
    134 H134       -1.7151  -13.8059  -52.5224 H         1 UNK         0.0800 
    135 H135       -3.2311  -14.5824  -52.1606 H         1 UNK         0.0800 
    136 H136        0.4084  -14.7889  -51.8543 H         1 UNK         0.1150 
    137 H137        0.4053  -18.7176  -50.1404 H         1 UNK         0.1150 
    138 H138       -3.2781  -16.5756  -50.6007 H         1 UNK         0.1150 
    139 H139       -3.2913  -18.9619  -50.1478 H         1 UNK         0.0800 
    140 H140       -1.8210  -19.8818  -50.0005 H         1 UNK         0.0800 
    141 H141       -0.6531  -19.4308  -46.4324 H         1 UNK         0.0800 
    142 H142       -0.2233  -19.7376  -48.0827 H         1 UNK         0.0800 
    143 H143       -1.9359  -21.6437  -48.1010 H         1 UNK         0.0600 
    144 H144        0.6150  -21.7110  -46.7564 H         1 UNK         0.3000 
    145 H145        0.8748  -25.2607  -46.6417 H         1 UNK         0.0600 
    146 H146        2.8424  -24.8750  -48.1082 H         1 UNK         0.0600 
    147 H147        1.3624  -24.7709  -49.0489 H         1 UNK         0.0600 
    148 H148        2.2077  -23.3002  -48.5885 H         1 UNK         0.0600 
    149 H149        2.7854  -23.2099  -46.1768 H         1 UNK         0.3000 
    150 H150        1.7774  -22.0947  -43.0079 H         1 UNK         0.0600 
    151 H151        2.8518  -24.2522  -42.3397 H         1 UNK         0.0600 
    152 H152        3.9800  -22.9127  -42.2109 H         1 UNK         0.0600 
    153 H153        4.0894  -24.0315  -43.5711 H         1 UNK         0.0600 
    154 H154        4.1980  -21.6859  -44.4168 H         1 UNK         0.3000 
    155 H155        4.6173  -20.0938  -45.8260 H         1 UNK         0.0600 
    156 H156        2.2628  -19.2272  -47.5961 H         1 UNK         0.0600 
    157 H157        3.2404  -20.6696  -47.8496 H         1 UNK         0.0600 
    158 H158        3.9722  -19.0765  -47.9901 H         1 UNK         0.0600 
    159 H159        2.5775  -17.9852  -45.2738 H         1 UNK         0.3000 
    160 H160        5.1567  -15.8169  -44.0002 H         1 UNK         0.0600 
    161 H161        3.0805  -15.5133  -46.2310 H         1 UNK         0.0600 
    162 H162        4.7867  -15.1071  -46.3400 H         1 UNK         0.0600 
    163 H163        3.7377  -14.1915  -45.2664 H         1 UNK         0.0600 
    164 H164        2.3292  -15.6562  -43.8151 H         1 UNK         0.3000 
    165 H165        1.9709  -17.4247  -40.7254 H         1 UNK         0.0600 
    166 H166        0.9806  -15.2229  -40.1163 H         1 UNK         0.0600 
    167 H167        2.7361  -15.1626  -40.0902 H         1 UNK         0.0600 
    168 H168        1.8580  -14.4440  -41.4318 H         1 UNK         0.0600 
    169 H169        0.3624  -15.9699  -42.7320 H         1 UNK         0.3000 
    170 H170       -0.8731  -18.9004  -44.2281 H         1 UNK         0.0600 
    171 H171       -2.3340  -18.8715  -42.1729 H         1 UNK         0.0600 
    172 H172       -2.4800  -17.1272  -42.3147 H         1 UNK         0.0600 
    173 H173       -3.1324  -18.1778  -43.5736 H         1 UNK         0.0600 
    174 H174       -1.7099  -16.1667  -44.4008 H         1 UNK         0.3000 
    175 H175        0.8182  -14.9839  -46.5785 H         1 UNK         0.0600 
    176 H176       -2.0823  -15.7141  -47.1903 H         1 UNK         0.0600 
    177 H177       -1.1105  -14.5056  -48.0427 H         1 UNK         0.0600 
    178 H178       -0.6703  -16.2022  -48.1208 H         1 UNK         0.0600 
    179 H179       -1.5572  -13.7417  -45.6911 H         1 UNK         0.3000 
    180 H180       -1.1034  -12.8119  -42.7476 H         1 UNK         0.0600 
    181 H181        0.0169  -10.5707  -42.6866 H         1 UNK         0.0600 
    182 H182        1.0254  -11.0410  -44.0546 H         1 UNK         0.0600 
    183 H183        1.1646  -11.8876  -42.5213 H         1 UNK         0.0600 
    184 H184       -2.6029  -11.7740  -43.9646 H         1 UNK         0.3000 
    185 H185       -3.6371  -10.4988  -45.3089 H         1 UNK         0.0600 
    186 H186       -3.6150   -8.5392  -46.7840 H         1 UNK         0.0600 
    187 H187       -2.2360   -8.4565  -45.6999 H         1 UNK         0.0600 
    188 H188       -2.0027   -8.9421  -47.3748 H         1 UNK         0.0600 
    189 H189       -3.7265  -10.6416  -48.0448 H         1 UNK         0.3000 
    190 H190       -0.8564  -21.6797  -44.7117 H         1 UNK         0.3000 
    191 H191       -3.4588  -21.3893  -43.5301 H         1 UNK         0.0600 
    192 H192       -2.3333  -22.1057  -41.4627 H         1 UNK         0.0600 
    193 H193       -1.3015  -20.9610  -42.3044 H         1 UNK         0.0600 
    194 H194       -0.9333  -22.6774  -42.3556 H         1 UNK         0.0600 
    195 H195       -1.3972  -24.2362  -44.2839 H         1 UNK         0.3000 
    196 H196       -3.1389  -26.2333  -43.3366 H         1 UNK         0.0600 
    197 H197       -0.9861  -26.3891  -45.5114 H         1 UNK         0.0600 
    198 H198       -0.7229  -26.5870  -43.7800 H         1 UNK         0.0600 
    199 H199       -1.6826  -27.7646  -44.6638 H         1 UNK         0.0600 
    200 H200       -2.8488  -24.8487  -46.6431 H         1 UNK         0.3000 
    201 H201       -4.8947  -26.5683  -47.7708 H         1 UNK         0.0600 
    202 H202       -3.5750  -24.0340  -48.8674 H         1 UNK         0.0600 
    203 H203       -4.4740  -25.2253  -49.8010 H         1 UNK         0.0600 
    204 H204       -2.9463  -25.6708  -49.0674 H         1 UNK         0.0600 
    205 H205       -5.1303  -23.8415  -45.7798 H         1 UNK         0.3000 
    206 H206       -6.6610  -22.3483  -45.2137 H         1 UNK         0.0600 
    207 H207       -8.1162  -24.3464  -44.8779 H         1 UNK         0.0600 
    208 H208       -9.0561  -22.9431  -45.3605 H         1 UNK         0.0600 
    209 H209       -8.7136  -24.2089  -46.5307 H         1 UNK         0.0600 
    210 H210       -5.2196  -21.4795  -47.1161 H         1 UNK         0.3000 
    211 H211       -4.9020  -19.8773  -48.5309 H         1 UNK         0.0600 
    212 H212       -6.5835  -18.1957  -49.0935 H         1 UNK         0.0600 
    213 H213       -6.7422  -18.6337  -47.4014 H         1 UNK         0.0600 
    214 H214       -7.8899  -19.2543  -48.5898 H         1 UNK         0.0600 
    215 H215       -6.4677  -22.6351  -49.5252 H         1 UNK         0.3000 
    216 H216       -6.9936  -22.0145  -52.2622 H         1 UNK         0.0600 
    217 H217       -6.4205  -24.7320  -50.9762 H         1 UNK         0.0600 
    218 H218       -7.2030  -24.4552  -52.5238 H         1 UNK         0.0600 
    219 H219       -7.9973  -23.9486  -51.0411 H         1 UNK         0.0600 
    220 H220       -3.9871  -22.5058  -50.6565 H         1 UNK         0.3000 
    221 H221       -2.4654  -23.5195  -52.9079 H         1 UNK         0.0600 
    222 H222       -1.7998  -24.0297  -50.5791 H         1 UNK         0.0600 
    223 H223       -1.5636  -22.3149  -50.2415 H         1 UNK         0.0600 
    224 H224       -0.5238  -23.1463  -51.3844 H         1 UNK         0.0600 
    225 H225       -3.8076  -20.4941  -52.5305 H         1 UNK         0.3000 
    226 H226       -1.8119  -18.6202  -52.8673 H         1 UNK         0.0600 
    227 H227       -4.6689  -18.5790  -53.9820 H         1 UNK         0.0600 
    228 H228       -4.1985  -18.1136  -52.3502 H         1 UNK         0.0600 
    229 H229       -3.6550  -17.1628  -53.7204 H         1 UNK         0.0600 
    230 H230       -2.8082  -20.8461  -55.3170 H         1 UNK         0.3000 
    231 H231       -1.9089  -19.3579  -57.6243 H         1 UNK         0.0600 
    232 H232       -2.3978  -22.3548  -57.1983 H         1 UNK         0.0600 
    233 H233       -2.1692  -21.5679  -58.7554 H         1 UNK         0.0600 
    234 H234       -3.5823  -21.1865  -57.7854 H         1 UNK         0.0600 
    235 H235       -0.2058  -21.1673  -55.1413 H         1 UNK         0.3000 
    236 H236        2.3255  -21.0379  -56.7202 H         1 UNK         0.0600 
    237 H237        1.3737  -23.3090  -57.0603 H         1 UNK         0.0600 
    238 H238        2.8159  -23.3940  -56.0613 H         1 UNK         0.0600 
    239 H239        1.2272  -23.5301  -55.3162 H         1 UNK         0.0600 
    240 H240        0.7433  -20.8716  -53.6015 H         1 UNK         0.3000 
    241 H241        1.3627  -20.2963  -51.5995 H         1 UNK         0.0600 
    242 H242        4.0834  -22.6252  -50.1915 H         1 UNK         0.3800 
    243 H243        4.1678  -20.8943  -50.3232 H         1 UNK         0.3800 
    244 H244        4.1448  -19.5017  -52.5892 H         1 UNK         0.0800 
    245 H245        3.4986  -19.1484  -51.0195 H         1 UNK         0.0800 
    246 H246        2.5282  -17.2847  -50.3083 H         1 UNK         0.0800 
    247 H247        2.4916  -15.8307  -51.2602 H         1 UNK         0.0800 
@<TRIPOS>BOND
     1    1    2 1    
     2    1  127 1    
     3    1  128 1    
     4    1  129 1    
     5    2    3 2    
     6    2    4 am   BACKBONE|DICT|INTERRES
     7    4    5 1    
     8    4  130 1    
     9    5    6 1    
    10    5   65 1    
    11    5  131 1    
    12    6    7 1    
    13    6  132 1    
    14    6  133 1    
    15    7    8 1    
    16    8    9 1    
    17    8  134 1    
    18    8  135 1    
    19    9   10 ar   
    20    9   14 ar   
    21   10   11 ar   
    22   10  136 1    
    23   11   12 ar   
    24   11  126 1    
    25   12   13 ar   
    26   12  137 1    
    27   13   14 ar   
    28   13   15 1    
    29   14  138 1    
    30   15   16 1    
    31   15  139 1    
    32   15  140 1    
    33   16   17 1    
    34   17   18 1    
    35   17  141 1    
    36   17  142 1    
    37   18   19 1    
    38   18   67 1    
    39   18  143 1    
    40   19   20 am   BACKBONE|DICT|INTERRES
    41   19  144 1    
    42   20   21 2    
    43   20   22 1    
    44   22   23 1    
    45   22   24 1    
    46   22  145 1    
    47   23  146 1    
    48   23  147 1    
    49   23  148 1    
    50   24   25 am   BACKBONE|DICT|INTERRES
    51   24  149 1    
    52   25   26 2    
    53   25   27 1    
    54   27   28 1    
    55   27   29 1    
    56   27  150 1    
    57   28  151 1    
    58   28  152 1    
    59   28  153 1    
    60   29   30 am   BACKBONE|DICT|INTERRES
    61   29  154 1    
    62   30   31 2    
    63   30   32 1    
    64   32   33 1    
    65   32   34 1    
    66   32  155 1    
    67   33  156 1    
    68   33  157 1    
    69   33  158 1    
    70   34   35 am   BACKBONE|DICT|INTERRES
    71   34  159 1    
    72   35   36 2    
    73   35   37 1    
    74   37   38 1    
    75   37   39 1    
    76   37  160 1    
    77   38  161 1    
    78   38  162 1    
    79   38  163 1    
    80   39   40 am   BACKBONE|DICT|INTERRES
    81   39  164 1    
    82   40   41 2    
    83   40   42 1    
    84   42   43 1    
    85   42   44 1    
    86   42  165 1    
    87   43  166 1    
    88   43  167 1    
    89   43  168 1    
    90   44   45 am   BACKBONE|DICT|INTERRES
    91   44  169 1    
    92   45   46 2    
    93   45   47 1    
    94   47   48 1    
    95   47   49 1    
    96   47  170 1    
    97   48  171 1    
    98   48  172 1    
    99   48  173 1    
   100   49   50 am   BACKBONE|DICT|INTERRES
   101   49  174 1    
   102   50   51 2    
   103   50   52 1    
   104   52   53 1    
   105   52   54 1    
   106   52  175 1    
   107   53  176 1    
   108   53  177 1    
   109   53  178 1    
   110   54   55 am   BACKBONE|DICT|INTERRES
   111   54  179 1    
   112   55   56 2    
   113   55   57 1    
   114   57   58 1    
   115   57   59 1    
   116   57  180 1    
   117   58  181 1    
   118   58  182 1    
   119   58  183 1    
   120   59   60 am   BACKBONE|DICT|INTERRES
   121   59  184 1    
   122   60   61 2    
   123   60   62 1    
   124   62   63 1    
   125   62   64 1    
   126   62  185 1    
   127   63  186 1    
   128   63  187 1    
   129   63  188 1    
   130   64   65 am   BACKBONE|DICT|INTERRES
   131   64  189 1    
   132   65   66 2    
   133   67   68 2    
   134   67   69 am   BACKBONE|DICT|INTERRES
   135   69   70 1    
   136   69  190 1    
   137   70   71 1    
   138   70   72 1    
   139   70  191 1    
   140   71  192 1    
   141   71  193 1    
   142   71  194 1    
   143   72   73 2    
   144   72   74 am   BACKBONE|DICT|INTERRES
   145   74   75 1    
   146   74  195 1    
   147   75   76 1    
   148   75   77 1    
   149   75  196 1    
   150   76  197 1    
   151   76  198 1    
   152   76  199 1    
   153   77   78 2    
   154   77   79 am   BACKBONE|DICT|INTERRES
   155   79   80 1    
   156   79  200 1    
   157   80   81 1    
   158   80   82 1    
   159   80  201 1    
   160   81  202 1    
   161   81  203 1    
   162   81  204 1    
   163   82   83 2    
   164   82   84 am   BACKBONE|DICT|INTERRES
   165   84   85 1    
   166   84  205 1    
   167   85   86 1    
   168   85   87 1    
   169   85  206 1    
   170   86  207 1    
   171   86  208 1    
   172   86  209 1    
   173   87   88 2    
   174   87   89 am   BACKBONE|DICT|INTERRES
   175   89   90 1    
   176   89  210 1    
   177   90   91 1    
   178   90   92 1    
   179   90  211 1    
   180   91  212 1    
   181   91  213 1    
   182   91  214 1    
   183   92   93 2    
   184   92   94 am   BACKBONE|DICT|INTERRES
   185   94   95 1    
   186   94  215 1    
   187   95   96 1    
   188   95   97 1    
   189   95  216 1    
   190   96  217 1    
   191   96  218 1    
   192   96  219 1    
   193   97   98 2    
   194   97   99 am   BACKBONE|DICT|INTERRES
   195   99  100 1    
   196   99  220 1    
   197  100  101 1    
   198  100  102 1    
   199  100  221 1    
   200  101  222 1    
   201  101  223 1    
   202  101  224 1    
   203  102  103 2    
   204  102  104 am   BACKBONE|DICT|INTERRES
   205  104  105 1    
   206  104  225 1    
   207  105  106 1    
   208  105  107 1    
   209  105  226 1    
   210  106  227 1    
   211  106  228 1    
   212  106  229 1    
   213  107  108 2    
   214  107  109 am   BACKBONE|DICT|INTERRES
   215  109  110 1    
   216  109  230 1    
   217  110  111 1    
   218  110  112 1    
   219  110  231 1    
   220  111  232 1    
   221  111  233 1    
   222  111  234 1    
   223  112  113 2    
   224  112  114 am   BACKBONE|DICT|INTERRES
   225  114  115 1    
   226  114  235 1    
   227  115  116 1    
   228  115  117 1    
   229  115  236 1    
   230  116  237 1    
   231  116  238 1    
   232  116  239 1    
   233  117  118 2    
   234  117  119 am   BACKBONE|DICT|INTERRES
   235  119  120 1    
   236  119  240 1    
   237  120  121 1    
   238  120  124 1    
   239  120  241 1    
   240  121  122 am   BACKBONE|DICT|INTERRES
   241  121  123 2    
   242  122  242 1    
   243  122  243 1    
   244  124  125 1    
   245  124  244 1    
   246  124  245 1    
   247  125  126 1    
   248  126  246 1    
   249  126  247 1    
@<TRIPOS>SUBSTRUCTURE
     1 UNK         1 GROUP             0       ****    0 ROOT    
