@<TRIPOS>MOLECULE
3R540
247   249    1
SMALL
USER_CHARGES


@<TRIPOS>ATOM
      1 CA          2.4540  -15.3433  -50.6627 C.3       0 UNK        -0.1800 
      2 C           1.9544  -15.7633  -49.2881 C.2       0 UNK         0.5000 
      3 O           2.1315  -16.9171  -48.9000 O.2       0 UNK        -0.5000 
      4 N           1.3284  -14.8324  -48.5542 N.am      1 UNK        -0.5000 
      5 CA          0.8023  -15.0548  -47.1985 C.3       1 UNK         0.1400 
      6 C6         -0.4797  -14.2212  -46.9313 C.3       23 UNK        -0.0398 
      7 S7         -1.7823  -15.1913  -46.0914 S.3       23 UNK        -0.2404 
      8 C8         -3.1094  -15.2570  -47.3429 C.3       23 UNK        -0.0205 
      9 C9         -2.9915  -16.4439  -48.2951 C.ar      23 UNK        -0.0193 
     10 C10        -1.9362  -16.5243  -49.2063 C.ar      23 UNK        -0.1150 
     11 C11        -1.8516  -17.5767  -50.1217 C.ar      23 UNK        -0.0193 
     12 C12        -2.8421  -18.5674  -50.1117 C.ar      23 UNK        -0.1150 
     13 C13        -3.9236  -18.4907  -49.2265 C.ar      23 UNK        -0.0193 
     14 C14        -3.9830  -17.4302  -48.3162 C.ar      23 UNK        -0.1150 
     15 C15        -5.0922  -19.4711  -49.3098 C.3       23 UNK        -0.0205 
     16 S16        -4.6279  -21.1928  -49.6902 S.3       23 UNK        -0.2404 
     17 C17        -4.2750  -21.8764  -48.0411 C.3       23 UNK        -0.0398 
     18 CA         -3.0005  -22.7505  -48.0654 C.3       11 UNK         0.1400 
     19 N          -1.7992  -21.9281  -48.2056 N.am      11 UNK        -0.5000 
     20 C          -0.5315  -22.3567  -48.2739 C.2       10 UNK         0.5000 
     21 O          -0.2069  -23.5435  -48.2813 O.2       10 UNK        -0.5000 
     22 CA          0.5520  -21.2617  -48.2505 C.3       10 UNK         0.1400 
     23 CB          0.9285  -20.8581  -49.6825 C.3       10 UNK        -0.1800 
     24 N           0.1307  -20.0688  -47.5063 N.am      10 UNK        -0.5000 
     25 C          -0.2109  -20.0611  -46.2095 C.2       9 UNK         0.5000 
     26 O          -0.1563  -21.0519  -45.4776 O.2       9 UNK        -0.5000 
     27 CA         -0.8286  -18.7591  -45.6786 C.3       9 UNK         0.1400 
     28 CB         -2.3559  -18.9118  -45.6104 C.3       9 UNK        -0.1800 
     29 N          -0.3484  -18.3694  -44.3562 N.am      9 UNK        -0.5000 
     30 C           0.9231  -18.1785  -43.9847 C.2       8 UNK         0.5000 
     31 O           1.8936  -18.3723  -44.7194 O.2       8 UNK        -0.5000 
     32 CA          1.1181  -17.6306  -42.5546 C.3       8 UNK         0.1400 
     33 CB          2.5996  -17.5071  -42.1603 C.3       8 UNK        -0.1800 
     34 N           0.4818  -16.3190  -42.4114 N.am      8 UNK        -0.5000 
     35 C          -0.8239  -16.1127  -42.1899 C.2       7 UNK         0.5000 
     36 O          -1.6227  -17.0364  -42.0231 O.2       7 UNK        -0.5000 
     37 CA         -1.3519  -14.6662  -42.1737 C.3       7 UNK         0.1400 
     38 CB         -1.9113  -14.2943  -40.7910 C.3       7 UNK        -0.1800 
     39 N          -0.3473  -13.6806  -42.5775 N.am      7 UNK        -0.5000 
     40 C          -0.5833  -12.6529  -43.4019 C.2       6 UNK         0.5000 
     41 O          -1.6917  -12.3838  -43.8695 O.2       6 UNK        -0.5000 
     42 CA          0.6347  -11.7738  -43.7438 C.3       6 UNK         0.1400 
     43 CB          0.3339  -10.6657  -44.7768 C.3       6 UNK        -0.1800 
     44 N           1.2580  -11.2179  -42.5414 N.am      6 UNK        -0.5000 
     45 C           0.7185  -10.3615  -41.6598 C.2       5 UNK         0.5000 
     46 O          -0.3994   -9.8562  -41.7753 O.2       5 UNK        -0.5000 
     47 CA          1.5991  -10.0316  -40.4354 C.3       5 UNK         0.1400 
     48 CB          0.8704   -9.2007  -39.3576 C.3       5 UNK        -0.1800 
     49 N           2.2032  -11.2385  -39.8591 N.am      5 UNK        -0.5000 
     50 C           1.5589  -12.2927  -39.3331 C.2       4 UNK         0.5000 
     51 O           0.3423  -12.3368  -39.1524 O.2       4 UNK        -0.5000 
     52 CA          2.4417  -13.5042  -38.9665 C.3       4 UNK         0.1400 
     53 CB          1.6406  -14.8131  -38.7941 C.3       4 UNK        -0.1800 
     54 N           3.5580  -13.6987  -39.9019 N.am      4 UNK        -0.5000 
     55 C           3.4786  -13.9836  -41.2107 C.2       3 UNK         0.5000 
     56 O           2.4131  -14.1007  -41.8223 O.2       3 UNK        -0.5000 
     57 CA          4.8315  -14.1551  -41.9337 C.3       3 UNK         0.1400 
     58 CB          5.7290  -15.1808  -41.2156 C.3       3 UNK        -0.1800 
     59 N           4.7005  -14.5795  -43.3254 N.am      3 UNK        -0.5000 
     60 C           4.3078  -13.8310  -44.3632 C.2       2 UNK         0.5000 
     61 O           3.9857  -12.6447  -44.2728 O.2       2 UNK        -0.5000 
     62 CA          4.3530  -14.5074  -45.7542 C.3       2 UNK         0.1400 
     63 CB          4.8666  -15.9661  -45.7289 C.3       2 UNK        -0.1800 
     64 N           3.0952  -14.4621  -46.5047 N.am      2 UNK        -0.5000 
     65 C           1.8807  -14.8683  -46.1023 C.2       1 UNK         0.5000 
     66 O           1.5962  -15.1164  -44.9334 O.2       1 UNK        -0.5000 
     67 C          -2.9781  -23.6915  -46.8438 C.2       11 UNK         0.5000 
     68 O          -3.5962  -24.7538  -46.9169 O.2       11 UNK        -0.5000 
     69 N          -2.2674  -23.3217  -45.7674 N.am      12 UNK        -0.5000 
     70 CA         -2.1165  -24.1561  -44.5733 C.3       12 UNK         0.1400 
     71 CB         -1.5724  -23.3030  -43.4176 C.3       12 UNK        -0.1800 
     72 C          -1.2144  -25.3818  -44.8150 C.2       12 UNK         0.5000 
     73 O          -1.4459  -26.4302  -44.2123 O.2       12 UNK        -0.5000 
     74 N          -0.2172  -25.2342  -45.6975 N.am      13 UNK        -0.5000 
     75 CA          0.6977  -26.3020  -46.0984 C.3       13 UNK         0.1400 
     76 CB          2.0643  -25.6908  -46.4457 C.3       13 UNK        -0.1800 
     77 C           0.1419  -27.0969  -47.2914 C.2       13 UNK         0.5000 
     78 O           0.2472  -28.3234  -47.3113 O.2       13 UNK        -0.5000 
     79 N          -0.4425  -26.3823  -48.2620 N.am      14 UNK        -0.5000 
     80 CA         -0.9673  -26.9319  -49.5126 C.3       14 UNK         0.1400 
     81 CB         -1.0332  -25.7968  -50.5452 C.3       14 UNK        -0.1800 
     82 C          -2.3452  -27.6084  -49.3783 C.2       14 UNK         0.5000 
     83 O          -2.7935  -28.2289  -50.3416 O.2       14 UNK        -0.5000 
     84 N          -3.0062  -27.4518  -48.2213 N.am      15 UNK        -0.5000 
     85 CA         -4.3680  -27.9058  -47.9132 C.3       15 UNK         0.1400 
     86 CB         -4.4552  -29.4464  -47.9026 C.3       15 UNK        -0.1800 
     87 C          -5.4034  -27.2369  -48.8407 C.2       15 UNK         0.5000 
     88 O          -6.1656  -27.9149  -49.5308 O.2       15 UNK        -0.5000 
     89 N          -5.3565  -25.8978  -48.8601 N.am      16 UNK        -0.5000 
     90 CA         -6.1750  -24.9551  -49.6351 C.3       16 UNK         0.1400 
     91 CB         -7.6771  -25.1402  -49.3431 C.3       16 UNK        -0.1800 
     92 C          -5.8913  -24.9140  -51.1510 C.2       16 UNK         0.5000 
     93 O          -6.4083  -24.0217  -51.8235 O.2       16 UNK        -0.5000 
     94 N          -5.0596  -25.8263  -51.6748 N.am      17 UNK        -0.5000 
     95 CA         -4.7399  -25.9328  -53.1033 C.3       17 UNK         0.1400 
     96 CB         -3.9841  -27.2445  -53.3590 C.3       17 UNK        -0.1800 
     97 C          -3.9475  -24.7344  -53.6632 C.2       17 UNK         0.5000 
     98 O          -4.0160  -24.4734  -54.8649 O.2       17 UNK        -0.5000 
     99 N          -3.2326  -24.0123  -52.7874 N.am      18 UNK        -0.5000 
    100 CA        -2.4591  -22.8160  -53.1268 C.3       18 UNK         0.1400 
    101 CB        -1.5762  -22.4127  -51.9375 C.3       18 UNK        -0.1800 
    102 C         -3.3225  -21.6234  -53.5751 C.2       18 UNK         0.5000 
    103 O         -2.8150  -20.7632  -54.2926 O.2       18 UNK        -0.5000 
    104 N         -4.6080  -21.5958  -53.1900 N.am      19 UNK        -0.5000 
    105 CA        -5.5623  -20.5308  -53.5164 C.3       19 UNK         0.1400 
    106 CB        -6.9168  -20.8452  -52.8651 C.3       19 UNK        -0.1800 
    107 C         -5.7391  -20.2922  -55.0291 C.2       19 UNK         0.5000 
    108 O         -5.9713  -19.1553  -55.4406 O.2       19 UNK        -0.5000 
    109 N         -5.5755  -21.3545  -55.8302 N.am      20 UNK        -0.5000 
    110 CA        -5.5961  -21.3115  -57.2925 C.3       20 UNK         0.1400 
    111 CB        -5.6325  -22.7504  -57.8293 C.3       20 UNK        -0.1800 
    112 C         -4.4101  -20.5371  -57.9043 C.2       20 UNK         0.5000 
    113 O         -4.5480  -20.0048  -59.0065 O.2       20 UNK        -0.5000 
    114 N         -3.2781  -20.4843  -57.1893 N.am      21 UNK        -0.5000 
    115 CA        -2.0874  -19.7287  -57.5727 C.3       21 UNK         0.1400 
    116 CB        -0.8317  -20.5229  -57.1774 C.3       21 UNK        -0.1800 
    117 C         -2.0821  -18.3392  -56.9147 C.2       21 UNK         0.5000 
    118 O         -1.7664  -17.3543  -57.5838 O.2       21 UNK        -0.5000 
    119 N         -2.4250  -18.2855  -55.6211 N.am      22 UNK        -0.5000 
    120 CA        -2.4546  -17.0578  -54.8112 C.3       22 UNK         0.1400 
    121 C         -3.5963  -16.0697  -55.1843 C.2       22 UNK         0.5000 
    122 N         -4.7345  -16.5264  -55.6926 N.am      22 UNK        -0.7600 
    123 O         -3.4430  -14.8635  -55.0136 O.2       22 UNK        -0.5000 
    124 C124       -2.4901  -17.3683  -53.2946 C.3       23 UNK        -0.0398 
    125 S125       -1.0639  -18.3620  -52.7296 S.3       23 UNK        -0.2404 
    126 C126       -0.6921  -17.5890  -51.1188 C.3       23 UNK        -0.0205 
    127 H127        2.1039  -14.3473  -50.9348 H         1 UNK         0.0600 
    128 H128        2.1052  -16.0441  -51.4212 H         1 UNK         0.0600 
    129 H129        3.5439  -15.3393  -50.6791 H         1 UNK         0.0600 
    130 H130        1.2171  -13.8993  -48.9265 H         1 UNK         0.3000 
    131 H131        0.5266  -16.1085  -47.1401 H         1 UNK         0.0600 
    132 H132       -0.2662  -13.3375  -46.3312 H         1 UNK         0.0800 
    133 H133       -0.8872  -13.8302  -47.8637 H         1 UNK         0.0800 
    134 H134       -3.1390  -14.3291  -47.9150 H         1 UNK         0.0800 
    135 H135       -4.0602  -15.3027  -46.8101 H         1 UNK         0.0800 
    136 H136       -1.1873  -15.7483  -49.2212 H         1 UNK         0.1150 
    137 H137       -2.7990  -19.3762  -50.8267 H         1 UNK         0.1150 
    138 H138       -4.8239  -17.3545  -47.6411 H         1 UNK         0.1150 
    139 H139       -5.6811  -19.4540  -48.3914 H         1 UNK         0.0800 
    140 H140       -5.7570  -19.1224  -50.1009 H         1 UNK         0.0800 
    141 H141       -5.1518  -22.4479  -47.7323 H         1 UNK         0.0800 
    142 H142       -4.1752  -21.0715  -47.3114 H         1 UNK         0.0800 
    143 H143       -3.0436  -23.4007  -48.9412 H         1 UNK         0.0600 
    144 H144       -1.9537  -20.9314  -48.2271 H         1 UNK         0.3000 
    145 H145        1.4348  -21.6744  -47.7583 H         1 UNK         0.0600 
    146 H146        1.7206  -20.1088  -49.6884 H         1 UNK         0.0600 
    147 H147        1.2890  -21.7181  -50.2485 H         1 UNK         0.0600 
    148 H148        0.0732  -20.4486  -50.2204 H         1 UNK         0.0600 
    149 H149        0.0689  -19.2109  -48.0357 H         1 UNK         0.3000 
    150 H150       -0.5890  -17.9519  -46.3703 H         1 UNK         0.0600 
    151 H151       -2.8383  -17.9723  -45.3411 H         1 UNK         0.0600 
    152 H152       -2.6528  -19.6629  -44.8771 H         1 UNK         0.0600 
    153 H153       -2.7604  -19.2201  -46.5734 H         1 UNK         0.0600 
    154 H154       -1.0607  -18.1556  -43.6677 H         1 UNK         0.3000 
    155 H155        0.6509  -18.3359  -41.8643 H         1 UNK         0.0600 
    156 H156        3.1277  -16.8210  -42.8213 H         1 UNK         0.0600 
    157 H157        3.1026  -18.4730  -42.2157 H         1 UNK         0.0600 
    158 H158        2.7069  -17.1398  -41.1395 H         1 UNK         0.0600 
    159 H159        1.0777  -15.5279  -42.6282 H         1 UNK         0.3000 
    160 H160       -2.1790  -14.6525  -42.8865 H         1 UNK         0.0600 
    161 H161       -1.1488  -14.3703  -40.0167 H         1 UNK         0.0600 
    162 H162       -2.7302  -14.9570  -40.5089 H         1 UNK         0.0600 
    163 H163       -2.2985  -13.2753  -40.7810 H         1 UNK         0.0600 
    164 H164        0.5988  -13.8155  -42.2286 H         1 UNK         0.3000 
    165 H165        1.3704  -12.4408  -44.1919 H         1 UNK         0.0600 
    166 H166       -0.4222   -9.9660  -44.4203 H         1 UNK         0.0600 
    167 H167       -0.0347  -11.0884  -45.7109 H         1 UNK         0.0600 
    168 H168        1.2328  -10.0964  -45.0128 H         1 UNK         0.0600 
    169 H169        2.1660  -11.6053  -42.3266 H         1 UNK         0.3000 
    170 H170        2.4240   -9.4241  -40.8105 H         1 UNK         0.0600 
    171 H171        0.5409   -8.2432  -39.7625 H         1 UNK         0.0600 
    172 H172       -0.0130   -9.7120  -38.9743 H         1 UNK         0.0600 
    173 H173        1.5267   -8.9869  -38.5141 H         1 UNK         0.0600 
    174 H174        3.2069  -11.3077  -39.9487 H         1 UNK         0.3000 
    175 H175        2.8878  -13.2660  -37.9999 H         1 UNK         0.0600 
    176 H176        1.1349  -15.1060  -39.7138 H         1 UNK         0.0600 
    177 H177        2.2916  -15.6352  -38.4974 H         1 UNK         0.0600 
    178 H178        0.8787  -14.7090  -38.0209 H         1 UNK         0.0600 
    179 H179        4.4775  -13.6172  -39.4909 H         1 UNK         0.3000 
    180 H180        5.3336  -13.1857  -41.9218 H         1 UNK         0.0600 
    181 H181        5.2450  -16.1555  -41.1413 H         1 UNK         0.0600 
    182 H182        5.9813  -14.8609  -40.2043 H         1 UNK         0.0600 
    183 H183        6.6723  -15.3173  -41.7451 H         1 UNK         0.0600 
    184 H184        4.9169  -15.5473  -43.5094 H         1 UNK         0.3000 
    185 H185        5.0686  -13.9247  -46.3357 H         1 UNK         0.0600 
    186 H186        4.9458  -16.3664  -46.7399 H         1 UNK         0.0600 
    187 H187        5.8604  -16.0356  -45.2848 H         1 UNK         0.0600 
    188 H188        4.1976  -16.6238  -45.1719 H         1 UNK         0.0600 
    189 H189        3.1919  -14.2302  -47.4821 H         1 UNK         0.3000 
    190 H190       -1.7425  -22.4547  -45.7812 H         1 UNK         0.3000 
    191 H191       -3.1046  -24.5220  -44.2855 H         1 UNK         0.0600 
    192 H192       -1.5325  -23.8807  -42.4934 H         1 UNK         0.0600 
    193 H193       -2.2061  -22.4354  -43.2327 H         1 UNK         0.0600 
    194 H194       -0.5631  -22.9440  -43.6214 H         1 UNK         0.0600 
    195 H195       -0.1244  -24.3522  -46.1836 H         1 UNK         0.3000 
    196 H196        0.8415  -26.9952  -45.2667 H         1 UNK         0.0600 
    197 H197        1.9939  -24.9803  -47.2703 H         1 UNK         0.0600 
    198 H198        2.4895  -25.1674  -45.5892 H         1 UNK         0.0600 
    199 H199        2.7745  -26.4650  -46.7389 H         1 UNK         0.0600 
    200 H200       -0.4361  -25.3674  -48.1883 H         1 UNK         0.3000 
    201 H201       -0.2691  -27.6864  -49.8807 H         1 UNK         0.0600 
    202 H202       -1.7398  -25.0246  -50.2419 H         1 UNK         0.0600 
    203 H203       -1.3436  -26.1666  -51.5225 H         1 UNK         0.0600 
    204 H204       -0.0581  -25.3268  -50.6743 H         1 UNK         0.0600 
    205 H205       -2.5692  -26.8796  -47.5118 H         1 UNK         0.3000 
    206 H206       -4.5880  -27.5589  -46.9023 H         1 UNK         0.0600 
    207 H207       -3.7186  -29.8768  -47.2243 H         1 UNK         0.0600 
    208 H208       -5.4388  -29.7762  -47.5664 H         1 UNK         0.0600 
    209 H209       -4.2901  -29.8744  -48.8916 H         1 UNK         0.0600 
    210 H210       -4.6855  -25.4668  -48.2277 H         1 UNK         0.3000 
    211 H211       -5.9029  -23.9677  -49.2683 H         1 UNK         0.0600 
    212 H212       -8.2629  -24.3389  -49.7953 H         1 UNK         0.0600 
    213 H213       -7.8765  -25.1209  -48.2717 H         1 UNK         0.0600 
    214 H214       -8.0578  -26.0812  -49.7405 H         1 UNK         0.0600 
    215 H215       -4.6920  -26.5492  -51.0711 H         1 UNK         0.3000 
    216 H216       -5.6845  -25.9775  -53.6494 H         1 UNK         0.0600 
    217 H217       -3.0118  -27.2524  -52.8672 H         1 UNK         0.0600 
    218 H218       -3.8112  -27.3932  -54.4256 H         1 UNK         0.0600 
    219 H219       -4.5491  -28.1043  -52.9983 H         1 UNK         0.0600 
    220 H220       -3.2473  -24.2898  -51.8188 H         1 UNK         0.3000 
    221 H221       -1.8034  -23.0674  -53.9631 H         1 UNK         0.0600 
    222 H222       -0.8496  -23.1878  -51.6992 H         1 UNK         0.0600 
    223 H223       -2.1681  -22.2136  -51.0456 H         1 UNK         0.0600 
    224 H224       -1.0119  -21.5070  -52.1633 H         1 UNK         0.0600 
    225 H225       -4.9617  -22.3534  -52.6201 H         1 UNK         0.3000 
    226 H226       -5.1803  -19.6065  -53.0794 H         1 UNK         0.0600 
    227 H227       -7.3429  -21.7710  -53.2537 H         1 UNK         0.0600 
    228 H228       -6.8241  -20.9496  -51.7844 H         1 UNK         0.0600 
    229 H229       -7.6360  -20.0471  -53.0533 H         1 UNK         0.0600 
    230 H230       -5.3604  -22.2465  -55.4059 H         1 UNK         0.3000 
    231 H231       -6.5133  -20.8065  -57.6022 H         1 UNK         0.0600 
    232 H232       -4.7489  -23.3141  -57.5267 H         1 UNK         0.0600 
    233 H233       -5.6724  -22.7609  -58.9194 H         1 UNK         0.0600 
    234 H234       -6.5111  -23.2848  -57.4674 H         1 UNK         0.0600 
    235 H235       -3.2649  -20.8955  -56.2632 H         1 UNK         0.3000 
    236 H236       -2.0651  -19.5895  -58.6556 H         1 UNK         0.0600 
    237 H237       -0.8104  -21.4949  -57.6703 H         1 UNK         0.0600 
    238 H238        0.0735  -19.9896  -57.4700 H         1 UNK         0.0600 
    239 H239       -0.7782  -20.6924  -56.1014 H         1 UNK         0.0600 
    240 H240       -2.6169  -19.1528  -55.1252 H         1 UNK         0.3000 
    241 H241       -1.5206  -16.5275  -55.0072 H         1 UNK         0.0600 
    242 H242       -5.4600  -15.8710  -55.9349 H         1 UNK         0.3800 
    243 H243       -4.9232  -17.5208  -55.7670 H         1 UNK         0.3800 
    244 H244       -3.4033  -17.9068  -53.0381 H         1 UNK         0.0800 
    245 H245       -2.5144  -16.4385  -52.7233 H         1 UNK         0.0800 
    246 H246       -0.3629  -16.5674  -51.3128 H         1 UNK         0.0800 
    247 H247        0.1559  -18.1032  -50.6673 H         1 UNK         0.0800 
@<TRIPOS>BOND
     1    1    2 1    
     2    1  127 1    
     3    1  128 1    
     4    1  129 1    
     5    2    3 2    
     6    2    4 am   BACKBONE|DICT|INTERRES
     7    4    5 1    
     8    4  130 1    
     9    5    6 1    
    10    5   65 1    
    11    5  131 1    
    12    6    7 1    
    13    6  132 1    
    14    6  133 1    
    15    7    8 1    
    16    8    9 1    
    17    8  134 1    
    18    8  135 1    
    19    9   10 ar   
    20    9   14 ar   
    21   10   11 ar   
    22   10  136 1    
    23   11   12 ar   
    24   11  126 1    
    25   12   13 ar   
    26   12  137 1    
    27   13   14 ar   
    28   13   15 1    
    29   14  138 1    
    30   15   16 1    
    31   15  139 1    
    32   15  140 1    
    33   16   17 1    
    34   17   18 1    
    35   17  141 1    
    36   17  142 1    
    37   18   19 1    
    38   18   67 1    
    39   18  143 1    
    40   19   20 am   BACKBONE|DICT|INTERRES
    41   19  144 1    
    42   20   21 2    
    43   20   22 1    
    44   22   23 1    
    45   22   24 1    
    46   22  145 1    
    47   23  146 1    
    48   23  147 1    
    49   23  148 1    
    50   24   25 am   BACKBONE|DICT|INTERRES
    51   24  149 1    
    52   25   26 2    
    53   25   27 1    
    54   27   28 1    
    55   27   29 1    
    56   27  150 1    
    57   28  151 1    
    58   28  152 1    
    59   28  153 1    
    60   29   30 am   BACKBONE|DICT|INTERRES
    61   29  154 1    
    62   30   31 2    
    63   30   32 1    
    64   32   33 1    
    65   32   34 1    
    66   32  155 1    
    67   33  156 1    
    68   33  157 1    
    69   33  158 1    
    70   34   35 am   BACKBONE|DICT|INTERRES
    71   34  159 1    
    72   35   36 2    
    73   35   37 1    
    74   37   38 1    
    75   37   39 1    
    76   37  160 1    
    77   38  161 1    
    78   38  162 1    
    79   38  163 1    
    80   39   40 am   BACKBONE|DICT|INTERRES
    81   39  164 1    
    82   40   41 2    
    83   40   42 1    
    84   42   43 1    
    85   42   44 1    
    86   42  165 1    
    87   43  166 1    
    88   43  167 1    
    89   43  168 1    
    90   44   45 am   BACKBONE|DICT|INTERRES
    91   44  169 1    
    92   45   46 2    
    93   45   47 1    
    94   47   48 1    
    95   47   49 1    
    96   47  170 1    
    97   48  171 1    
    98   48  172 1    
    99   48  173 1    
   100   49   50 am   BACKBONE|DICT|INTERRES
   101   49  174 1    
   102   50   51 2    
   103   50   52 1    
   104   52   53 1    
   105   52   54 1    
   106   52  175 1    
   107   53  176 1    
   108   53  177 1    
   109   53  178 1    
   110   54   55 am   BACKBONE|DICT|INTERRES
   111   54  179 1    
   112   55   56 2    
   113   55   57 1    
   114   57   58 1    
   115   57   59 1    
   116   57  180 1    
   117   58  181 1    
   118   58  182 1    
   119   58  183 1    
   120   59   60 am   BACKBONE|DICT|INTERRES
   121   59  184 1    
   122   60   61 2    
   123   60   62 1    
   124   62   63 1    
   125   62   64 1    
   126   62  185 1    
   127   63  186 1    
   128   63  187 1    
   129   63  188 1    
   130   64   65 am   BACKBONE|DICT|INTERRES
   131   64  189 1    
   132   65   66 2    
   133   67   68 2    
   134   67   69 am   BACKBONE|DICT|INTERRES
   135   69   70 1    
   136   69  190 1    
   137   70   71 1    
   138   70   72 1    
   139   70  191 1    
   140   71  192 1    
   141   71  193 1    
   142   71  194 1    
   143   72   73 2    
   144   72   74 am   BACKBONE|DICT|INTERRES
   145   74   75 1    
   146   74  195 1    
   147   75   76 1    
   148   75   77 1    
   149   75  196 1    
   150   76  197 1    
   151   76  198 1    
   152   76  199 1    
   153   77   78 2    
   154   77   79 am   BACKBONE|DICT|INTERRES
   155   79   80 1    
   156   79  200 1    
   157   80   81 1    
   158   80   82 1    
   159   80  201 1    
   160   81  202 1    
   161   81  203 1    
   162   81  204 1    
   163   82   83 2    
   164   82   84 am   BACKBONE|DICT|INTERRES
   165   84   85 1    
   166   84  205 1    
   167   85   86 1    
   168   85   87 1    
   169   85  206 1    
   170   86  207 1    
   171   86  208 1    
   172   86  209 1    
   173   87   88 2    
   174   87   89 am   BACKBONE|DICT|INTERRES
   175   89   90 1    
   176   89  210 1    
   177   90   91 1    
   178   90   92 1    
   179   90  211 1    
   180   91  212 1    
   181   91  213 1    
   182   91  214 1    
   183   92   93 2    
   184   92   94 am   BACKBONE|DICT|INTERRES
   185   94   95 1    
   186   94  215 1    
   187   95   96 1    
   188   95   97 1    
   189   95  216 1    
   190   96  217 1    
   191   96  218 1    
   192   96  219 1    
   193   97   98 2    
   194   97   99 am   BACKBONE|DICT|INTERRES
   195   99  100 1    
   196   99  220 1    
   197  100  101 1    
   198  100  102 1    
   199  100  221 1    
   200  101  222 1    
   201  101  223 1    
   202  101  224 1    
   203  102  103 2    
   204  102  104 am   BACKBONE|DICT|INTERRES
   205  104  105 1    
   206  104  225 1    
   207  105  106 1    
   208  105  107 1    
   209  105  226 1    
   210  106  227 1    
   211  106  228 1    
   212  106  229 1    
   213  107  108 2    
   214  107  109 am   BACKBONE|DICT|INTERRES
   215  109  110 1    
   216  109  230 1    
   217  110  111 1    
   218  110  112 1    
   219  110  231 1    
   220  111  232 1    
   221  111  233 1    
   222  111  234 1    
   223  112  113 2    
   224  112  114 am   BACKBONE|DICT|INTERRES
   225  114  115 1    
   226  114  235 1    
   227  115  116 1    
   228  115  117 1    
   229  115  236 1    
   230  116  237 1    
   231  116  238 1    
   232  116  239 1    
   233  117  118 2    
   234  117  119 am   BACKBONE|DICT|INTERRES
   235  119  120 1    
   236  119  240 1    
   237  120  121 1    
   238  120  124 1    
   239  120  241 1    
   240  121  122 am   BACKBONE|DICT|INTERRES
   241  121  123 2    
   242  122  242 1    
   243  122  243 1    
   244  124  125 1    
   245  124  244 1    
   246  124  245 1    
   247  125  126 1    
   248  126  246 1    
   249  126  247 1    
@<TRIPOS>SUBSTRUCTURE
     1 UNK         1 GROUP             0       ****    0 ROOT    
