@<TRIPOS>MOLECULE
3R540
247   249    1
SMALL
USER_CHARGES


@<TRIPOS>ATOM
      1 CA         -5.0381  -13.1616  -49.4887 C.3       0 UNK        -0.1800 
      2 C          -4.2552  -13.9022  -48.4141 C.2       0 UNK         0.5000 
      3 O          -4.7638  -14.8596  -47.8326 O.2       0 UNK        -0.5000 
      4 N          -3.0263  -13.4434  -48.1385 N.am      1 UNK        -0.5000 
      5 CA         -2.1160  -13.9596  -47.1051 C.3       1 UNK         0.1400 
      6 C6         -1.5689  -15.3834  -47.4043 C.3       23 UNK        -0.0398 
      7 S7         -0.4709  -15.3860  -48.8640 S.3       23 UNK        -0.2404 
      8 C8          0.8901  -16.4907  -48.3339 C.3       23 UNK        -0.0205 
      9 C9          0.8577  -17.8909  -48.9498 C.ar      23 UNK        -0.0193 
     10 C10        -0.3370  -18.5146  -49.3373 C.ar      23 UNK        -0.1150 
     11 C11        -0.3211  -19.7831  -49.9259 C.ar      23 UNK        -0.0193 
     12 C12         0.8959  -20.4446  -50.1021 C.ar      23 UNK        -0.1150 
     13 C13         2.0949  -19.8418  -49.7164 C.ar      23 UNK        -0.0193 
     14 C14         2.0674  -18.5705  -49.1357 C.ar      23 UNK        -0.1150 
     15 C15         3.4196  -20.5493  -49.9700 C.3       23 UNK        -0.0205 
     16 S16         4.0901  -21.3448  -48.4774 S.3       23 UNK        -0.2404 
     17 C17         2.7577  -22.5197  -48.0642 C.3       23 UNK        -0.0398 
     18 CA          3.2058  -23.6054  -47.0556 C.3       11 UNK         0.1400 
     19 N           3.5664  -23.0267  -45.7556 N.am      11 UNK        -0.5000 
     20 C           4.2706  -23.6452  -44.7991 C.2       10 UNK         0.5000 
     21 O           4.7628  -24.7665  -44.9296 O.2       10 UNK        -0.5000 
     22 CA          4.4112  -22.9044  -43.4549 C.3       10 UNK         0.1400 
     23 CB          5.5907  -21.9211  -43.4922 C.3       10 UNK        -0.1800 
     24 N           3.1887  -22.1972  -43.0599 N.am      10 UNK        -0.5000 
     25 C           2.0322  -22.7983  -42.7422 C.2       9 UNK         0.5000 
     26 O           1.8812  -24.0198  -42.7251 O.2       9 UNK        -0.5000 
     27 CA          0.8280  -21.8908  -42.4291 C.3       9 UNK         0.1400 
     28 CB          0.9055  -21.3568  -40.9912 C.3       9 UNK        -0.1800 
     29 N           0.6994  -20.7751  -43.3661 N.am      9 UNK        -0.5000 
     30 C           0.4452  -20.9072  -44.6756 C.2       8 UNK         0.5000 
     31 O           0.2284  -21.9894  -45.2208 O.2       8 UNK        -0.5000 
     32 CA          0.4990  -19.6257  -45.5307 C.3       8 UNK         0.1400 
     33 CB         -0.8254  -18.8542  -45.4545 C.3       8 UNK        -0.1800 
     34 N           1.6068  -18.7399  -45.1643 N.am      8 UNK        -0.5000 
     35 C           2.8989  -19.0965  -45.2045 C.2       7 UNK         0.5000 
     36 O           3.2912  -20.2017  -45.5670 O.2       7 UNK        -0.5000 
     37 CA          3.9191  -18.0795  -44.6752 C.3       7 UNK         0.1400 
     38 CB          4.1771  -16.9661  -45.7019 C.3       7 UNK        -0.1800 
     39 N           3.4814  -17.5134  -43.3999 N.am      7 UNK        -0.5000 
     40 C           3.4409  -18.2045  -42.2504 C.2       6 UNK         0.5000 
     41 O           3.8238  -19.3692  -42.1398 O.2       6 UNK        -0.5000 
     42 CA          2.8342  -17.4900  -41.0286 C.3       6 UNK         0.1400 
     43 CB          3.9000  -16.6529  -40.3062 C.3       6 UNK        -0.1800 
     44 N           1.7022  -16.6331  -41.3818 N.am      6 UNK        -0.5000 
     45 C           0.5296  -17.0802  -41.8538 C.2       5 UNK         0.5000 
     46 O           0.2583  -18.2719  -41.9905 O.2       5 UNK        -0.5000 
     47 CA         -0.4887  -16.0146  -42.2972 C.3       5 UNK         0.1400 
     48 CB         -1.3874  -15.6003  -41.1238 C.3       5 UNK        -0.1800 
     49 N           0.1398  -14.8236  -42.8725 N.am      5 UNK        -0.5000 
     50 C           0.8858  -14.8134  -43.9854 C.2       4 UNK         0.5000 
     51 O           1.1428  -15.8318  -44.6301 O.2       4 UNK        -0.5000 
     52 CA          1.4378  -13.4477  -44.4450 C.3       4 UNK         0.1400 
     53 CB          1.8205  -13.4436  -45.9359 C.3       4 UNK        -0.1800 
     54 N           0.4889  -12.3605  -44.1952 N.am      4 UNK        -0.5000 
     55 C           0.4165  -11.6234  -43.0785 C.2       3 UNK         0.5000 
     56 O           1.1510  -11.7849  -42.1045 O.2       3 UNK        -0.5000 
     57 CA         -0.6922  -10.5563  -43.0348 C.3       3 UNK         0.1400 
     58 CB         -0.2067   -9.2467  -43.6748 C.3       3 UNK        -0.1800 
     59 N          -1.9051  -11.0095  -43.7191 N.am      3 UNK        -0.5000 
     60 C          -2.8024  -11.8516  -43.1859 C.2       2 UNK         0.5000 
     61 O          -2.7454  -12.2734  -42.0310 O.2       2 UNK        -0.5000 
     62 CA         -3.9297  -12.3266  -44.1206 C.3       2 UNK         0.1400 
     63 CB         -5.0081  -11.2439  -44.2803 C.3       2 UNK        -0.1800 
     64 N          -3.4109  -12.6998  -45.4380 N.am      2 UNK        -0.5000 
     65 C          -2.7005  -13.8120  -45.6796 C.2       1 UNK         0.5000 
     66 O          -2.4863  -14.6723  -44.8262 O.2       1 UNK        -0.5000 
     67 C           2.1150  -24.6954  -46.9422 C.2       11 UNK         0.5000 
     68 O           1.9265  -25.4470  -47.8995 O.2       11 UNK        -0.5000 
     69 N           1.4149  -24.7529  -45.7982 N.am      12 UNK        -0.5000 
     70 CA          0.2645  -25.6071  -45.4916 C.3       12 UNK         0.1400 
     71 CB          0.6719  -27.0948  -45.4505 C.3       12 UNK        -0.1800 
     72 C          -0.9264  -25.3177  -46.4279 C.2       12 UNK         0.5000 
     73 O          -1.4938  -26.2362  -47.0231 O.2       12 UNK        -0.5000 
     74 N          -1.2552  -24.0255  -46.5588 N.am      13 UNK        -0.5000 
     75 CA         -2.3367  -23.4966  -47.3867 C.3       13 UNK         0.1400 
     76 CB         -2.3215  -21.9645  -47.2931 C.3       13 UNK        -0.1800 
     77 C          -3.7224  -24.0325  -46.9804 C.2       13 UNK         0.5000 
     78 O          -4.0206  -24.1307  -45.7872 O.2       13 UNK        -0.5000 
     79 N          -4.5458  -24.3305  -47.9879 N.am      14 UNK        -0.5000 
     80 CA         -5.9436  -24.7313  -47.8496 C.3       14 UNK         0.1400 
     81 CB         -6.1995  -25.9547  -48.7434 C.3       14 UNK        -0.1800 
     82 C          -6.8870  -23.5799  -48.2386 C.2       14 UNK         0.5000 
     83 O          -7.9829  -23.4879  -47.6838 O.2       14 UNK        -0.5000 
     84 N          -6.4489  -22.7236  -49.1705 N.am      15 UNK        -0.5000 
     85 CA         -7.1585  -21.5351  -49.6305 C.3       15 UNK         0.1400 
     86 CB         -7.2929  -21.6027  -51.1602 C.3       15 UNK        -0.1800 
     87 C          -6.3772  -20.2789  -49.2215 C.2       15 UNK         0.5000 
     88 O          -5.1469  -20.3156  -49.1303 O.2       15 UNK        -0.5000 
     89 N          -7.1032  -19.1730  -49.0214 N.am      16 UNK        -0.5000 
     90 CA         -6.5631  -17.8455  -48.7244 C.3       16 UNK         0.1400 
     91 CB         -7.6723  -16.9981  -48.0748 C.3       16 UNK        -0.1800 
     92 C          -5.9864  -17.1954  -49.9981 C.2       16 UNK         0.5000 
     93 O          -6.5888  -16.2728  -50.5507 O.2       16 UNK        -0.5000 
     94 N          -4.8525  -17.7400  -50.4606 N.am      17 UNK        -0.5000 
     95 CA         -4.1556  -17.4145  -51.7069 C.3       17 UNK         0.1400 
     96 CB         -3.5234  -16.0074  -51.6249 C.3       17 UNK        -0.1800 
     97 C          -5.0634  -17.6412  -52.9378 C.2       17 UNK         0.5000 
     98 O          -5.7846  -18.6405  -52.9745 O.2       17 UNK        -0.5000 
     99 N          -5.0079  -16.7244  -53.9159 N.am      18 UNK        -0.5000 
    100 CA        -5.8575  -16.6426  -55.1135 C.3       18 UNK         0.1400 
    101 CB        -7.3251  -16.3787  -54.7149 C.3       18 UNK        -0.1800 
    102 C         -5.7222  -17.8261  -56.0985 C.2       18 UNK         0.5000 
    103 O         -6.5886  -18.0061  -56.9565 O.2       18 UNK        -0.5000 
    104 N         -4.6334  -18.5934  -55.9887 N.am      19 UNK        -0.5000 
    105 CA        -4.2948  -19.7255  -56.8413 C.3       19 UNK         0.1400 
    106 CB        -5.1132  -20.9652  -56.4317 C.3       19 UNK        -0.1800 
    107 C         -2.7932  -19.9992  -56.7050 C.2       19 UNK         0.5000 
    108 O         -2.2036  -19.6700  -55.6730 O.2       19 UNK        -0.5000 
    109 N         -2.2079  -20.6266  -57.7320 N.am      20 UNK        -0.5000 
    110 CA        -0.8071  -21.0614  -57.7414 C.3       20 UNK         0.1400 
    111 CB        -0.3789  -21.3322  -59.1921 C.3       20 UNK        -0.1800 
    112 C         -0.5595  -22.3068  -56.8656 C.2       20 UNK         0.5000 
    113 O          0.5750  -22.5382  -56.4466 O.2       20 UNK        -0.5000 
    114 N         -1.6231  -23.0773  -56.6071 N.am      21 UNK        -0.5000 
    115 CA        -1.6337  -24.2821  -55.7826 C.3       21 UNK         0.1400 
    116 CB        -1.9110  -25.5022  -56.6804 C.3       21 UNK        -0.1800 
    117 C         -2.6654  -24.1168  -54.6526 C.2       21 UNK         0.5000 
    118 O         -3.5225  -24.9802  -54.4589 O.2       21 UNK        -0.5000 
    119 N         -2.5755  -22.9893  -53.9358 N.am      22 UNK        -0.5000 
    120 CA        -3.4214  -22.6501  -52.7784 C.3       22 UNK         0.1400 
    121 C         -3.1794  -23.5010  -51.4961 C.2       22 UNK         0.5000 
    122 N         -2.1355  -24.3172  -51.4188 N.am      22 UNK        -0.7600 
    123 O         -3.9594  -23.4194  -50.5519 O.2       22 UNK        -0.5000 
    124 C124       -3.3904  -21.1307  -52.4703 C.3       23 UNK        -0.0398 
    125 S125       -1.7158  -20.4487  -52.2113 S.3       23 UNK        -0.2404 
    126 C126       -1.6106  -20.4375  -50.3951 C.3       23 UNK        -0.0205 
    127 H127       -5.7982  -12.5308  -49.0278 H         1 UNK         0.0600 
    128 H128       -5.5405  -13.8662  -50.1494 H         1 UNK         0.0600 
    129 H129       -4.3904  -12.5306  -50.0979 H         1 UNK         0.0600 
    130 H130       -2.6700  -12.6617  -48.6708 H         1 UNK         0.3000 
    131 H131       -1.2630  -13.2805  -47.1132 H         1 UNK         0.0600 
    132 H132       -0.9992  -15.7489  -46.5504 H         1 UNK         0.0800 
    133 H133       -2.3791  -16.0969  -47.5588 H         1 UNK         0.0800 
    134 H134        1.8230  -16.0004  -48.6159 H         1 UNK         0.0800 
    135 H135        0.9240  -16.5830  -47.2489 H         1 UNK         0.0800 
    136 H136       -1.2823  -18.0102  -49.2002 H         1 UNK         0.1150 
    137 H137        0.9078  -21.4216  -50.5647 H         1 UNK         0.1150 
    138 H138        2.9968  -18.1049  -48.8388 H         1 UNK         0.1150 
    139 H139        3.3099  -21.2973  -50.7568 H         1 UNK         0.0800 
    140 H140        4.1493  -19.8277  -50.3401 H         1 UNK         0.0800 
    141 H141        1.9080  -21.9599  -47.6685 H         1 UNK         0.0800 
    142 H142        2.4203  -22.9777  -48.9960 H         1 UNK         0.0800 
    143 H143        4.0937  -24.0953  -47.4607 H         1 UNK         0.0600 
    144 H144        3.2816  -22.0611  -45.6013 H         1 UNK         0.3000 
    145 H145        4.6229  -23.6526  -42.6883 H         1 UNK         0.0600 
    146 H146        5.7415  -21.4497  -42.5209 H         1 UNK         0.0600 
    147 H147        5.4354  -21.1309  -44.2267 H         1 UNK         0.0600 
    148 H148        6.5176  -22.4333  -43.7528 H         1 UNK         0.0600 
    149 H149        3.2423  -21.1850  -43.0272 H         1 UNK         0.3000 
    150 H150       -0.0749  -22.4992  -42.5138 H         1 UNK         0.0600 
    151 H151        0.9875  -22.1745  -40.2742 H         1 UNK         0.0600 
    152 H152        0.0120  -20.7877  -40.7342 H         1 UNK         0.0600 
    153 H153        1.7684  -20.7063  -40.8483 H         1 UNK         0.0600 
    154 H154        0.7964  -19.8413  -42.9777 H         1 UNK         0.3000 
    155 H155        0.6527  -19.9317  -46.5677 H         1 UNK         0.0600 
    156 H156       -1.6696  -19.4922  -45.7138 H         1 UNK         0.0600 
    157 H157       -0.8299  -18.0196  -46.1525 H         1 UNK         0.0600 
    158 H158       -1.0070  -18.4603  -44.4550 H         1 UNK         0.0600 
    159 H159        1.3701  -17.8014  -44.8574 H         1 UNK         0.3000 
    160 H160        4.8626  -18.6035  -44.5075 H         1 UNK         0.0600 
    161 H161        3.2616  -16.4481  -45.9829 H         1 UNK         0.0600 
    162 H162        4.6051  -17.3794  -46.6160 H         1 UNK         0.0600 
    163 H163        4.8801  -16.2268  -45.3182 H         1 UNK         0.0600 
    164 H164        3.0832  -16.5866  -43.4276 H         1 UNK         0.3000 
    165 H165        2.4761  -18.2569  -40.3385 H         1 UNK         0.0600 
    166 H166        3.4992  -16.2034  -39.3975 H         1 UNK         0.0600 
    167 H167        4.7493  -17.2719  -40.0140 H         1 UNK         0.0600 
    168 H168        4.2808  -15.8502  -40.9389 H         1 UNK         0.0600 
    169 H169        1.8384  -15.6363  -41.3004 H         1 UNK         0.3000 
    170 H170       -1.1199  -16.4610  -43.0680 H         1 UNK         0.0600 
    171 H171       -0.8222  -15.0927  -40.3412 H         1 UNK         0.0600 
    172 H172       -2.1797  -14.9295  -41.4562 H         1 UNK         0.0600 
    173 H173       -1.8681  -16.4697  -40.6733 H         1 UNK         0.0600 
    174 H174       -0.0281  -13.9473  -42.3997 H         1 UNK         0.3000 
    175 H175        2.3498  -13.2672  -43.8725 H         1 UNK         0.0600 
    176 H176        0.9807  -13.7202  -46.5717 H         1 UNK         0.0600 
    177 H177        2.1726  -12.4614  -46.2514 H         1 UNK         0.0600 
    178 H178        2.6259  -14.1504  -46.1356 H         1 UNK         0.0600 
    179 H179       -0.1777  -12.1724  -44.9268 H         1 UNK         0.3000 
    180 H180       -0.9268  -10.3557  -41.9870 H         1 UNK         0.0600 
    181 H181       -0.9660   -8.4679  -43.6016 H         1 UNK         0.0600 
    182 H182        0.0399   -9.3772  -44.7293 H         1 UNK         0.0600 
    183 H183        0.6874   -8.8755  -43.1722 H         1 UNK         0.0600 
    184 H184       -2.0425  -10.6895  -44.6662 H         1 UNK         0.3000 
    185 H185       -4.3956  -13.2046  -43.6675 H         1 UNK         0.0600 
    186 H186       -5.8376  -11.6028  -44.8898 H         1 UNK         0.0600 
    187 H187       -5.4184  -10.9574  -43.3110 H         1 UNK         0.0600 
    188 H188       -4.6133  -10.3418  -44.7493 H         1 UNK         0.0600 
    189 H189       -3.5762  -12.0550  -46.1970 H         1 UNK         0.3000 
    190 H190        1.6430  -24.0733  -45.0843 H         1 UNK         0.3000 
    191 H191       -0.0613  -25.3296  -44.4881 H         1 UNK         0.0600 
    192 H192       -0.1564  -27.7144  -45.1052 H         1 UNK         0.0600 
    193 H193        1.5046  -27.2548  -44.7655 H         1 UNK         0.0600 
    194 H194        0.9685  -27.4654  -46.4319 H         1 UNK         0.0600 
    195 H195       -0.7215  -23.3362  -46.0328 H         1 UNK         0.3000 
    196 H196       -2.1285  -23.7848  -48.4183 H         1 UNK         0.0600 
    197 H197       -3.0749  -21.5263  -47.9476 H         1 UNK         0.0600 
    198 H198       -1.3535  -21.5563  -47.5837 H         1 UNK         0.0600 
    199 H199       -2.5356  -21.6292  -46.2780 H         1 UNK         0.0600 
    200 H200       -4.2299  -24.1573  -48.9406 H         1 UNK         0.3000 
    201 H201       -6.1624  -25.0104  -46.8168 H         1 UNK         0.0600 
    202 H202       -5.5670  -26.7932  -48.4514 H         1 UNK         0.0600 
    203 H203       -6.0004  -25.7350  -49.7934 H         1 UNK         0.0600 
    204 H204       -7.2359  -26.2858  -48.6661 H         1 UNK         0.0600 
    205 H205       -5.5162  -22.8451  -49.5535 H         1 UNK         0.3000 
    206 H206       -8.1575  -21.4843  -49.1926 H         1 UNK         0.0600 
    207 H207       -7.8704  -22.4754  -51.4654 H         1 UNK         0.0600 
    208 H208       -7.8030  -20.7210  -51.5504 H         1 UNK         0.0600 
    209 H209       -6.3205  -21.6594  -51.6493 H         1 UNK         0.0600 
    210 H210       -8.1030  -19.2194  -49.1547 H         1 UNK         0.3000 
    211 H211       -5.7498  -17.9408  -48.0014 H         1 UNK         0.0600 
    212 H212       -8.5362  -16.8881  -48.7315 H         1 UNK         0.0600 
    213 H213       -7.3094  -15.9969  -47.8393 H         1 UNK         0.0600 
    214 H214       -8.0145  -17.4459  -47.1418 H         1 UNK         0.0600 
    215 H215       -4.5275  -18.5708  -49.9781 H         1 UNK         0.3000 
    216 H216       -3.3403  -18.1299  -51.7925 H         1 UNK         0.0600 
    217 H217       -2.8313  -15.8356  -52.4498 H         1 UNK         0.0600 
    218 H218       -2.9523  -15.8903  -50.7037 H         1 UNK         0.0600 
    219 H219       -4.2758  -15.2194  -51.6490 H         1 UNK         0.0600 
    220 H220       -4.3639  -15.9552  -53.7958 H         1 UNK         0.3000 
    221 H221       -5.5096  -15.7665  -55.6624 H         1 UNK         0.0600 
    222 H222       -7.7710  -17.2426  -54.2210 H         1 UNK         0.0600 
    223 H223       -7.4029  -15.5290  -54.0364 H         1 UNK         0.0600 
    224 H224       -7.9364  -16.1505  -55.5887 H         1 UNK         0.0600 
    225 H225       -3.9382  -18.3796  -55.2849 H         1 UNK         0.3000 
    226 H226       -4.5089  -19.4680  -57.8808 H         1 UNK         0.0600 
    227 H227       -6.1833  -20.7884  -56.5391 H         1 UNK         0.0600 
    228 H228       -4.8658  -21.8247  -57.0554 H         1 UNK         0.0600 
    229 H229       -4.9258  -21.2464  -55.3950 H         1 UNK         0.0600 
    230 H230       -2.7550  -20.8529  -58.5506 H         1 UNK         0.3000 
    231 H231       -0.1873  -20.2527  -57.3478 H         1 UNK         0.0600 
    232 H232        0.6692  -21.6307  -59.2408 H         1 UNK         0.0600 
    233 H233       -0.4900  -20.4406  -59.8094 H         1 UNK         0.0600 
    234 H234       -0.9686  -22.1307  -59.6442 H         1 UNK         0.0600 
    235 H235       -2.5171  -22.7886  -56.9761 H         1 UNK         0.3000 
    236 H236       -0.6646  -24.4289  -55.3015 H         1 UNK         0.0600 
    237 H237       -2.8830  -25.4299  -57.1699 H         1 UNK         0.0600 
    238 H238       -1.1520  -25.5982  -57.4569 H         1 UNK         0.0600 
    239 H239       -1.8999  -26.4264  -56.1013 H         1 UNK         0.0600 
    240 H240       -1.8513  -22.3206  -54.1588 H         1 UNK         0.3000 
    241 H241       -4.4475  -22.8816  -53.0702 H         1 UNK         0.0600 
    242 H242       -1.9986  -24.8836  -50.5986 H         1 UNK         0.3800 
    243 H243       -1.4863  -24.3870  -52.1846 H         1 UNK         0.3800 
    244 H244       -4.0257  -20.8864  -51.6176 H         1 UNK         0.0800 
    245 H245       -3.8248  -20.5922  -53.3127 H         1 UNK         0.0800 
    246 H246       -1.6472  -21.4638  -50.0306 H         1 UNK         0.0800 
    247 H247       -2.4769  -19.9234  -49.9766 H         1 UNK         0.0800 
@<TRIPOS>BOND
     1    1    2 1    
     2    1  127 1    
     3    1  128 1    
     4    1  129 1    
     5    2    3 2    
     6    2    4 am   BACKBONE|DICT|INTERRES
     7    4    5 1    
     8    4  130 1    
     9    5    6 1    
    10    5   65 1    
    11    5  131 1    
    12    6    7 1    
    13    6  132 1    
    14    6  133 1    
    15    7    8 1    
    16    8    9 1    
    17    8  134 1    
    18    8  135 1    
    19    9   10 ar   
    20    9   14 ar   
    21   10   11 ar   
    22   10  136 1    
    23   11   12 ar   
    24   11  126 1    
    25   12   13 ar   
    26   12  137 1    
    27   13   14 ar   
    28   13   15 1    
    29   14  138 1    
    30   15   16 1    
    31   15  139 1    
    32   15  140 1    
    33   16   17 1    
    34   17   18 1    
    35   17  141 1    
    36   17  142 1    
    37   18   19 1    
    38   18   67 1    
    39   18  143 1    
    40   19   20 am   BACKBONE|DICT|INTERRES
    41   19  144 1    
    42   20   21 2    
    43   20   22 1    
    44   22   23 1    
    45   22   24 1    
    46   22  145 1    
    47   23  146 1    
    48   23  147 1    
    49   23  148 1    
    50   24   25 am   BACKBONE|DICT|INTERRES
    51   24  149 1    
    52   25   26 2    
    53   25   27 1    
    54   27   28 1    
    55   27   29 1    
    56   27  150 1    
    57   28  151 1    
    58   28  152 1    
    59   28  153 1    
    60   29   30 am   BACKBONE|DICT|INTERRES
    61   29  154 1    
    62   30   31 2    
    63   30   32 1    
    64   32   33 1    
    65   32   34 1    
    66   32  155 1    
    67   33  156 1    
    68   33  157 1    
    69   33  158 1    
    70   34   35 am   BACKBONE|DICT|INTERRES
    71   34  159 1    
    72   35   36 2    
    73   35   37 1    
    74   37   38 1    
    75   37   39 1    
    76   37  160 1    
    77   38  161 1    
    78   38  162 1    
    79   38  163 1    
    80   39   40 am   BACKBONE|DICT|INTERRES
    81   39  164 1    
    82   40   41 2    
    83   40   42 1    
    84   42   43 1    
    85   42   44 1    
    86   42  165 1    
    87   43  166 1    
    88   43  167 1    
    89   43  168 1    
    90   44   45 am   BACKBONE|DICT|INTERRES
    91   44  169 1    
    92   45   46 2    
    93   45   47 1    
    94   47   48 1    
    95   47   49 1    
    96   47  170 1    
    97   48  171 1    
    98   48  172 1    
    99   48  173 1    
   100   49   50 am   BACKBONE|DICT|INTERRES
   101   49  174 1    
   102   50   51 2    
   103   50   52 1    
   104   52   53 1    
   105   52   54 1    
   106   52  175 1    
   107   53  176 1    
   108   53  177 1    
   109   53  178 1    
   110   54   55 am   BACKBONE|DICT|INTERRES
   111   54  179 1    
   112   55   56 2    
   113   55   57 1    
   114   57   58 1    
   115   57   59 1    
   116   57  180 1    
   117   58  181 1    
   118   58  182 1    
   119   58  183 1    
   120   59   60 am   BACKBONE|DICT|INTERRES
   121   59  184 1    
   122   60   61 2    
   123   60   62 1    
   124   62   63 1    
   125   62   64 1    
   126   62  185 1    
   127   63  186 1    
   128   63  187 1    
   129   63  188 1    
   130   64   65 am   BACKBONE|DICT|INTERRES
   131   64  189 1    
   132   65   66 2    
   133   67   68 2    
   134   67   69 am   BACKBONE|DICT|INTERRES
   135   69   70 1    
   136   69  190 1    
   137   70   71 1    
   138   70   72 1    
   139   70  191 1    
   140   71  192 1    
   141   71  193 1    
   142   71  194 1    
   143   72   73 2    
   144   72   74 am   BACKBONE|DICT|INTERRES
   145   74   75 1    
   146   74  195 1    
   147   75   76 1    
   148   75   77 1    
   149   75  196 1    
   150   76  197 1    
   151   76  198 1    
   152   76  199 1    
   153   77   78 2    
   154   77   79 am   BACKBONE|DICT|INTERRES
   155   79   80 1    
   156   79  200 1    
   157   80   81 1    
   158   80   82 1    
   159   80  201 1    
   160   81  202 1    
   161   81  203 1    
   162   81  204 1    
   163   82   83 2    
   164   82   84 am   BACKBONE|DICT|INTERRES
   165   84   85 1    
   166   84  205 1    
   167   85   86 1    
   168   85   87 1    
   169   85  206 1    
   170   86  207 1    
   171   86  208 1    
   172   86  209 1    
   173   87   88 2    
   174   87   89 am   BACKBONE|DICT|INTERRES
   175   89   90 1    
   176   89  210 1    
   177   90   91 1    
   178   90   92 1    
   179   90  211 1    
   180   91  212 1    
   181   91  213 1    
   182   91  214 1    
   183   92   93 2    
   184   92   94 am   BACKBONE|DICT|INTERRES
   185   94   95 1    
   186   94  215 1    
   187   95   96 1    
   188   95   97 1    
   189   95  216 1    
   190   96  217 1    
   191   96  218 1    
   192   96  219 1    
   193   97   98 2    
   194   97   99 am   BACKBONE|DICT|INTERRES
   195   99  100 1    
   196   99  220 1    
   197  100  101 1    
   198  100  102 1    
   199  100  221 1    
   200  101  222 1    
   201  101  223 1    
   202  101  224 1    
   203  102  103 2    
   204  102  104 am   BACKBONE|DICT|INTERRES
   205  104  105 1    
   206  104  225 1    
   207  105  106 1    
   208  105  107 1    
   209  105  226 1    
   210  106  227 1    
   211  106  228 1    
   212  106  229 1    
   213  107  108 2    
   214  107  109 am   BACKBONE|DICT|INTERRES
   215  109  110 1    
   216  109  230 1    
   217  110  111 1    
   218  110  112 1    
   219  110  231 1    
   220  111  232 1    
   221  111  233 1    
   222  111  234 1    
   223  112  113 2    
   224  112  114 am   BACKBONE|DICT|INTERRES
   225  114  115 1    
   226  114  235 1    
   227  115  116 1    
   228  115  117 1    
   229  115  236 1    
   230  116  237 1    
   231  116  238 1    
   232  116  239 1    
   233  117  118 2    
   234  117  119 am   BACKBONE|DICT|INTERRES
   235  119  120 1    
   236  119  240 1    
   237  120  121 1    
   238  120  124 1    
   239  120  241 1    
   240  121  122 am   BACKBONE|DICT|INTERRES
   241  121  123 2    
   242  122  242 1    
   243  122  243 1    
   244  124  125 1    
   245  124  244 1    
   246  124  245 1    
   247  125  126 1    
   248  126  246 1    
   249  126  247 1    
@<TRIPOS>SUBSTRUCTURE
     1 UNK         1 GROUP             0       ****    0 ROOT    
