@<TRIPOS>MOLECULE
3R540
247   249    1
SMALL
USER_CHARGES


@<TRIPOS>ATOM
      1 CA          0.4412  -11.3764  -47.2473 C.3       0 UNK        -0.1800 
      2 C           1.8251  -11.1519  -47.8397 C.2       0 UNK         0.5000 
      3 O           2.3176  -10.0239  -47.8458 O.2       0 UNK        -0.5000 
      4 N           2.4588  -12.2258  -48.3281 N.am      1 UNK        -0.5000 
      5 CA          3.7833  -12.2301  -48.9677 C.3       1 UNK         0.1400 
      6 C6          4.0793  -13.5864  -49.6616 C.3       23 UNK        -0.0398 
      7 S7          4.2129  -15.0087  -48.5176 S.3       23 UNK        -0.2404 
      8 C8          2.5160  -15.6580  -48.5059 C.3       23 UNK        -0.0205 
      9 C9          2.2529  -16.6218  -49.6471 C.ar      23 UNK        -0.0193 
     10 C10         1.5951  -16.1932  -50.8011 C.ar      23 UNK        -0.1150 
     11 C11         1.3078  -17.0950  -51.8291 C.ar      23 UNK        -0.0193 
     12 C12         1.6899  -18.4352  -51.6957 C.ar      23 UNK        -0.1150 
     13 C13         2.3692  -18.8719  -50.5523 C.ar      23 UNK        -0.0193 
     14 C14         2.6449  -17.9567  -49.5323 C.ar      23 UNK        -0.1150 
     15 C15         2.8617  -20.3117  -50.4473 C.3       23 UNK        -0.0205 
     16 S16         2.4393  -21.1108  -48.8623 S.3       23 UNK        -0.2404 
     17 C17         0.6694  -21.4537  -49.1019 C.3       23 UNK        -0.0398 
     18 CA          0.1459  -22.5096  -48.1009 C.3       11 UNK         0.1400 
     19 N           0.0865  -22.0145  -46.7211 N.am      11 UNK        -0.5000 
     20 C          -0.1825  -22.7847  -45.6559 C.2       10 UNK         0.5000 
     21 O          -0.3265  -24.0062  -45.7153 O.2       10 UNK        -0.5000 
     22 CA         -0.3946  -22.0673  -44.3108 C.3       10 UNK         0.1400 
     23 CB          0.9473  -21.7419  -43.6387 C.3       10 UNK        -0.1800 
     24 N          -1.1974  -20.8508  -44.4514 N.am      10 UNK        -0.5000 
     25 C          -2.4803  -20.8347  -44.8420 C.2       9 UNK         0.5000 
     26 O          -3.1364  -21.8537  -45.0501 O.2       9 UNK        -0.5000 
     27 CA         -3.1281  -19.4597  -45.0910 C.3       9 UNK         0.1400 
     28 CB         -3.6665  -18.8612  -43.7840 C.3       9 UNK        -0.1800 
     29 N          -2.2077  -18.5157  -45.7226 N.am      9 UNK        -0.5000 
     30 C          -1.7119  -18.6445  -46.9614 C.2       8 UNK         0.5000 
     31 O          -2.0457  -19.5319  -47.7478 O.2       8 UNK        -0.5000 
     32 CA         -0.6265  -17.6365  -47.3729 C.3       8 UNK         0.1400 
     33 CB         -1.2554  -16.3639  -47.9557 C.3       8 UNK        -0.1800 
     34 N           0.2491  -17.2902  -46.2517 N.am      8 UNK        -0.5000 
     35 C           1.1638  -18.1226  -45.7336 C.2       7 UNK         0.5000 
     36 O           1.3709  -19.2552  -46.1663 O.2       7 UNK        -0.5000 
     37 CA          1.9416  -17.6236  -44.4998 C.3       7 UNK         0.1400 
     38 CB          3.1290  -16.7363  -44.9044 C.3       7 UNK        -0.1800 
     39 N           1.0934  -16.8901  -43.5610 N.am      7 UNK        -0.5000 
     40 C           0.1097  -17.4479  -42.8421 C.2       6 UNK         0.5000 
     41 O          -0.1520  -18.6492  -42.8645 O.2       6 UNK        -0.5000 
     42 CA         -0.7580  -16.5011  -41.9917 C.3       6 UNK         0.1400 
     43 CB         -0.1537  -16.3349  -40.5896 C.3       6 UNK        -0.1800 
     44 N          -0.9521  -15.1780  -42.5894 N.am      6 UNK        -0.5000 
     45 C          -1.4833  -14.9316  -43.7965 C.2       5 UNK         0.5000 
     46 O          -1.8696  -15.8166  -44.5599 O.2       5 UNK        -0.5000 
     47 CA         -1.5834  -13.4571  -44.2354 C.3       5 UNK         0.1400 
     48 CB         -3.0446  -12.9859  -44.2022 C.3       5 UNK        -0.1800 
     49 N          -0.7720  -12.5542  -43.4127 N.am      5 UNK        -0.5000 
     50 C           0.5588  -12.4384  -43.4985 C.2       4 UNK         0.5000 
     51 O           1.2523  -13.0618  -44.3065 O.2       4 UNK        -0.5000 
     52 CA          1.2289  -11.5096  -42.4720 C.3       4 UNK         0.1400 
     53 CB          1.9306  -12.3356  -41.3829 C.3       4 UNK        -0.1800 
     54 N           2.2093  -10.6454  -43.1184 N.am      4 UNK        -0.5000 
     55 C           1.9193   -9.5872  -43.8826 C.2       3 UNK         0.5000 
     56 O           0.7767   -9.1545  -44.0368 O.2       3 UNK        -0.5000 
     57 CA          3.0900   -8.9119  -44.6237 C.3       3 UNK         0.1400 
     58 CB          3.8177   -7.8932  -43.7258 C.3       3 UNK        -0.1800 
     59 N           4.0207   -9.8625  -45.2483 N.am      3 UNK        -0.5000 
     60 C           4.8882  -10.7106  -44.6735 C.2       2 UNK         0.5000 
     61 O           5.0695  -10.7791  -43.4569 O.2       2 UNK        -0.5000 
     62 CA          5.6218  -11.6832  -45.6172 C.3       2 UNK         0.1400 
     63 CB          6.0913  -12.9605  -44.8966 C.3       2 UNK        -0.1800 
     64 N           4.7361  -12.0669  -46.7140 N.am      2 UNK        -0.5000 
     65 C           4.9247  -11.8067  -48.0133 C.2       1 UNK         0.5000 
     66 O           5.9205  -11.2401  -48.4652 O.2       1 UNK        -0.5000 
     67 C          -1.2119  -23.0752  -48.5632 C.2       11 UNK         0.5000 
     68 O          -1.2361  -24.1428  -49.1739 O.2       11 UNK        -0.5000 
     69 N          -2.3143  -22.3838  -48.2357 N.am      12 UNK        -0.5000 
     70 CA         -3.6790  -22.8305  -48.5238 C.3       12 UNK         0.1400 
     71 CB         -4.6863  -21.7320  -48.1587 C.3       12 UNK        -0.1800 
     72 C          -4.0326  -24.1430  -47.8079 C.2       12 UNK         0.5000 
     73 O          -4.6012  -25.0350  -48.4344 O.2       12 UNK        -0.5000 
     74 N          -3.6578  -24.2541  -46.5264 N.am      13 UNK        -0.5000 
     75 CA         -3.8225  -25.4577  -45.7125 C.3       13 UNK         0.1400 
     76 CB         -3.4421  -25.1553  -44.2555 C.3       13 UNK        -0.1800 
     77 C          -3.0195  -26.6515  -46.2587 C.2       13 UNK         0.5000 
     78 O          -3.5681  -27.7487  -46.3650 O.2       13 UNK        -0.5000 
     79 N          -1.7585  -26.4082  -46.6455 N.am      14 UNK        -0.5000 
     80 CA         -0.8754  -27.3933  -47.2762 C.3       14 UNK         0.1400 
     81 CB          0.5392  -26.8075  -47.3999 C.3       14 UNK        -0.1800 
     82 C          -1.3896  -27.8739  -48.6477 C.2       14 UNK         0.5000 
     83 O          -1.2748  -29.0594  -48.9600 O.2       14 UNK        -0.5000 
     84 N          -1.9786  -26.9541  -49.4226 N.am      15 UNK        -0.5000 
     85 CA         -2.6185  -27.2202  -50.7114 C.3       15 UNK         0.1400 
     86 CB         -2.6718  -25.9100  -51.5139 C.3       15 UNK        -0.1800 
     87 C          -4.0327  -27.8243  -50.5919 C.2       15 UNK         0.5000 
     88 O          -4.6306  -28.1335  -51.6219 O.2       15 UNK        -0.5000 
     89 N          -4.5700  -27.9396  -49.3673 N.am      16 UNK        -0.5000 
     90 CA         -5.9330  -28.3768  -49.0369 C.3       16 UNK         0.1400 
     91 CB         -6.1054  -29.8817  -49.3283 C.3       16 UNK        -0.1800 
     92 C          -7.0189  -27.5018  -49.7048 C.2       16 UNK         0.5000 
     93 O          -8.0441  -28.0147  -50.1562 O.2       16 UNK        -0.5000 
     94 N          -6.7419  -26.1917  -49.7766 N.am      17 UNK        -0.5000 
     95 CA         -7.5229  -25.1194  -50.4002 C.3       17 UNK         0.1400 
     96 CB         -8.8937  -24.9630  -49.7107 C.3       17 UNK        -0.1800 
     97 C          -7.6442  -25.2129  -51.9380 C.2       17 UNK         0.5000 
     98 O          -8.4158  -24.4511  -52.5231 O.2       17 UNK        -0.5000 
     99 N          -6.8771  -26.1053  -52.5827 N.am      18 UNK        -0.5000 
    100 CA        -6.8559  -26.2698  -54.0400 C.3       18 UNK         0.1400 
    101 CB        -6.3730  -27.6878  -54.3817 C.3       18 UNK        -0.1800 
    102 C         -5.9832  -25.2186  -54.7551 C.2       18 UNK         0.5000 
    103 O         -6.0880  -25.0776  -55.9745 O.2       18 UNK        -0.5000 
    104 N         -5.1388  -24.5079  -54.0000 N.am      19 UNK        -0.5000 
    105 CA        -4.2384  -23.4609  -54.4671 C.3       19 UNK         0.1400 
    106 CB        -2.9574  -24.0939  -55.0460 C.3       19 UNK        -0.1800 
    107 C         -3.9282  -22.5106  -53.2993 C.2       19 UNK         0.5000 
    108 O         -4.3573  -22.7642  -52.1699 O.2       19 UNK        -0.5000 
    109 N         -3.1780  -21.4433  -53.6033 N.am      20 UNK        -0.5000 
    110 CA        -2.7602  -20.3674  -52.7010 C.3       20 UNK         0.1400 
    111 CB        -1.7885  -20.8896  -51.6216 C.3       20 UNK        -0.1800 
    112 C         -3.9616  -19.5650  -52.1575 C.2       20 UNK         0.5000 
    113 O         -4.8224  -19.1841  -52.9534 O.2       20 UNK        -0.5000 
    114 N         -3.9736  -19.2764  -50.8450 N.am      21 UNK        -0.5000 
    115 CA        -4.9067  -18.3746  -50.1483 C.3       21 UNK         0.1400 
    116 CB        -6.3522  -18.9147  -50.1922 C.3       21 UNK        -0.1800 
    117 C         -4.7865  -16.9176  -50.6492 C.2       21 UNK         0.5000 
    118 O         -5.7812  -16.1960  -50.7394 O.2       21 UNK        -0.5000 
    119 N         -3.5509  -16.5446  -50.9979 N.am      22 UNK        -0.5000 
    120 CA        -3.1321  -15.2714  -51.5924 C.3       22 UNK         0.1400 
    121 C         -3.4438  -14.0336  -50.7054 C.2       22 UNK         0.5000 
    122 N         -3.8247  -12.9143  -51.3058 N.am      22 UNK        -0.7600 
    123 O         -3.2980  -14.0640  -49.4860 O.2       22 UNK        -0.5000 
    124 C124       -1.6236  -15.3189  -51.9445 C.3       23 UNK        -0.0398 
    125 S125       -1.1901  -16.7443  -53.0066 S.3       23 UNK        -0.2404 
    126 C126        0.6221  -16.6101  -53.0988 C.3       23 UNK        -0.0205 
    127 H127       -0.3144  -10.8903  -47.8642 H         1 UNK         0.0600 
    128 H128        0.3869  -10.9524  -46.2453 H         1 UNK         0.0600 
    129 H129        0.1970  -12.4367  -47.1786 H         1 UNK         0.0600 
    130 H130        2.0045  -13.1237  -48.2742 H         1 UNK         0.3000 
    131 H131        3.7486  -11.4714  -49.7525 H         1 UNK         0.0600 
    132 H132        3.3157  -13.7950  -50.4111 H         1 UNK         0.0800 
    133 H133        5.0151  -13.5192  -50.2190 H         1 UNK         0.0800 
    134 H134        1.7889  -14.8479  -48.5143 H         1 UNK         0.0800 
    135 H135        2.3647  -16.1830  -47.5672 H         1 UNK         0.0800 
    136 H136        1.3053  -15.1570  -50.8995 H         1 UNK         0.1150 
    137 H137        1.4801  -19.1312  -52.4958 H         1 UNK         0.1150 
    138 H138        3.1673  -18.2840  -48.6441 H         1 UNK         0.1150 
    139 H139        2.4818  -20.9173  -51.2714 H         1 UNK         0.0800 
    140 H140        3.9474  -20.3062  -50.5499 H         1 UNK         0.0800 
    141 H141        0.5422  -21.8075  -50.1262 H         1 UNK         0.0800 
    142 H142        0.1116  -20.5203  -49.0211 H         1 UNK         0.0800 
    143 H143        0.8449  -23.3491  -48.1083 H         1 UNK         0.0600 
    144 H144        0.2574  -21.0246  -46.5826 H         1 UNK         0.3000 
    145 H145       -0.9398  -22.7496  -43.6554 H         1 UNK         0.0600 
    146 H146        0.7971  -21.2973  -42.6548 H         1 UNK         0.0600 
    147 H147        1.5417  -22.6457  -43.4996 H         1 UNK         0.0600 
    148 H148        1.5416  -21.0478  -44.2320 H         1 UNK         0.0600 
    149 H149       -0.7433  -19.9745  -44.2155 H         1 UNK         0.3000 
    150 H150       -3.9713  -19.6050  -45.7692 H         1 UNK         0.0600 
    151 H151       -4.4235  -19.5109  -43.3431 H         1 UNK         0.0600 
    152 H152       -4.1293  -17.8888  -43.9547 H         1 UNK         0.0600 
    153 H153       -2.8771  -18.7322  -43.0446 H         1 UNK         0.0600 
    154 H154       -1.9258  -17.7099  -45.1734 H         1 UNK         0.3000 
    155 H155       -0.0208  -18.1013  -48.1538 H         1 UNK         0.0600 
    156 H156       -1.8811  -15.8455  -47.2290 H         1 UNK         0.0600 
    157 H157       -1.8850  -16.6043  -48.8109 H         1 UNK         0.0600 
    158 H158       -0.4960  -15.6646  -48.3023 H         1 UNK         0.0600 
    159 H159        0.0713  -16.4093  -45.7911 H         1 UNK         0.3000 
    160 H160        2.3376  -18.5031  -43.9874 H         1 UNK         0.0600 
    161 H161        2.8008  -15.7754  -45.3023 H         1 UNK         0.0600 
    162 H162        3.7428  -17.2205  -45.6654 H         1 UNK         0.0600 
    163 H163        3.7742  -16.5344  -44.0494 H         1 UNK         0.0600 
    164 H164        1.2367  -15.8925  -43.4946 H         1 UNK         0.3000 
    165 H165       -1.7423  -16.9605  -41.8869 H         1 UNK         0.0600 
    166 H166       -0.8053  -15.7438  -39.9459 H         1 UNK         0.0600 
    167 H167       -0.0148  -17.3033  -40.1069 H         1 UNK         0.0600 
    168 H168        0.8194  -15.8433  -40.6258 H         1 UNK         0.0600 
    169 H169       -0.6728  -14.3875  -42.0292 H         1 UNK         0.3000 
    170 H170       -1.2319  -13.4014  -45.2677 H         1 UNK         0.0600 
    171 H171       -3.6731  -13.6172  -44.8322 H         1 UNK         0.0600 
    172 H172       -3.4558  -13.0166  -43.1925 H         1 UNK         0.0600 
    173 H173       -3.1380  -11.9651  -44.5734 H         1 UNK         0.0600 
    174 H174       -1.2707  -12.0035  -42.7281 H         1 UNK         0.3000 
    175 H175        0.4701  -10.8837  -41.9974 H         1 UNK         0.0600 
    176 H176        2.7113  -12.9729  -41.8009 H         1 UNK         0.0600 
    177 H177        2.3917  -11.6900  -40.6352 H         1 UNK         0.0600 
    178 H178        1.2225  -12.9811  -40.8618 H         1 UNK         0.0600 
    179 H179        3.1829  -10.9275  -43.0614 H         1 UNK         0.3000 
    180 H180        2.6501   -8.3549  -45.4526 H         1 UNK         0.0600 
    181 H181        4.2485   -8.3591  -42.8394 H         1 UNK         0.0600 
    182 H182        3.1283   -7.1215  -43.3813 H         1 UNK         0.0600 
    183 H183        4.6208   -7.3933  -44.2673 H         1 UNK         0.0600 
    184 H184        3.9096   -9.9376  -46.2524 H         1 UNK         0.3000 
    185 H185        6.5010  -11.1578  -45.9946 H         1 UNK         0.0600 
    186 H186        6.8004  -12.7268  -44.1016 H         1 UNK         0.0600 
    187 H187        5.2554  -13.4989  -44.4477 H         1 UNK         0.0600 
    188 H188        6.5923  -13.6389  -45.5874 H         1 UNK         0.0600 
    189 H189        3.8746  -12.5225  -46.4462 H         1 UNK         0.3000 
    190 H190       -2.2136  -21.4851  -47.7744 H         1 UNK         0.3000 
    191 H191       -3.7465  -23.0093  -49.5978 H         1 UNK         0.0600 
    192 H192       -4.7646  -21.5882  -47.0820 H         1 UNK         0.0600 
    193 H193       -5.6814  -21.9851  -48.5260 H         1 UNK         0.0600 
    194 H194       -4.4062  -20.7784  -48.5983 H         1 UNK         0.0600 
    195 H195       -3.2494  -23.4440  -46.0669 H         1 UNK         0.3000 
    196 H196       -4.8796  -25.7303  -45.7365 H         1 UNK         0.0600 
    197 H197       -3.5859  -26.0330  -43.6242 H         1 UNK         0.0600 
    198 H198       -4.0587  -24.3548  -43.8462 H         1 UNK         0.0600 
    199 H199       -2.3992  -24.8520  -44.1641 H         1 UNK         0.0600 
    200 H200       -1.3691  -25.4826  -46.4890 H         1 UNK         0.3000 
    201 H201       -0.8261  -28.2634  -46.6185 H         1 UNK         0.0600 
    202 H202        0.9383  -26.5321  -46.4236 H         1 UNK         0.0600 
    203 H203        0.5526  -25.9173  -48.0291 H         1 UNK         0.0600 
    204 H204        1.2253  -27.5320  -47.8401 H         1 UNK         0.0600 
    205 H205       -1.9677  -25.9843  -49.1201 H         1 UNK         0.3000 
    206 H206       -2.0068  -27.9340  -51.2665 H         1 UNK         0.0600 
    207 H207       -1.6750  -25.4946  -51.6619 H         1 UNK         0.0600 
    208 H208       -3.1046  -26.0737  -52.5010 H         1 UNK         0.0600 
    209 H209       -3.2766  -25.1550  -51.0101 H         1 UNK         0.0600 
    210 H210       -4.0143  -27.6295  -48.5802 H         1 UNK         0.3000 
    211 H211       -6.0460  -28.2325  -47.9615 H         1 UNK         0.0600 
    212 H212       -6.0578  -30.0962  -50.3963 H         1 UNK         0.0600 
    213 H213       -7.0681  -30.2426  -48.9648 H         1 UNK         0.0600 
    214 H214       -5.3319  -30.4689  -48.8333 H         1 UNK         0.0600 
    215 H215       -5.8710  -25.8785  -49.3467 H         1 UNK         0.3000 
    216 H216       -6.9585  -24.2053  -50.2092 H         1 UNK         0.0600 
    217 H217       -9.4059  -24.0640  -50.0553 H         1 UNK         0.0600 
    218 H218       -8.7833  -24.8759  -48.6298 H         1 UNK         0.0600 
    219 H219       -9.5499  -25.8092  -49.9152 H         1 UNK         0.0600 
    220 H220       -6.2676  -26.7149  -52.0500 H         1 UNK         0.3000 
    221 H221       -7.8747  -26.1649  -54.4192 H         1 UNK         0.0600 
    222 H222       -5.3210  -27.8263  -54.1312 H         1 UNK         0.0600 
    223 H223       -6.9494  -28.4441  -53.8485 H         1 UNK         0.0600 
    224 H224       -6.4806  -27.8880  -55.4484 H         1 UNK         0.0600 
    225 H225       -5.1577  -24.6200  -52.9947 H         1 UNK         0.3000 
    226 H226       -4.7407  -22.8792  -55.2428 H         1 UNK         0.0600 
    227 H227       -3.1879  -24.7991  -55.8446 H         1 UNK         0.0600 
    228 H228       -2.2979  -23.3367  -55.4709 H         1 UNK         0.0600 
    229 H229       -2.3916  -24.6279  -54.2826 H         1 UNK         0.0600 
    230 H230       -2.9078  -21.3157  -54.5682 H         1 UNK         0.3000 
    231 H231       -2.1988  -19.6661  -53.3196 H         1 UNK         0.0600 
    232 H232       -0.9555  -21.4240  -52.0781 H         1 UNK         0.0600 
    233 H233       -2.2798  -21.5739  -50.9323 H         1 UNK         0.0600 
    234 H234       -1.3613  -20.0707  -51.0414 H         1 UNK         0.0600 
    235 H235       -3.2298  -19.6521  -50.2729 H         1 UNK         0.3000 
    236 H236       -4.5933  -18.3598  -49.1032 H         1 UNK         0.0600 
    237 H237       -7.0009  -18.3412  -49.5294 H         1 UNK         0.0600 
    238 H238       -6.7787  -18.8557  -51.1937 H         1 UNK         0.0600 
    239 H239       -6.3994  -19.9547  -49.8719 H         1 UNK         0.0600 
    240 H240       -2.8158  -17.2278  -50.9054 H         1 UNK         0.3000 
    241 H241       -3.6942  -15.1655  -52.5222 H         1 UNK         0.0600 
    242 H242       -4.0152  -12.1000  -50.7426 H         1 UNK         0.3800 
    243 H243       -3.9442  -12.8609  -52.3058 H         1 UNK         0.3800 
    244 H244       -1.0354  -15.3707  -51.0282 H         1 UNK         0.0800 
    245 H245       -1.3213  -14.4045  -52.4581 H         1 UNK         0.0800 
    246 H246        0.9034  -15.5781  -53.3140 H         1 UNK         0.0800 
    247 H247        0.9709  -17.1991  -53.9483 H         1 UNK         0.0800 
@<TRIPOS>BOND
     1    1    2 1    
     2    1  127 1    
     3    1  128 1    
     4    1  129 1    
     5    2    3 2    
     6    2    4 am   BACKBONE|DICT|INTERRES
     7    4    5 1    
     8    4  130 1    
     9    5    6 1    
    10    5   65 1    
    11    5  131 1    
    12    6    7 1    
    13    6  132 1    
    14    6  133 1    
    15    7    8 1    
    16    8    9 1    
    17    8  134 1    
    18    8  135 1    
    19    9   10 ar   
    20    9   14 ar   
    21   10   11 ar   
    22   10  136 1    
    23   11   12 ar   
    24   11  126 1    
    25   12   13 ar   
    26   12  137 1    
    27   13   14 ar   
    28   13   15 1    
    29   14  138 1    
    30   15   16 1    
    31   15  139 1    
    32   15  140 1    
    33   16   17 1    
    34   17   18 1    
    35   17  141 1    
    36   17  142 1    
    37   18   19 1    
    38   18   67 1    
    39   18  143 1    
    40   19   20 am   BACKBONE|DICT|INTERRES
    41   19  144 1    
    42   20   21 2    
    43   20   22 1    
    44   22   23 1    
    45   22   24 1    
    46   22  145 1    
    47   23  146 1    
    48   23  147 1    
    49   23  148 1    
    50   24   25 am   BACKBONE|DICT|INTERRES
    51   24  149 1    
    52   25   26 2    
    53   25   27 1    
    54   27   28 1    
    55   27   29 1    
    56   27  150 1    
    57   28  151 1    
    58   28  152 1    
    59   28  153 1    
    60   29   30 am   BACKBONE|DICT|INTERRES
    61   29  154 1    
    62   30   31 2    
    63   30   32 1    
    64   32   33 1    
    65   32   34 1    
    66   32  155 1    
    67   33  156 1    
    68   33  157 1    
    69   33  158 1    
    70   34   35 am   BACKBONE|DICT|INTERRES
    71   34  159 1    
    72   35   36 2    
    73   35   37 1    
    74   37   38 1    
    75   37   39 1    
    76   37  160 1    
    77   38  161 1    
    78   38  162 1    
    79   38  163 1    
    80   39   40 am   BACKBONE|DICT|INTERRES
    81   39  164 1    
    82   40   41 2    
    83   40   42 1    
    84   42   43 1    
    85   42   44 1    
    86   42  165 1    
    87   43  166 1    
    88   43  167 1    
    89   43  168 1    
    90   44   45 am   BACKBONE|DICT|INTERRES
    91   44  169 1    
    92   45   46 2    
    93   45   47 1    
    94   47   48 1    
    95   47   49 1    
    96   47  170 1    
    97   48  171 1    
    98   48  172 1    
    99   48  173 1    
   100   49   50 am   BACKBONE|DICT|INTERRES
   101   49  174 1    
   102   50   51 2    
   103   50   52 1    
   104   52   53 1    
   105   52   54 1    
   106   52  175 1    
   107   53  176 1    
   108   53  177 1    
   109   53  178 1    
   110   54   55 am   BACKBONE|DICT|INTERRES
   111   54  179 1    
   112   55   56 2    
   113   55   57 1    
   114   57   58 1    
   115   57   59 1    
   116   57  180 1    
   117   58  181 1    
   118   58  182 1    
   119   58  183 1    
   120   59   60 am   BACKBONE|DICT|INTERRES
   121   59  184 1    
   122   60   61 2    
   123   60   62 1    
   124   62   63 1    
   125   62   64 1    
   126   62  185 1    
   127   63  186 1    
   128   63  187 1    
   129   63  188 1    
   130   64   65 am   BACKBONE|DICT|INTERRES
   131   64  189 1    
   132   65   66 2    
   133   67   68 2    
   134   67   69 am   BACKBONE|DICT|INTERRES
   135   69   70 1    
   136   69  190 1    
   137   70   71 1    
   138   70   72 1    
   139   70  191 1    
   140   71  192 1    
   141   71  193 1    
   142   71  194 1    
   143   72   73 2    
   144   72   74 am   BACKBONE|DICT|INTERRES
   145   74   75 1    
   146   74  195 1    
   147   75   76 1    
   148   75   77 1    
   149   75  196 1    
   150   76  197 1    
   151   76  198 1    
   152   76  199 1    
   153   77   78 2    
   154   77   79 am   BACKBONE|DICT|INTERRES
   155   79   80 1    
   156   79  200 1    
   157   80   81 1    
   158   80   82 1    
   159   80  201 1    
   160   81  202 1    
   161   81  203 1    
   162   81  204 1    
   163   82   83 2    
   164   82   84 am   BACKBONE|DICT|INTERRES
   165   84   85 1    
   166   84  205 1    
   167   85   86 1    
   168   85   87 1    
   169   85  206 1    
   170   86  207 1    
   171   86  208 1    
   172   86  209 1    
   173   87   88 2    
   174   87   89 am   BACKBONE|DICT|INTERRES
   175   89   90 1    
   176   89  210 1    
   177   90   91 1    
   178   90   92 1    
   179   90  211 1    
   180   91  212 1    
   181   91  213 1    
   182   91  214 1    
   183   92   93 2    
   184   92   94 am   BACKBONE|DICT|INTERRES
   185   94   95 1    
   186   94  215 1    
   187   95   96 1    
   188   95   97 1    
   189   95  216 1    
   190   96  217 1    
   191   96  218 1    
   192   96  219 1    
   193   97   98 2    
   194   97   99 am   BACKBONE|DICT|INTERRES
   195   99  100 1    
   196   99  220 1    
   197  100  101 1    
   198  100  102 1    
   199  100  221 1    
   200  101  222 1    
   201  101  223 1    
   202  101  224 1    
   203  102  103 2    
   204  102  104 am   BACKBONE|DICT|INTERRES
   205  104  105 1    
   206  104  225 1    
   207  105  106 1    
   208  105  107 1    
   209  105  226 1    
   210  106  227 1    
   211  106  228 1    
   212  106  229 1    
   213  107  108 2    
   214  107  109 am   BACKBONE|DICT|INTERRES
   215  109  110 1    
   216  109  230 1    
   217  110  111 1    
   218  110  112 1    
   219  110  231 1    
   220  111  232 1    
   221  111  233 1    
   222  111  234 1    
   223  112  113 2    
   224  112  114 am   BACKBONE|DICT|INTERRES
   225  114  115 1    
   226  114  235 1    
   227  115  116 1    
   228  115  117 1    
   229  115  236 1    
   230  116  237 1    
   231  116  238 1    
   232  116  239 1    
   233  117  118 2    
   234  117  119 am   BACKBONE|DICT|INTERRES
   235  119  120 1    
   236  119  240 1    
   237  120  121 1    
   238  120  124 1    
   239  120  241 1    
   240  121  122 am   BACKBONE|DICT|INTERRES
   241  121  123 2    
   242  122  242 1    
   243  122  243 1    
   244  124  125 1    
   245  124  244 1    
   246  124  245 1    
   247  125  126 1    
   248  126  246 1    
   249  126  247 1    
@<TRIPOS>SUBSTRUCTURE
     1 UNK         1 GROUP             0       ****    0 ROOT    
