@<TRIPOS>MOLECULE
3R540
247   249    1
SMALL
USER_CHARGES


@<TRIPOS>ATOM
      1 CA          1.8966  -15.1226  -53.9758 C.3       0 UNK        -0.1800 
      2 C           2.0666  -14.8837  -52.4817 C.2       0 UNK         0.5000 
      3 O           2.8425  -14.0109  -52.0916 O.2       0 UNK        -0.5000 
      4 N           1.3546  -15.6580  -51.6571 N.am      1 UNK        -0.5000 
      5 CA          1.3560  -15.5706  -50.1959 C.3       1 UNK         0.1400 
      6 C6          2.1974  -16.6902  -49.5202 C.3       23 UNK        -0.0398 
      7 S7          4.0064  -16.5377  -49.7802 S.3       23 UNK        -0.2404 
      8 C8          4.3677  -17.5387  -51.2677 C.3       23 UNK        -0.0205 
      9 C9          3.7521  -18.9244  -51.1953 C.ar      23 UNK        -0.0193 
     10 C10         2.5393  -19.1703  -51.8394 C.ar      23 UNK        -0.1150 
     11 C11         1.8729  -20.3806  -51.6517 C.ar      23 UNK        -0.0193 
     12 C12         2.4587  -21.3795  -50.8719 C.ar      23 UNK        -0.1150 
     13 C13         3.6948  -21.1596  -50.2564 C.ar      23 UNK        -0.0193 
     14 C14         4.3436  -19.9321  -50.4289 C.ar      23 UNK        -0.1150 
     15 C15         4.2824  -22.2204  -49.3376 C.3       23 UNK        -0.0205 
     16 S16         4.3777  -21.6671  -47.6010 S.3       23 UNK        -0.2404 
     17 C17         2.6805  -21.0790  -47.2741 C.3       23 UNK        -0.0398 
     18 CA          1.7391  -22.2073  -46.7720 C.3       11 UNK         0.1400 
     19 N           1.3435  -22.0100  -45.3743 N.am      11 UNK        -0.5000 
     20 C           0.6404  -22.8840  -44.6417 C.2       10 UNK         0.5000 
     21 O           0.3005  -23.9959  -45.0439 O.2       10 UNK        -0.5000 
     22 CA          0.1972  -22.4176  -43.2436 C.3       10 UNK         0.1400 
     23 CB          1.3166  -22.6397  -42.2162 C.3       10 UNK        -0.1800 
     24 N          -0.2286  -21.0159  -43.2253 N.am      10 UNK        -0.5000 
     25 C          -1.2846  -20.5362  -43.8999 C.2       9 UNK         0.5000 
     26 O          -2.0413  -21.2403  -44.5668 O.2       9 UNK        -0.5000 
     27 CA         -1.5047  -19.0131  -43.8728 C.3       9 UNK         0.1400 
     28 CB         -2.1849  -18.5756  -42.5676 C.3       9 UNK        -0.1800 
     29 N          -0.2597  -18.2697  -44.0467 N.am      9 UNK        -0.5000 
     30 C           0.4997  -18.2907  -45.1499 C.2       8 UNK         0.5000 
     31 O           0.2049  -18.8947  -46.1827 O.2       8 UNK        -0.5000 
     32 CA          1.8399  -17.5415  -45.0663 C.3       8 UNK         0.1400 
     33 CB          1.6441  -16.0407  -45.3212 C.3       8 UNK        -0.1800 
     34 N           2.4982  -17.7356  -43.7739 N.am      8 UNK        -0.5000 
     35 C           3.0273  -18.8950  -43.3585 C.2       7 UNK         0.5000 
     36 O           3.0228  -19.9278  -44.0270 O.2       7 UNK        -0.5000 
     37 CA          3.6279  -18.9109  -41.9415 C.3       7 UNK         0.1400 
     38 CB          5.0391  -18.3044  -41.9418 C.3       7 UNK        -0.1800 
     39 N           2.7935  -18.2033  -40.9697 N.am      7 UNK        -0.5000 
     40 C           1.5750  -18.6091  -40.5869 C.2       6 UNK         0.5000 
     41 O           1.0339  -19.6337  -40.9996 O.2       6 UNK        -0.5000 
     42 CA          0.8130  -17.6930  -39.6127 C.3       6 UNK         0.1400 
     43 CB          1.2158  -17.9948  -38.1615 C.3       6 UNK        -0.1800 
     44 N           0.9846  -16.2611  -39.8782 N.am      6 UNK        -0.5000 
     45 C           0.6699  -15.6541  -41.0299 C.2       5 UNK         0.5000 
     46 O           0.3081  -16.2531  -42.0446 O.2       5 UNK        -0.5000 
     47 CA          0.8130  -14.1221  -41.0657 C.3       5 UNK         0.1400 
     48 CB          2.1233  -13.7259  -41.7636 C.3       5 UNK        -0.1800 
     49 N          -0.3075  -13.4990  -41.7692 N.am      5 UNK        -0.5000 
     50 C          -1.5867  -13.5350  -41.3680 C.2       4 UNK         0.5000 
     51 O          -1.9471  -13.9955  -40.2835 O.2       4 UNK        -0.5000 
     52 CA         -2.6477  -12.9523  -42.3268 C.3       4 UNK         0.1400 
     53 CB         -3.1493  -11.5939  -41.8116 C.3       4 UNK        -0.1800 
     54 N          -2.1869  -12.7896  -43.7099 N.am      4 UNK        -0.5000 
     55 C          -1.9084  -13.7952  -44.5498 C.2       3 UNK         0.5000 
     56 O          -2.0106  -14.9853  -44.2451 O.2       3 UNK        -0.5000 
     57 CA         -1.4030  -13.3824  -45.9477 C.3       3 UNK         0.1400 
     58 CB         -0.0436  -12.6661  -45.8563 C.3       3 UNK        -0.1800 
     59 N          -1.2594  -14.5303  -46.8407 N.am      3 UNK        -0.5000 
     60 C          -2.2693  -15.1982  -47.4126 C.2       2 UNK         0.5000 
     61 O          -3.4502  -14.8580  -47.3181 O.2       2 UNK        -0.5000 
     62 CA         -1.8849  -16.4606  -48.2167 C.3       2 UNK         0.1400 
     63 CB         -2.9565  -16.8470  -49.2586 C.3       2 UNK        -0.1800 
     64 N          -0.5471  -16.3959  -48.8293 N.am      2 UNK        -0.5000 
     65 C          -0.1187  -15.5037  -49.7392 C.2       1 UNK         0.5000 
     66 O          -0.8380  -14.6173  -50.2030 O.2       1 UNK        -0.5000 
     67 C           0.5123  -22.3663  -47.6954 C.2       11 UNK         0.5000 
     68 O           0.4762  -23.2899  -48.5089 O.2       11 UNK        -0.5000 
     69 N          -0.4867  -21.4899  -47.5236 N.am      12 UNK        -0.5000 
     70 CA         -1.7544  -21.5376  -48.2510 C.3       12 UNK         0.1400 
     71 CB         -2.5330  -20.2423  -48.0012 C.3       12 UNK        -0.1800 
     72 C          -2.5972  -22.7772  -47.9064 C.2       12 UNK         0.5000 
     73 O          -3.1683  -23.3875  -48.8095 O.2       12 UNK        -0.5000 
     74 N          -2.6171  -23.1638  -46.6231 N.am      13 UNK        -0.5000 
     75 CA         -3.2628  -24.3833  -46.1364 C.3       13 UNK         0.1400 
     76 CB         -3.2565  -24.4015  -44.6010 C.3       13 UNK        -0.1800 
     77 C          -2.6196  -25.6613  -46.7063 C.2       13 UNK         0.5000 
     78 O          -3.3449  -26.5762  -47.0959 O.2       13 UNK        -0.5000 
     79 N          -1.2816  -25.6841  -46.7965 N.am      14 UNK        -0.5000 
     80 CA         -0.5063  -26.7541  -47.4300 C.3       14 UNK         0.1400 
     81 CB          0.9864  -26.5620  -47.1217 C.3       14 UNK        -0.1800 
     82 C          -0.7468  -26.8457  -48.9498 C.2       14 UNK         0.5000 
     83 O          -0.8127  -27.9511  -49.4884 O.2       14 UNK        -0.5000 
     84 N          -0.9147  -25.6883  -49.6048 N.am      15 UNK        -0.5000 
     85 CA         -1.3038  -25.5674  -51.0131 C.3       15 UNK         0.1400 
     86 CB         -0.9617  -24.1515  -51.5024 C.3       15 UNK        -0.1800 
     87 C          -2.7925  -25.8897  -51.2730 C.2       15 UNK         0.5000 
     88 O          -3.1730  -26.0649  -52.4311 O.2       15 UNK        -0.5000 
     89 N          -3.5946  -25.9640  -50.2009 N.am      16 UNK        -0.5000 
     90 CA         -5.0353  -26.2199  -50.1569 C.3       16 UNK         0.1400 
     91 CB         -5.3546  -27.6472  -50.6490 C.3       16 UNK        -0.1800 
     92 C          -5.8561  -25.1251  -50.8687 C.2       16 UNK         0.5000 
     93 O          -6.7526  -25.4367  -51.6560 O.2       16 UNK        -0.5000 
     94 N          -5.5371  -23.8589  -50.5760 N.am      17 UNK        -0.5000 
     95 CA         -6.2141  -22.6808  -51.1131 C.3       17 UNK         0.1400 
     96 CB         -5.4084  -22.1451  -52.3074 C.3       17 UNK        -0.1800 
     97 C          -6.3716  -21.6117  -50.0208 C.2       17 UNK         0.5000 
     98 O          -5.6800  -21.6586  -49.0028 O.2       17 UNK        -0.5000 
     99 N          -7.2780  -20.6574  -50.2556 N.am      18 UNK        -0.5000 
    100 CA        -7.5705  -19.5425  -49.3509 C.3       18 UNK         0.1400 
    101 CB        -8.5773  -19.9916  -48.2729 C.3       18 UNK        -0.1800 
    102 C         -8.0447  -18.3034  -50.1350 C.2       18 UNK         0.5000 
    103 O         -8.8285  -17.5068  -49.6160 O.2       18 UNK        -0.5000 
    104 N         -7.5747  -18.1647  -51.3796 N.am      19 UNK        -0.5000 
    105 CA        -7.8978  -17.0827  -52.3036 C.3       19 UNK         0.1400 
    106 CB        -9.2618  -17.3507  -52.9670 C.3       19 UNK        -0.1800 
    107 C         -6.7818  -16.9877  -53.3533 C.2       19 UNK         0.5000 
    108 O         -5.9616  -17.9054  -53.4547 O.2       19 UNK        -0.5000 
    109 N         -6.7691  -15.8786  -54.1081 N.am      20 UNK        -0.5000 
    110 CA        -5.8713  -15.5838  -55.2372 C.3       20 UNK         0.1400 
    111 CB        -6.2183  -16.4897  -56.4373 C.3       20 UNK        -0.1800 
    112 C         -4.3699  -15.6367  -54.8749 C.2       20 UNK         0.5000 
    113 O         -3.5471  -16.0453  -55.6974 O.2       20 UNK        -0.5000 
    114 N         -4.0499  -15.2706  -53.6232 N.am      21 UNK        -0.5000 
    115 CA        -2.7257  -15.3475  -52.9896 C.3       21 UNK         0.1400 
    116 CB        -1.7728  -14.3099  -53.6180 C.3       21 UNK        -0.1800 
    117 C         -2.1300  -16.7770  -52.9842 C.2       21 UNK         0.5000 
    118 O         -0.9078  -16.9242  -53.0122 O.2       21 UNK        -0.5000 
    119 N         -3.0163  -17.7865  -53.0007 N.am      22 UNK        -0.5000 
    120 CA        -2.7708  -19.2137  -53.2735 C.3       22 UNK         0.1400 
    121 C         -2.0749  -19.5458  -54.6304 C.2       22 UNK         0.5000 
    122 N         -2.0482  -18.6413  -55.6030 N.am      22 UNK        -0.7600 
    123 O         -1.6011  -20.6597  -54.8352 O.2       22 UNK        -0.5000 
    124 C124       -2.2798  -20.0474  -52.0520 C.3       23 UNK        -0.0398 
    125 S125       -0.7055  -19.5620  -51.2795 S.3       23 UNK        -0.2404 
    126 C126        0.4835  -20.5594  -52.2264 C.3       23 UNK        -0.0205 
    127 H127        1.3912  -14.2745  -54.4373 H         1 UNK         0.0600 
    128 H128        1.3133  -16.0206  -54.1797 H         1 UNK         0.0600 
    129 H129        2.8706  -15.2409  -54.4504 H         1 UNK         0.0600 
    130 H130        0.6564  -16.2838  -52.0546 H         1 UNK         0.3000 
    131 H131        1.7821  -14.6136  -49.8877 H         1 UNK         0.0600 
    132 H132        2.0744  -16.6426  -48.4382 H         1 UNK         0.0800 
    133 H133        1.8382  -17.6770  -49.8059 H         1 UNK         0.0800 
    134 H134        5.4492  -17.6260  -51.3795 H         1 UNK         0.0800 
    135 H135        4.0163  -17.0116  -52.1547 H         1 UNK         0.0800 
    136 H136        2.0670  -18.3887  -52.4184 H         1 UNK         0.1150 
    137 H137        1.9317  -22.3092  -50.7080 H         1 UNK         0.1150 
    138 H138        5.2769  -19.7410  -49.9179 H         1 UNK         0.1150 
    139 H139        3.6935  -23.1382  -49.3806 H         1 UNK         0.0800 
    140 H140        5.2833  -22.4803  -49.6842 H         1 UNK         0.0800 
    141 H141        2.2890  -20.5606  -48.1499 H         1 UNK         0.0800 
    142 H142        2.7645  -20.2867  -46.5328 H         1 UNK         0.0800 
    143 H143        2.2697  -23.1612  -46.8075 H         1 UNK         0.0600 
    144 H144        1.6376  -21.1426  -44.9388 H         1 UNK         0.3000 
    145 H145       -0.6578  -23.0277  -42.9465 H         1 UNK         0.0600 
    146 H146        0.9761  -22.4068  -41.2073 H         1 UNK         0.0600 
    147 H147        1.6460  -23.6794  -42.2155 H         1 UNK         0.0600 
    148 H148        2.1874  -22.0186  -42.4271 H         1 UNK         0.0600 
    149 H149        0.3165  -20.3845  -42.6454 H         1 UNK         0.3000 
    150 H150       -2.1646  -18.7550  -44.7037 H         1 UNK         0.0600 
    151 H151       -3.1385  -19.0873  -42.4334 H         1 UNK         0.0600 
    152 H152       -2.3859  -17.5036  -42.5707 H         1 UNK         0.0600 
    153 H153       -1.5665  -18.7958  -41.6974 H         1 UNK         0.0600 
    154 H154        0.0315  -17.6828  -43.2685 H         1 UNK         0.3000 
    155 H155        2.4959  -17.9348  -45.8455 H         1 UNK         0.0600 
    156 H156        0.9704  -15.5936  -44.5894 H         1 UNK         0.0600 
    157 H157        1.2190  -15.8675  -46.3085 H         1 UNK         0.0600 
    158 H158        2.5922  -15.5044  -45.2780 H         1 UNK         0.0600 
    159 H159        2.4785  -16.9561  -43.1334 H         1 UNK         0.3000 
    160 H160        3.7059  -19.9535  -41.6257 H         1 UNK         0.0600 
    161 H161        5.0267  -17.2499  -42.2203 H         1 UNK         0.0600 
    162 H162        5.6861  -18.8236  -42.6503 H         1 UNK         0.0600 
    163 H163        5.5034  -18.3869  -40.9590 H         1 UNK         0.0600 
    164 H164        3.1597  -17.3451  -40.5850 H         1 UNK         0.3000 
    165 H165       -0.2500  -17.9175  -39.7216 H         1 UNK         0.0600 
    166 H166        0.6055  -17.4299  -37.4566 H         1 UNK         0.0600 
    167 H167        1.0806  -19.0524  -37.9305 H         1 UNK         0.0600 
    168 H168        2.2617  -17.7488  -37.9736 H         1 UNK         0.0600 
    169 H169        1.2902  -15.6972  -39.0982 H         1 UNK         0.3000 
    170 H170        0.8285  -13.7390  -40.0433 H         1 UNK         0.0600 
    171 H171        2.9849  -14.1598  -41.2545 H         1 UNK         0.0600 
    172 H172        2.1480  -14.0667  -42.7995 H         1 UNK         0.0600 
    173 H173        2.2585  -12.6441  -41.7637 H         1 UNK         0.0600 
    174 H174       -0.1120  -13.1224  -42.6833 H         1 UNK         0.3000 
    175 H175       -3.4905  -13.6467  -42.3326 H         1 UNK         0.0600 
    176 H176       -2.3519  -10.8498  -41.7977 H         1 UNK         0.0600 
    177 H177       -3.9582  -11.2096  -42.4332 H         1 UNK         0.0600 
    178 H178       -3.5363  -11.6788  -40.7952 H         1 UNK         0.0600 
    179 H179       -2.0766  -11.8387  -44.0319 H         1 UNK         0.3000 
    180 H180       -2.1317  -12.6951  -46.3826 H         1 UNK         0.0600 
    181 H181        0.7106  -13.2831  -45.3679 H         1 UNK         0.0600 
    182 H182       -0.1211  -11.7375  -45.2900 H         1 UNK         0.0600 
    183 H183        0.3300  -12.4033  -46.8464 H         1 UNK         0.0600 
    184 H184       -0.3267  -14.8892  -46.9608 H         1 UNK         0.3000 
    185 H185       -1.8344  -17.2626  -47.4798 H         1 UNK         0.0600 
    186 H186       -2.6291  -17.6750  -49.8857 H         1 UNK         0.0600 
    187 H187       -3.8804  -17.1562  -48.7688 H         1 UNK         0.0600 
    188 H188       -3.2014  -16.0097  -49.9095 H         1 UNK         0.0600 
    189 H189        0.0895  -17.1165  -48.5208 H         1 UNK         0.3000 
    190 H190       -0.3694  -20.7338  -46.8570 H         1 UNK         0.3000 
    191 H191       -1.5225  -21.5907  -49.3155 H         1 UNK         0.0600 
    192 H192       -3.4552  -20.2187  -48.5819 H         1 UNK         0.0600 
    193 H193       -1.9357  -19.3857  -48.3043 H         1 UNK         0.0600 
    194 H194       -2.7962  -20.1188  -46.9507 H         1 UNK         0.0600 
    195 H195       -2.1782  -22.5677  -45.9264 H         1 UNK         0.3000 
    196 H196       -4.3026  -24.3589  -46.4692 H         1 UNK         0.0600 
    197 H197       -2.2431  -24.4272  -44.2017 H         1 UNK         0.0600 
    198 H198       -3.7547  -23.5214  -44.1939 H         1 UNK         0.0600 
    199 H199       -3.7809  -25.2785  -44.2200 H         1 UNK         0.0600 
    200 H200       -0.7517  -24.9157  -46.3944 H         1 UNK         0.3000 
    201 H201       -0.8229  -27.7011  -46.9881 H         1 UNK         0.0600 
    202 H202        1.1703  -26.5687  -46.0472 H         1 UNK         0.0600 
    203 H203        1.3636  -25.6194  -47.5183 H         1 UNK         0.0600 
    204 H204        1.5819  -27.3641  -47.5592 H         1 UNK         0.0600 
    205 H205       -0.7701  -24.8203  -49.0993 H         1 UNK         0.3000 
    206 H206       -0.7117  -26.2775  -51.5940 H         1 UNK         0.0600 
    207 H207        0.0972  -23.9346  -51.3626 H         1 UNK         0.0600 
    208 H208       -1.1801  -24.0391  -52.5651 H         1 UNK         0.0600 
    209 H209       -1.5329  -23.3917  -50.9697 H         1 UNK         0.0600 
    210 H210       -3.1742  -25.7543  -49.3052 H         1 UNK         0.3000 
    211 H211       -5.3172  -26.1689  -49.1044 H         1 UNK         0.0600 
    212 H212       -6.4078  -27.8854  -50.4967 H         1 UNK         0.0600 
    213 H213       -4.7725  -28.3898  -50.1032 H         1 UNK         0.0600 
    214 H214       -5.1427  -27.7690  -51.7115 H         1 UNK         0.0600 
    215 H215       -4.8050  -23.6658  -49.8945 H         1 UNK         0.3000 
    216 H216       -7.2183  -22.9459  -51.4506 H         1 UNK         0.0600 
    217 H217       -4.3777  -21.9440  -52.0224 H         1 UNK         0.0600 
    218 H218       -5.8344  -21.2214  -52.7011 H         1 UNK         0.0600 
    219 H219       -5.3901  -22.8686  -53.1227 H         1 UNK         0.0600 
    220 H220       -7.8247  -20.6872  -51.1055 H         1 UNK         0.3000 
    221 H221       -6.6480  -19.2395  -48.8508 H         1 UNK         0.0600 
    222 H222       -8.1965  -20.8401  -47.7042 H         1 UNK         0.0600 
    223 H223       -9.5301  -20.2847  -48.7147 H         1 UNK         0.0600 
    224 H224       -8.7754  -19.1915  -47.5587 H         1 UNK         0.0600 
    225 H225       -6.8705  -18.8017  -51.7309 H         1 UNK         0.3000 
    226 H226       -7.9317  -16.1382  -51.7564 H         1 UNK         0.0600 
    227 H227       -9.2587  -18.2893  -53.5225 H         1 UNK         0.0600 
    228 H228      -10.0600  -17.4039  -52.2265 H         1 UNK         0.0600 
    229 H229       -9.5255  -16.5561  -53.6658 H         1 UNK         0.0600 
    230 H230       -7.4729  -15.1755  -53.9283 H         1 UNK         0.3000 
    231 H231       -6.0730  -14.5532  -55.5322 H         1 UNK         0.0600 
    232 H232       -5.9867  -17.5357  -56.2330 H         1 UNK         0.0600 
    233 H233       -5.6578  -16.1976  -57.3261 H         1 UNK         0.0600 
    234 H234       -7.2769  -16.4237  -56.6881 H         1 UNK         0.0600 
    235 H235       -4.8023  -14.9600  -53.0250 H         1 UNK         0.3000 
    236 H236       -2.8714  -15.0662  -51.9478 H         1 UNK         0.0600 
    237 H237       -0.8611  -14.2152  -53.0291 H         1 UNK         0.0600 
    238 H238       -1.4827  -14.5864  -54.6321 H         1 UNK         0.0600 
    239 H239       -2.2322  -13.3224  -53.6559 H         1 UNK         0.0600 
    240 H240       -3.9992  -17.5396  -53.0191 H         1 UNK         0.3000 
    241 H241       -3.7776  -19.5889  -53.4592 H         1 UNK         0.0600 
    242 H242       -1.6125  -18.8764  -56.4799 H         1 UNK         0.3800 
    243 H243       -2.4798  -17.7302  -55.4879 H         1 UNK         0.3800 
    244 H244       -2.2265  -21.1063  -52.3078 H         1 UNK         0.0800 
    245 H245       -3.0349  -19.9837  -51.2677 H         1 UNK         0.0800 
    246 H246        0.1875  -21.6081  -52.2123 H         1 UNK         0.0800 
    247 H247        0.4848  -20.2416  -53.2689 H         1 UNK         0.0800 
@<TRIPOS>BOND
     1    1    2 1    
     2    1  127 1    
     3    1  128 1    
     4    1  129 1    
     5    2    3 2    
     6    2    4 am   BACKBONE|DICT|INTERRES
     7    4    5 1    
     8    4  130 1    
     9    5    6 1    
    10    5   65 1    
    11    5  131 1    
    12    6    7 1    
    13    6  132 1    
    14    6  133 1    
    15    7    8 1    
    16    8    9 1    
    17    8  134 1    
    18    8  135 1    
    19    9   10 ar   
    20    9   14 ar   
    21   10   11 ar   
    22   10  136 1    
    23   11   12 ar   
    24   11  126 1    
    25   12   13 ar   
    26   12  137 1    
    27   13   14 ar   
    28   13   15 1    
    29   14  138 1    
    30   15   16 1    
    31   15  139 1    
    32   15  140 1    
    33   16   17 1    
    34   17   18 1    
    35   17  141 1    
    36   17  142 1    
    37   18   19 1    
    38   18   67 1    
    39   18  143 1    
    40   19   20 am   BACKBONE|DICT|INTERRES
    41   19  144 1    
    42   20   21 2    
    43   20   22 1    
    44   22   23 1    
    45   22   24 1    
    46   22  145 1    
    47   23  146 1    
    48   23  147 1    
    49   23  148 1    
    50   24   25 am   BACKBONE|DICT|INTERRES
    51   24  149 1    
    52   25   26 2    
    53   25   27 1    
    54   27   28 1    
    55   27   29 1    
    56   27  150 1    
    57   28  151 1    
    58   28  152 1    
    59   28  153 1    
    60   29   30 am   BACKBONE|DICT|INTERRES
    61   29  154 1    
    62   30   31 2    
    63   30   32 1    
    64   32   33 1    
    65   32   34 1    
    66   32  155 1    
    67   33  156 1    
    68   33  157 1    
    69   33  158 1    
    70   34   35 am   BACKBONE|DICT|INTERRES
    71   34  159 1    
    72   35   36 2    
    73   35   37 1    
    74   37   38 1    
    75   37   39 1    
    76   37  160 1    
    77   38  161 1    
    78   38  162 1    
    79   38  163 1    
    80   39   40 am   BACKBONE|DICT|INTERRES
    81   39  164 1    
    82   40   41 2    
    83   40   42 1    
    84   42   43 1    
    85   42   44 1    
    86   42  165 1    
    87   43  166 1    
    88   43  167 1    
    89   43  168 1    
    90   44   45 am   BACKBONE|DICT|INTERRES
    91   44  169 1    
    92   45   46 2    
    93   45   47 1    
    94   47   48 1    
    95   47   49 1    
    96   47  170 1    
    97   48  171 1    
    98   48  172 1    
    99   48  173 1    
   100   49   50 am   BACKBONE|DICT|INTERRES
   101   49  174 1    
   102   50   51 2    
   103   50   52 1    
   104   52   53 1    
   105   52   54 1    
   106   52  175 1    
   107   53  176 1    
   108   53  177 1    
   109   53  178 1    
   110   54   55 am   BACKBONE|DICT|INTERRES
   111   54  179 1    
   112   55   56 2    
   113   55   57 1    
   114   57   58 1    
   115   57   59 1    
   116   57  180 1    
   117   58  181 1    
   118   58  182 1    
   119   58  183 1    
   120   59   60 am   BACKBONE|DICT|INTERRES
   121   59  184 1    
   122   60   61 2    
   123   60   62 1    
   124   62   63 1    
   125   62   64 1    
   126   62  185 1    
   127   63  186 1    
   128   63  187 1    
   129   63  188 1    
   130   64   65 am   BACKBONE|DICT|INTERRES
   131   64  189 1    
   132   65   66 2    
   133   67   68 2    
   134   67   69 am   BACKBONE|DICT|INTERRES
   135   69   70 1    
   136   69  190 1    
   137   70   71 1    
   138   70   72 1    
   139   70  191 1    
   140   71  192 1    
   141   71  193 1    
   142   71  194 1    
   143   72   73 2    
   144   72   74 am   BACKBONE|DICT|INTERRES
   145   74   75 1    
   146   74  195 1    
   147   75   76 1    
   148   75   77 1    
   149   75  196 1    
   150   76  197 1    
   151   76  198 1    
   152   76  199 1    
   153   77   78 2    
   154   77   79 am   BACKBONE|DICT|INTERRES
   155   79   80 1    
   156   79  200 1    
   157   80   81 1    
   158   80   82 1    
   159   80  201 1    
   160   81  202 1    
   161   81  203 1    
   162   81  204 1    
   163   82   83 2    
   164   82   84 am   BACKBONE|DICT|INTERRES
   165   84   85 1    
   166   84  205 1    
   167   85   86 1    
   168   85   87 1    
   169   85  206 1    
   170   86  207 1    
   171   86  208 1    
   172   86  209 1    
   173   87   88 2    
   174   87   89 am   BACKBONE|DICT|INTERRES
   175   89   90 1    
   176   89  210 1    
   177   90   91 1    
   178   90   92 1    
   179   90  211 1    
   180   91  212 1    
   181   91  213 1    
   182   91  214 1    
   183   92   93 2    
   184   92   94 am   BACKBONE|DICT|INTERRES
   185   94   95 1    
   186   94  215 1    
   187   95   96 1    
   188   95   97 1    
   189   95  216 1    
   190   96  217 1    
   191   96  218 1    
   192   96  219 1    
   193   97   98 2    
   194   97   99 am   BACKBONE|DICT|INTERRES
   195   99  100 1    
   196   99  220 1    
   197  100  101 1    
   198  100  102 1    
   199  100  221 1    
   200  101  222 1    
   201  101  223 1    
   202  101  224 1    
   203  102  103 2    
   204  102  104 am   BACKBONE|DICT|INTERRES
   205  104  105 1    
   206  104  225 1    
   207  105  106 1    
   208  105  107 1    
   209  105  226 1    
   210  106  227 1    
   211  106  228 1    
   212  106  229 1    
   213  107  108 2    
   214  107  109 am   BACKBONE|DICT|INTERRES
   215  109  110 1    
   216  109  230 1    
   217  110  111 1    
   218  110  112 1    
   219  110  231 1    
   220  111  232 1    
   221  111  233 1    
   222  111  234 1    
   223  112  113 2    
   224  112  114 am   BACKBONE|DICT|INTERRES
   225  114  115 1    
   226  114  235 1    
   227  115  116 1    
   228  115  117 1    
   229  115  236 1    
   230  116  237 1    
   231  116  238 1    
   232  116  239 1    
   233  117  118 2    
   234  117  119 am   BACKBONE|DICT|INTERRES
   235  119  120 1    
   236  119  240 1    
   237  120  121 1    
   238  120  124 1    
   239  120  241 1    
   240  121  122 am   BACKBONE|DICT|INTERRES
   241  121  123 2    
   242  122  242 1    
   243  122  243 1    
   244  124  125 1    
   245  124  244 1    
   246  124  245 1    
   247  125  126 1    
   248  126  246 1    
   249  126  247 1    
@<TRIPOS>SUBSTRUCTURE
     1 UNK         1 GROUP             0       ****    0 ROOT    
