@<TRIPOS>MOLECULE
3R540
247   249    1
SMALL
USER_CHARGES


@<TRIPOS>ATOM
      1 CA          6.1791  -14.3392  -45.5694 C.3       0 UNK        -0.1800 
      2 C           4.7903  -13.7471  -45.7520 C.2       0 UNK         0.5000 
      3 O           4.2183  -13.2281  -44.7949 O.2       0 UNK        -0.5000 
      4 N           4.2544  -13.8053  -46.9786 N.am      1 UNK        -0.5000 
      5 CA          2.9019  -13.3633  -47.3544 C.3       1 UNK         0.1400 
      6 C6          2.5940  -13.6208  -48.8525 C.3       23 UNK        -0.0398 
      7 S7          3.0546  -15.2843  -49.4472 S.3       23 UNK        -0.2404 
      8 C8          1.4808  -16.1785  -49.3093 C.3       23 UNK        -0.0205 
      9 C9          1.5011  -17.4348  -50.1636 C.ar      23 UNK        -0.0193 
     10 C10         0.9928  -17.4035  -51.4660 C.ar      23 UNK        -0.1150 
     11 C11         1.0331  -18.5452  -52.2711 C.ar      23 UNK        -0.0193 
     12 C12         1.5918  -19.7219  -51.7656 C.ar      23 UNK        -0.1150 
     13 C13         2.1076  -19.7641  -50.4675 C.ar      23 UNK        -0.0193 
     14 C14         2.0503  -18.6200  -49.6655 C.ar      23 UNK        -0.1150 
     15 C15         2.7505  -21.0409  -49.9484 C.3       23 UNK        -0.0205 
     16 S16         1.5098  -22.3062  -49.5457 S.3       23 UNK        -0.2404 
     17 C17         0.6639  -21.5217  -48.1339 C.3       23 UNK        -0.0398 
     18 CA          0.0614  -22.5633  -47.1658 C.3       11 UNK         0.1400 
     19 N          -0.1377  -22.0161  -45.8256 N.am      11 UNK        -0.5000 
     20 C          -0.3754  -22.7597  -44.7369 C.2       10 UNK         0.5000 
     21 O          -0.3623  -23.9904  -44.7341 O.2       10 UNK        -0.5000 
     22 CA         -0.7267  -22.0015  -43.4450 C.3       10 UNK         0.1400 
     23 CB          0.5496  -21.6061  -42.6881 C.3       10 UNK        -0.1800 
     24 N          -1.5404  -20.8102  -43.6977 N.am      10 UNK        -0.5000 
     25 C          -2.7821  -20.8332  -44.2035 C.2       9 UNK         0.5000 
     26 O          -3.3953  -21.8717  -44.4511 O.2       9 UNK        -0.5000 
     27 CA         -3.4266  -19.4731  -44.5335 C.3       9 UNK         0.1400 
     28 CB         -4.0045  -18.8210  -43.2696 C.3       9 UNK        -0.1800 
     29 N          -2.4968  -18.5464  -45.1827 N.am      9 UNK        -0.5000 
     30 C          -1.9426  -18.7424  -46.3879 C.2       8 UNK         0.5000 
     31 O          -2.1779  -19.7177  -47.0987 O.2       8 UNK        -0.5000 
     32 CA         -0.9117  -17.7020  -46.8552 C.3       8 UNK         0.1400 
     33 CB         -1.5964  -16.4607  -47.4492 C.3       8 UNK        -0.1800 
     34 N          -0.0285  -17.2981  -45.7632 N.am      8 UNK        -0.5000 
     35 C           0.9180  -18.0819  -45.2288 C.2       7 UNK         0.5000 
     36 O           1.1702  -19.2181  -45.6287 O.2       7 UNK        -0.5000 
     37 CA          1.6782  -17.5122  -44.0175 C.3       7 UNK         0.1400 
     38 CB          2.8260  -16.6036  -44.4822 C.3       7 UNK        -0.1800 
     39 N           0.8015  -16.7669  -43.1119 N.am      7 UNK        -0.5000 
     40 C          -0.1829  -17.3255  -42.3897 C.2       6 UNK         0.5000 
     41 O          -0.4145  -18.5326  -42.3769 O.2       6 UNK        -0.5000 
     42 CA         -1.0996  -16.3821  -41.5874 C.3       6 UNK         0.1400 
     43 CB         -0.5461  -16.1756  -40.1699 C.3       6 UNK        -0.1800 
     44 N          -1.2897  -15.0786  -42.2214 N.am      6 UNK        -0.5000 
     45 C          -1.7757  -14.8669  -43.4534 C.2       5 UNK         0.5000 
     46 O          -2.2065  -15.7649  -44.1770 O.2       5 UNK        -0.5000 
     47 CA         -1.7214  -13.4187  -43.9827 C.3       5 UNK         0.1400 
     48 CB         -3.1159  -12.7775  -43.9371 C.3       5 UNK        -0.1800 
     49 N          -0.7762  -12.5707  -43.2460 N.am      5 UNK        -0.5000 
     50 C           0.5544  -12.7294  -43.2495 C.2       4 UNK         0.5000 
     51 O           1.1414  -13.5820  -43.9185 O.2       4 UNK        -0.5000 
     52 CA          1.3375  -11.8629  -42.2578 C.3       4 UNK         0.1400 
     53 CB          1.5608  -12.6326  -40.9418 C.3       4 UNK        -0.1800 
     54 N           2.6172  -11.4708  -42.8363 N.am      4 UNK        -0.5000 
     55 C           3.3464  -10.4280  -42.4178 C.2       3 UNK         0.5000 
     56 O           3.0299   -9.7077  -41.4697 O.2       3 UNK        -0.5000 
     57 CA          4.6277  -10.1100  -43.2040 C.3       3 UNK         0.1400 
     58 CB          5.7913  -11.0104  -42.7586 C.3       3 UNK        -0.1800 
     59 N           4.4138  -10.2425  -44.6440 N.am      3 UNK        -0.5000 
     60 C           3.8402   -9.3011  -45.4078 C.2       2 UNK         0.5000 
     61 O           3.4710   -8.2078  -44.9770 O.2       2 UNK        -0.5000 
     62 CA          3.6569   -9.6130  -46.9052 C.3       2 UNK         0.1400 
     63 CB          4.7542   -8.9256  -47.7327 C.3       2 UNK        -0.1800 
     64 N           3.6784  -11.0454  -47.1962 N.am      2 UNK        -0.5000 
     65 C           2.6388  -11.8753  -47.0334 C.2       1 UNK         0.5000 
     66 O           1.5248  -11.5137  -46.6538 O.2       1 UNK        -0.5000 
     67 C          -1.2362  -23.1932  -47.7140 C.2       11 UNK         0.5000 
     68 O          -1.1874  -24.3085  -48.2280 O.2       11 UNK        -0.5000 
     69 N          -2.3781  -22.5075  -47.5525 N.am      12 UNK        -0.5000 
     70 CA         -3.7071  -22.9729  -47.9674 C.3       12 UNK         0.1400 
     71 CB         -4.7400  -21.8649  -47.7285 C.3       12 UNK        -0.1800 
     72 C          -4.1512  -24.2751  -47.2794 C.2       12 UNK         0.5000 
     73 O          -4.8406  -25.0856  -47.8983 O.2       12 UNK        -0.5000 
     74 N          -3.7170  -24.4703  -46.0265 N.am      13 UNK        -0.5000 
     75 CA         -3.9091  -25.7035  -45.2635 C.3       13 UNK         0.1400 
     76 CB         -3.4980  -25.4669  -43.8026 C.3       13 UNK        -0.1800 
     77 C          -3.1579  -26.9131  -45.8597 C.2       13 UNK         0.5000 
     78 O          -3.6062  -28.0448  -45.6710 O.2       13 UNK        -0.5000 
     79 N          -2.0535  -26.6620  -46.5783 N.am      14 UNK        -0.5000 
     80 CA         -1.3411  -27.6627  -47.3696 C.3       14 UNK         0.1400 
     81 CB          0.1578  -27.3220  -47.4292 C.3       14 UNK        -0.1800 
     82 C          -1.9622  -27.7686  -48.7734 C.2       14 UNK         0.5000 
     83 O          -2.4037  -28.8535  -49.1540 O.2       14 UNK        -0.5000 
     84 N          -2.0183  -26.6407  -49.4955 N.am      15 UNK        -0.5000 
     85 CA         -2.6647  -26.4949  -50.7980 C.3       15 UNK         0.1400 
     86 CB         -1.9523  -27.3207  -51.8913 C.3       15 UNK        -0.1800 
     87 C          -2.7441  -25.0156  -51.2012 C.2       15 UNK         0.5000 
     88 O          -3.8449  -24.4885  -51.3439 O.2       15 UNK        -0.5000 
     89 N          -1.5769  -24.3835  -51.4066 N.am      16 UNK        -0.5000 
     90 CA         -1.3968  -23.0757  -52.0535 C.3       16 UNK         0.1400 
     91 CB         -1.9170  -21.9222  -51.1705 C.3       16 UNK        -0.1800 
     92 C          -1.9696  -23.1021  -53.4876 C.2       16 UNK         0.5000 
     93 O          -1.5020  -23.9121  -54.2919 O.2       16 UNK        -0.5000 
     94 N          -2.9798  -22.2769  -53.7915 N.am      17 UNK        -0.5000 
     95 CA         -3.7176  -22.3079  -55.0537 C.3       17 UNK         0.1400 
     96 CB         -4.2499  -20.9012  -55.3786 C.3       17 UNK        -0.1800 
     97 C          -4.8322  -23.3654  -54.9614 C.2       17 UNK         0.5000 
     98 O          -6.0075  -23.0215  -54.8076 O.2       17 UNK        -0.5000 
     99 N          -4.4202  -24.6411  -54.9945 N.am      18 UNK        -0.5000 
    100 CA        -5.2000  -25.8799  -54.8553 C.3       18 UNK         0.1400 
    101 CB        -6.2563  -26.0132  -55.9692 C.3       18 UNK        -0.1800 
    102 C         -5.8240  -26.0734  -53.4589 C.2       18 UNK         0.5000 
    103 O         -5.6059  -27.1130  -52.8357 O.2       18 UNK        -0.5000 
    104 N         -6.5636  -25.0645  -52.9942 N.am      19 UNK        -0.5000 
    105 CA        -7.1238  -24.9549  -51.6496 C.3       19 UNK         0.1400 
    106 CB        -8.4702  -25.6989  -51.5900 C.3       19 UNK        -0.1800 
    107 C         -7.2784  -23.4901  -51.1920 C.2       19 UNK         0.5000 
    108 O         -7.5427  -23.2660  -50.0098 O.2       19 UNK        -0.5000 
    109 N         -7.1476  -22.5167  -52.1067 N.am      20 UNK        -0.5000 
    110 CA        -7.2557  -21.0900  -51.8112 C.3       20 UNK         0.1400 
    111 CB        -7.8406  -20.3756  -53.0392 C.3       20 UNK        -0.1800 
    112 C         -5.8766  -20.5104  -51.4667 C.2       20 UNK         0.5000 
    113 O         -4.8717  -20.9433  -52.0305 O.2       20 UNK        -0.5000 
    114 N         -5.8522  -19.4903  -50.6023 N.am      21 UNK        -0.5000 
    115 CA        -4.6529  -18.7944  -50.1185 C.3       21 UNK         0.1400 
    116 CB        -5.0111  -18.1024  -48.7890 C.3       21 UNK        -0.1800 
    117 C         -4.0290  -17.8136  -51.1408 C.2       21 UNK         0.5000 
    118 O         -3.5222  -16.7622  -50.7455 O.2       21 UNK        -0.5000 
    119 N         -4.0749  -18.1701  -52.4304 N.am      22 UNK        -0.5000 
    120 CA        -3.5889  -17.3901  -53.5808 C.3       22 UNK         0.1400 
    121 C         -4.3176  -16.0182  -53.7567 C.2       22 UNK         0.5000 
    122 N         -3.7577  -15.0719  -54.5002 N.am      22 UNK        -0.7600 
    123 O         -5.4311  -15.8157  -53.2761 O.2       22 UNK        -0.5000 
    124 C124       -2.0351  -17.2992  -53.6117 C.3       23 UNK        -0.0398 
    125 S125       -1.2556  -18.9403  -53.7805 S.3       23 UNK        -0.2404 
    126 C126        0.5081  -18.5074  -53.6978 C.3       23 UNK        -0.0205 
    127 H127        6.5777  -14.7352  -46.5037 H         1 UNK         0.0600 
    128 H128        6.1450  -15.1501  -44.8419 H         1 UNK         0.0600 
    129 H129        6.8656  -13.5771  -45.2004 H         1 UNK         0.0600 
    130 H130        4.7735  -14.2540  -47.7205 H         1 UNK         0.3000 
    131 H131        2.2003  -13.9503  -46.7579 H         1 UNK         0.0600 
    132 H132        3.1401  -12.9111  -49.4773 H         1 UNK         0.0800 
    133 H133        1.5374  -13.4405  -49.0583 H         1 UNK         0.0800 
    134 H134        1.3167  -16.4333  -48.2625 H         1 UNK         0.0800 
    135 H135        0.6521  -15.5383  -49.6151 H         1 UNK         0.0800 
    136 H136        0.5786  -16.4854  -51.8575 H         1 UNK         0.1150 
    137 H137        1.6332  -20.6067  -52.3854 H         1 UNK         0.1150 
    138 H138        2.4513  -18.6434  -48.6616 H         1 UNK         0.1150 
    139 H139        3.4245  -21.4385  -50.7085 H         1 UNK         0.0800 
    140 H140        3.3675  -20.8391  -49.0713 H         1 UNK         0.0800 
    141 H141       -0.0860  -20.8161  -48.4952 H         1 UNK         0.0800 
    142 H142        1.4053  -20.9240  -47.6035 H         1 UNK         0.0800 
    143 H143        0.7883  -23.3721  -47.0595 H         1 UNK         0.0600 
    144 H144       -0.1199  -21.0077  -45.7357 H         1 UNK         0.3000 
    145 H145       -1.3058  -22.6763  -42.8112 H         1 UNK         0.0600 
    146 H146        0.3117  -21.1510  -41.7266 H         1 UNK         0.0600 
    147 H147        1.1732  -22.4785  -42.4889 H         1 UNK         0.0600 
    148 H148        1.1497  -20.8942  -43.2561 H         1 UNK         0.0600 
    149 H149       -1.1224  -19.9168  -43.4507 H         1 UNK         0.3000 
    150 H150       -4.2495  -19.6538  -45.2280 H         1 UNK         0.0600 
    151 H151       -4.7675  -19.4570  -42.8191 H         1 UNK         0.0600 
    152 H152       -4.4704  -17.8617  -43.4961 H         1 UNK         0.0600 
    153 H153       -3.2350  -18.6518  -42.5171 H         1 UNK         0.0600 
    154 H154       -2.2805  -17.6869  -44.6874 H         1 UNK         0.3000 
    155 H155       -0.3004  -18.1610  -47.6350 H         1 UNK         0.0600 
    156 H156       -2.4039  -16.0933  -46.8153 H         1 UNK         0.0600 
    157 H157       -2.0230  -16.6905  -48.4252 H         1 UNK         0.0600 
    158 H158       -0.8937  -15.6407  -47.5929 H         1 UNK         0.0600 
    159 H159       -0.2221  -16.4070  -45.3292 H         1 UNK         0.3000 
    160 H160        2.1063  -18.3512  -43.4649 H         1 UNK         0.0600 
    161 H161        2.4560  -15.7426  -45.0395 H         1 UNK         0.0600 
    162 H162        3.5147  -17.1433  -45.1334 H         1 UNK         0.0600 
    163 H163        3.4027  -16.2284  -43.6366 H         1 UNK         0.0600 
    164 H164        0.9151  -15.7613  -43.0970 H         1 UNK         0.3000 
    165 H165       -2.0792  -16.8556  -41.5076 H         1 UNK         0.0600 
    166 H166       -1.2233  -15.5724  -39.5649 H         1 UNK         0.0600 
    167 H167       -0.4189  -17.1306  -39.6582 H         1 UNK         0.0600 
    168 H168        0.4251  -15.6792  -40.1847 H         1 UNK         0.0600 
    169 H169       -0.9747  -14.2763  -41.6985 H         1 UNK         0.3000 
    170 H170       -1.3968  -13.4646  -45.0245 H         1 UNK         0.0600 
    171 H171       -3.8370  -13.3711  -44.5009 H         1 UNK         0.0600 
    172 H172       -3.4878  -12.6932  -42.9152 H         1 UNK         0.0600 
    173 H173       -3.1059  -11.7795  -44.3757 H         1 UNK         0.0600 
    174 H174       -1.1833  -11.8547  -42.6610 H         1 UNK         0.3000 
    175 H175        0.7541  -10.9624  -42.0534 H         1 UNK         0.0600 
    176 H176        2.1569  -13.5323  -41.1015 H         1 UNK         0.0600 
    177 H177        2.0752  -12.0195  -40.2019 H         1 UNK         0.0600 
    178 H178        0.6127  -12.9394  -40.4990 H         1 UNK         0.0600 
    179 H179        2.9408  -12.0419  -43.6132 H         1 UNK         0.3000 
    180 H180        4.9094   -9.0778  -42.9840 H         1 UNK         0.0600 
    181 H181        5.5668  -12.0683  -42.8924 H         1 UNK         0.0600 
    182 H182        6.0136  -10.8582  -41.7018 H         1 UNK         0.0600 
    183 H183        6.7001  -10.7866  -43.3174 H         1 UNK         0.0600 
    184 H184        4.6100  -11.1504  -45.0454 H         1 UNK         0.3000 
    185 H185        2.6924   -9.2030  -47.2125 H         1 UNK         0.0600 
    186 H186        4.7518   -7.8475  -47.5666 H         1 UNK         0.0600 
    187 H187        5.7468   -9.2954  -47.4723 H         1 UNK         0.0600 
    188 H188        4.6038   -9.0884  -48.8001 H         1 UNK         0.0600 
    189 H189        4.5567  -11.4322  -47.5105 H         1 UNK         0.3000 
    190 H190       -2.3316  -21.5669  -47.1677 H         1 UNK         0.3000 
    191 H191       -3.6665  -23.1695  -49.0375 H         1 UNK         0.0600 
    192 H192       -4.4320  -20.9395  -48.2067 H         1 UNK         0.0600 
    193 H193       -5.7103  -22.1403  -48.1435 H         1 UNK         0.0600 
    194 H194       -4.8806  -21.6618  -46.6673 H         1 UNK         0.0600 
    195 H195       -3.2169  -23.7174  -45.5677 H         1 UNK         0.3000 
    196 H196       -4.9750  -25.9397  -45.2800 H         1 UNK         0.0600 
    197 H197       -3.7048  -26.3472  -43.1929 H         1 UNK         0.0600 
    198 H198       -4.0478  -24.6322  -43.3670 H         1 UNK         0.0600 
    199 H199       -2.4339  -25.2506  -43.7125 H         1 UNK         0.0600 
    200 H200       -1.7748  -25.6989  -46.7197 H         1 UNK         0.3000 
    201 H201       -1.4319  -28.6383  -46.8871 H         1 UNK         0.0600 
    202 H202        0.5895  -27.2815  -46.4290 H         1 UNK         0.0600 
    203 H203        0.3491  -26.3639  -47.9110 H         1 UNK         0.0600 
    204 H204        0.7044  -28.0819  -47.9887 H         1 UNK         0.0600 
    205 H205       -1.6711  -25.7760  -49.0780 H         1 UNK         0.3000 
    206 H206       -3.6903  -26.8588  -50.7052 H         1 UNK         0.0600 
    207 H207       -2.0787  -28.3911  -51.7325 H         1 UNK         0.0600 
    208 H208       -2.3633  -27.0979  -52.8771 H         1 UNK         0.0600 
    209 H209       -0.8825  -27.1129  -51.9253 H         1 UNK         0.0600 
    210 H210       -0.7269  -24.9064  -51.2540 H         1 UNK         0.3000 
    211 H211       -0.3215  -22.9312  -52.1672 H         1 UNK         0.0600 
    212 H212       -2.9598  -22.0523  -50.8947 H         1 UNK         0.0600 
    213 H213       -1.8200  -20.9582  -51.6693 H         1 UNK         0.0600 
    214 H214       -1.3467  -21.8534  -50.2491 H         1 UNK         0.0600 
    215 H215       -3.4022  -21.7236  -53.0504 H         1 UNK         0.3000 
    216 H216       -3.0498  -22.5956  -55.8684 H         1 UNK         0.0600 
    217 H217       -4.8273  -20.9084  -56.3037 H         1 UNK         0.0600 
    218 H218       -3.4303  -20.1967  -55.5153 H         1 UNK         0.0600 
    219 H219       -4.8970  -20.5141  -54.5936 H         1 UNK         0.0600 
    220 H220       -3.4174  -24.7791  -55.0413 H         1 UNK         0.3000 
    221 H221       -4.4835  -26.6917  -54.9905 H         1 UNK         0.0600 
    222 H222       -7.0215  -25.2392  -55.9064 H         1 UNK         0.0600 
    223 H223       -5.7973  -25.9506  -56.9558 H         1 UNK         0.0600 
    224 H224       -6.7641  -26.9764  -55.9075 H         1 UNK         0.0600 
    225 H225       -6.6399  -24.2524  -53.5975 H         1 UNK         0.3000 
    226 H226       -6.4345  -25.4242  -50.9442 H         1 UNK         0.0600 
    227 H227       -8.3491  -26.7569  -51.8227 H         1 UNK         0.0600 
    228 H228       -8.9101  -25.6359  -50.5940 H         1 UNK         0.0600 
    229 H229       -9.1887  -25.2799  -52.2954 H         1 UNK         0.0600 
    230 H230       -6.8396  -22.7325  -53.0466 H         1 UNK         0.3000 
    231 H231       -7.9301  -20.9319  -50.9669 H         1 UNK         0.0600 
    232 H232       -7.2191  -20.5172  -53.9240 H         1 UNK         0.0600 
    233 H233       -7.9269  -19.3020  -52.8662 H         1 UNK         0.0600 
    234 H234       -8.8383  -20.7484  -53.2713 H         1 UNK         0.0600 
    235 H235       -6.7288  -19.1540  -50.2312 H         1 UNK         0.3000 
    236 H236       -3.8828  -19.5404  -49.9135 H         1 UNK         0.0600 
    237 H237       -5.4465  -18.8020  -48.0760 H         1 UNK         0.0600 
    238 H238       -4.1288  -17.6767  -48.3143 H         1 UNK         0.0600 
    239 H239       -5.7254  -17.2923  -48.9401 H         1 UNK         0.0600 
    240 H240       -4.4713  -19.0776  -52.6417 H         1 UNK         0.3000 
    241 H241       -3.8976  -17.9600  -54.4572 H         1 UNK         0.0600 
    242 H242       -4.2502  -14.2007  -54.6249 H         1 UNK         0.3800 
    243 H243       -2.8653  -15.1993  -54.9498 H         1 UNK         0.3800 
    244 H244       -1.6918  -16.7039  -54.4578 H         1 UNK         0.0800 
    245 H245       -1.6610  -16.8073  -52.7136 H         1 UNK         0.0800 
    246 H246        0.6782  -17.5254  -54.1416 H         1 UNK         0.0800 
    247 H247        1.0670  -19.2145  -54.3126 H         1 UNK         0.0800 
@<TRIPOS>BOND
     1    1    2 1    
     2    1  127 1    
     3    1  128 1    
     4    1  129 1    
     5    2    3 2    
     6    2    4 am   BACKBONE|DICT|INTERRES
     7    4    5 1    
     8    4  130 1    
     9    5    6 1    
    10    5   65 1    
    11    5  131 1    
    12    6    7 1    
    13    6  132 1    
    14    6  133 1    
    15    7    8 1    
    16    8    9 1    
    17    8  134 1    
    18    8  135 1    
    19    9   10 ar   
    20    9   14 ar   
    21   10   11 ar   
    22   10  136 1    
    23   11   12 ar   
    24   11  126 1    
    25   12   13 ar   
    26   12  137 1    
    27   13   14 ar   
    28   13   15 1    
    29   14  138 1    
    30   15   16 1    
    31   15  139 1    
    32   15  140 1    
    33   16   17 1    
    34   17   18 1    
    35   17  141 1    
    36   17  142 1    
    37   18   19 1    
    38   18   67 1    
    39   18  143 1    
    40   19   20 am   BACKBONE|DICT|INTERRES
    41   19  144 1    
    42   20   21 2    
    43   20   22 1    
    44   22   23 1    
    45   22   24 1    
    46   22  145 1    
    47   23  146 1    
    48   23  147 1    
    49   23  148 1    
    50   24   25 am   BACKBONE|DICT|INTERRES
    51   24  149 1    
    52   25   26 2    
    53   25   27 1    
    54   27   28 1    
    55   27   29 1    
    56   27  150 1    
    57   28  151 1    
    58   28  152 1    
    59   28  153 1    
    60   29   30 am   BACKBONE|DICT|INTERRES
    61   29  154 1    
    62   30   31 2    
    63   30   32 1    
    64   32   33 1    
    65   32   34 1    
    66   32  155 1    
    67   33  156 1    
    68   33  157 1    
    69   33  158 1    
    70   34   35 am   BACKBONE|DICT|INTERRES
    71   34  159 1    
    72   35   36 2    
    73   35   37 1    
    74   37   38 1    
    75   37   39 1    
    76   37  160 1    
    77   38  161 1    
    78   38  162 1    
    79   38  163 1    
    80   39   40 am   BACKBONE|DICT|INTERRES
    81   39  164 1    
    82   40   41 2    
    83   40   42 1    
    84   42   43 1    
    85   42   44 1    
    86   42  165 1    
    87   43  166 1    
    88   43  167 1    
    89   43  168 1    
    90   44   45 am   BACKBONE|DICT|INTERRES
    91   44  169 1    
    92   45   46 2    
    93   45   47 1    
    94   47   48 1    
    95   47   49 1    
    96   47  170 1    
    97   48  171 1    
    98   48  172 1    
    99   48  173 1    
   100   49   50 am   BACKBONE|DICT|INTERRES
   101   49  174 1    
   102   50   51 2    
   103   50   52 1    
   104   52   53 1    
   105   52   54 1    
   106   52  175 1    
   107   53  176 1    
   108   53  177 1    
   109   53  178 1    
   110   54   55 am   BACKBONE|DICT|INTERRES
   111   54  179 1    
   112   55   56 2    
   113   55   57 1    
   114   57   58 1    
   115   57   59 1    
   116   57  180 1    
   117   58  181 1    
   118   58  182 1    
   119   58  183 1    
   120   59   60 am   BACKBONE|DICT|INTERRES
   121   59  184 1    
   122   60   61 2    
   123   60   62 1    
   124   62   63 1    
   125   62   64 1    
   126   62  185 1    
   127   63  186 1    
   128   63  187 1    
   129   63  188 1    
   130   64   65 am   BACKBONE|DICT|INTERRES
   131   64  189 1    
   132   65   66 2    
   133   67   68 2    
   134   67   69 am   BACKBONE|DICT|INTERRES
   135   69   70 1    
   136   69  190 1    
   137   70   71 1    
   138   70   72 1    
   139   70  191 1    
   140   71  192 1    
   141   71  193 1    
   142   71  194 1    
   143   72   73 2    
   144   72   74 am   BACKBONE|DICT|INTERRES
   145   74   75 1    
   146   74  195 1    
   147   75   76 1    
   148   75   77 1    
   149   75  196 1    
   150   76  197 1    
   151   76  198 1    
   152   76  199 1    
   153   77   78 2    
   154   77   79 am   BACKBONE|DICT|INTERRES
   155   79   80 1    
   156   79  200 1    
   157   80   81 1    
   158   80   82 1    
   159   80  201 1    
   160   81  202 1    
   161   81  203 1    
   162   81  204 1    
   163   82   83 2    
   164   82   84 am   BACKBONE|DICT|INTERRES
   165   84   85 1    
   166   84  205 1    
   167   85   86 1    
   168   85   87 1    
   169   85  206 1    
   170   86  207 1    
   171   86  208 1    
   172   86  209 1    
   173   87   88 2    
   174   87   89 am   BACKBONE|DICT|INTERRES
   175   89   90 1    
   176   89  210 1    
   177   90   91 1    
   178   90   92 1    
   179   90  211 1    
   180   91  212 1    
   181   91  213 1    
   182   91  214 1    
   183   92   93 2    
   184   92   94 am   BACKBONE|DICT|INTERRES
   185   94   95 1    
   186   94  215 1    
   187   95   96 1    
   188   95   97 1    
   189   95  216 1    
   190   96  217 1    
   191   96  218 1    
   192   96  219 1    
   193   97   98 2    
   194   97   99 am   BACKBONE|DICT|INTERRES
   195   99  100 1    
   196   99  220 1    
   197  100  101 1    
   198  100  102 1    
   199  100  221 1    
   200  101  222 1    
   201  101  223 1    
   202  101  224 1    
   203  102  103 2    
   204  102  104 am   BACKBONE|DICT|INTERRES
   205  104  105 1    
   206  104  225 1    
   207  105  106 1    
   208  105  107 1    
   209  105  226 1    
   210  106  227 1    
   211  106  228 1    
   212  106  229 1    
   213  107  108 2    
   214  107  109 am   BACKBONE|DICT|INTERRES
   215  109  110 1    
   216  109  230 1    
   217  110  111 1    
   218  110  112 1    
   219  110  231 1    
   220  111  232 1    
   221  111  233 1    
   222  111  234 1    
   223  112  113 2    
   224  112  114 am   BACKBONE|DICT|INTERRES
   225  114  115 1    
   226  114  235 1    
   227  115  116 1    
   228  115  117 1    
   229  115  236 1    
   230  116  237 1    
   231  116  238 1    
   232  116  239 1    
   233  117  118 2    
   234  117  119 am   BACKBONE|DICT|INTERRES
   235  119  120 1    
   236  119  240 1    
   237  120  121 1    
   238  120  124 1    
   239  120  241 1    
   240  121  122 am   BACKBONE|DICT|INTERRES
   241  121  123 2    
   242  122  242 1    
   243  122  243 1    
   244  124  125 1    
   245  124  244 1    
   246  124  245 1    
   247  125  126 1    
   248  126  246 1    
   249  126  247 1    
@<TRIPOS>SUBSTRUCTURE
     1 UNK         1 GROUP             0       ****    0 ROOT    
