@<TRIPOS>MOLECULE
3R540
247   249    1
SMALL
USER_CHARGES


@<TRIPOS>ATOM
      1 CA         -3.5034  -18.0101  -47.3157 C.3       0 UNK        -0.1800 
      2 C          -2.3129  -17.3376  -47.9839 C.2       0 UNK         0.5000 
      3 O          -1.7533  -17.8836  -48.9309 O.2       0 UNK        -0.5000 
      4 N          -1.9231  -16.1629  -47.4803 N.am      1 UNK        -0.5000 
      5 CA         -0.8048  -15.3522  -47.9512 C.3       1 UNK         0.1400 
      6 C6          0.5521  -15.8138  -47.3510 C.3       23 UNK        -0.0398 
      7 S7          1.9913  -14.9944  -48.1240 S.3       23 UNK        -0.2404 
      8 C8          2.8949  -16.3803  -48.8899 C.3       23 UNK        -0.0205 
      9 C9          2.0452  -17.2259  -49.8307 C.ar      23 UNK        -0.0193 
     10 C10         1.2003  -16.6319  -50.7744 C.ar      23 UNK        -0.1150 
     11 C11         0.3950  -17.4178  -51.6025 C.ar      23 UNK        -0.0193 
     12 C12         0.4750  -18.8108  -51.5197 C.ar      23 UNK        -0.1150 
     13 C13         1.3356  -19.4162  -50.5983 C.ar      23 UNK        -0.0193 
     14 C14         2.1105  -18.6194  -49.7521 C.ar      23 UNK        -0.1150 
     15 C15         1.4296  -20.9307  -50.5172 C.3       23 UNK        -0.0205 
     16 S16        -0.0704  -21.6561  -49.7972 S.3       23 UNK        -0.2404 
     17 C17         0.0195  -21.1371  -48.0458 C.3       23 UNK        -0.0398 
     18 CA         -0.2885  -22.3236  -47.1025 C.3       11 UNK         0.1400 
     19 N           0.2427  -22.1355  -45.7489 N.am      11 UNK        -0.5000 
     20 C           0.3661  -23.1375  -44.8651 C.2       10 UNK         0.5000 
     21 O           0.0224  -24.2952  -45.0982 O.2       10 UNK        -0.5000 
     22 CA          0.9230  -22.7950  -43.4744 C.3       10 UNK         0.1400 
     23 CB          2.4280  -22.4960  -43.5404 C.3       10 UNK        -0.1800 
     24 N           0.2134  -21.6843  -42.8448 N.am      10 UNK        -0.5000 
     25 C          -1.0931  -21.6939  -42.5413 C.2       9 UNK         0.5000 
     26 O          -1.8374  -22.6560  -42.7326 O.2       9 UNK        -0.5000 
     27 CA         -1.6790  -20.3909  -41.9719 C.3       9 UNK         0.1400 
     28 CB         -1.3683  -20.2630  -40.4732 C.3       9 UNK        -0.1800 
     29 N          -1.2020  -19.2009  -42.6760 N.am      9 UNK        -0.5000 
     30 C          -1.3895  -18.9614  -43.9813 C.2       8 UNK         0.5000 
     31 O          -2.0001  -19.7116  -44.7404 O.2       8 UNK        -0.5000 
     32 CA         -0.7343  -17.6971  -44.5515 C.3       8 UNK         0.1400 
     33 CB         -1.4802  -16.4310  -44.1016 C.3       8 UNK        -0.1800 
     34 N           0.6801  -17.6001  -44.2069 N.am      8 UNK        -0.5000 
     35 C           1.6152  -18.4852  -44.5818 C.2       7 UNK         0.5000 
     36 O           1.3974  -19.4530  -45.3127 O.2       7 UNK        -0.5000 
     37 CA          3.0215  -18.2747  -43.9974 C.3       7 UNK         0.1400 
     38 CB          3.8101  -17.2494  -44.8265 C.3       7 UNK        -0.1800 
     39 N           2.9706  -17.8471  -42.5981 N.am      7 UNK        -0.5000 
     40 C           2.5470  -18.6193  -41.5861 C.2       6 UNK         0.5000 
     41 O           2.1882  -19.7886  -41.7195 O.2       6 UNK        -0.5000 
     42 CA          2.4649  -17.9543  -40.2008 C.3       6 UNK         0.1400 
     43 CB          3.8506  -17.8956  -39.5408 C.3       6 UNK        -0.1800 
     44 N           1.8978  -16.6069  -40.2658 N.am      6 UNK        -0.5000 
     45 C           0.6321  -16.3346  -40.6146 C.2       5 UNK         0.5000 
     46 O          -0.2062  -17.1977  -40.8693 O.2       5 UNK        -0.5000 
     47 CA          0.2514  -14.8483  -40.7438 C.3       5 UNK         0.1400 
     48 CB         -0.2564  -14.3036  -39.4007 C.3       5 UNK        -0.1800 
     49 N           1.3536  -14.0106  -41.2226 N.am      5 UNK        -0.5000 
     50 C           1.9265  -14.1194  -42.4285 C.2       4 UNK         0.5000 
     51 O           1.6026  -14.9602  -43.2709 O.2       4 UNK        -0.5000 
     52 CA          3.1106  -13.1755  -42.6992 C.3       4 UNK         0.1400 
     53 CB          4.4341  -13.8900  -42.3848 C.3       4 UNK        -0.1800 
     54 N           3.1523  -12.6920  -44.0782 N.am      4 UNK        -0.5000 
     55 C           2.2393  -11.8961  -44.6505 C.2       3 UNK         0.5000 
     56 O           1.2338  -11.4907  -44.0649 O.2       3 UNK        -0.5000 
     57 CA          2.5141  -11.4359  -46.0987 C.3       3 UNK         0.1400 
     58 CB          3.8047  -12.0176  -46.7123 C.3       3 UNK        -0.1800 
     59 N           1.3878  -11.7626  -46.9706 N.am      3 UNK        -0.5000 
     60 C           0.3248  -10.9772  -47.1969 C.2       2 UNK         0.5000 
     61 O           0.1849   -9.8567  -46.7044 O.2       2 UNK        -0.5000 
     62 CA         -0.7564  -11.5101  -48.1611 C.3       2 UNK         0.1400 
     63 CB         -0.6756  -10.7817  -49.5123 C.3       2 UNK        -0.1800 
     64 N          -0.6501  -12.9506  -48.4022 N.am      2 UNK        -0.5000 
     65 C          -1.1277  -13.8936  -47.5821 C.2       1 UNK         0.5000 
     66 O          -1.7807  -13.6520  -46.5633 O.2       1 UNK        -0.5000 
     67 C          -1.7891  -22.6868  -47.1033 C.2       11 UNK         0.5000 
     68 O          -2.2062  -23.5088  -47.9211 O.2       11 UNK        -0.5000 
     69 N          -2.5761  -22.1104  -46.1833 N.am      12 UNK        -0.5000 
     70 CA         -3.9882  -22.4461  -45.9876 C.3       12 UNK         0.1400 
     71 CB         -4.6234  -21.4856  -44.9723 C.3       12 UNK        -0.1800 
     72 C          -4.1959  -23.9101  -45.5591 C.2       12 UNK         0.5000 
     73 O          -5.1062  -24.5639  -46.0674 O.2       12 UNK        -0.5000 
     74 N          -3.3346  -24.4066  -44.6621 N.am      13 UNK        -0.5000 
     75 CA         -3.3426  -25.7937  -44.2056 C.3       13 UNK         0.1400 
     76 CB         -2.5272  -25.9095  -42.9083 C.3       13 UNK        -0.1800 
     77 C          -2.8140  -26.7720  -45.2702 C.2       13 UNK         0.5000 
     78 O          -3.4416  -27.8043  -45.5086 O.2       13 UNK        -0.5000 
     79 N          -1.6588  -26.4497  -45.8664 N.am      14 UNK        -0.5000 
     80 CA         -0.9144  -27.3564  -46.7389 C.3       14 UNK         0.1400 
     81 CB          0.5612  -26.9304  -46.7773 C.3       14 UNK        -0.1800 
     82 C          -1.4676  -27.4522  -48.1688 C.2       14 UNK         0.5000 
     83 O          -1.4479  -28.5444  -48.7388 O.2       14 UNK        -0.5000 
     84 N          -1.9012  -26.3211  -48.7409 N.am      15 UNK        -0.5000 
     85 CA         -2.1814  -26.2002  -50.1746 C.3       15 UNK         0.1400 
     86 CB         -0.9690  -25.5323  -50.8509 C.3       15 UNK        -0.1800 
     87 C          -3.4795  -25.4371  -50.4854 C.2       15 UNK         0.5000 
     88 O          -3.7382  -25.1695  -51.6591 O.2       15 UNK        -0.5000 
     89 N          -4.2573  -25.0704  -49.4553 N.am      16 UNK        -0.5000 
     90 CA         -5.4823  -24.2634  -49.5315 C.3       16 UNK         0.1400 
     91 CB         -6.6185  -25.0638  -50.2026 C.3       16 UNK        -0.1800 
     92 C          -5.2392  -22.8896  -50.1935 C.2       16 UNK         0.5000 
     93 O          -5.9823  -22.4975  -51.0940 O.2       16 UNK        -0.5000 
     94 N          -4.1586  -22.2127  -49.7706 N.am      17 UNK        -0.5000 
     95 CA         -3.6564  -20.9367  -50.3068 C.3       17 UNK         0.1400 
     96 CB         -4.6960  -19.8104  -50.1252 C.3       17 UNK        -0.1800 
     97 C          -3.1727  -21.0624  -51.7692 C.2       17 UNK         0.5000 
     98 O          -3.2875  -20.1149  -52.5465 O.2       17 UNK        -0.5000 
     99 N          -2.6886  -22.2601  -52.1310 N.am      18 UNK        -0.5000 
    100 CA        -2.3244  -22.7002  -53.4822 C.3       18 UNK         0.1400 
    101 CB        -1.1249  -21.8926  -54.0212 C.3       18 UNK        -0.1800 
    102 C         -3.5269  -22.7184  -54.4531 C.2       18 UNK         0.5000 
    103 O         -3.3363  -22.5942  -55.6645 O.2       18 UNK        -0.5000 
    104 N         -4.7455  -22.8467  -53.9007 N.am      19 UNK        -0.5000 
    105 CA        -6.0745  -22.8434  -54.5263 C.3       19 UNK         0.1400 
    106 CB        -6.2276  -24.0089  -55.5223 C.3       19 UNK        -0.1800 
    107 C         -6.4802  -21.5007  -55.1689 C.2       19 UNK         0.5000 
    108 O         -7.6186  -21.0632  -54.9936 O.2       19 UNK        -0.5000 
    109 N         -5.5533  -20.8713  -55.8990 N.am      20 UNK        -0.5000 
    110 CA        -5.7446  -19.6166  -56.6248 C.3       20 UNK         0.1400 
    111 CB        -4.6951  -19.5441  -57.7462 C.3       20 UNK        -0.1800 
    112 C         -5.6567  -18.3606  -55.7372 C.2       20 UNK         0.5000 
    113 O         -6.0061  -17.2776  -56.2106 O.2       20 UNK        -0.5000 
    114 N         -5.1403  -18.4967  -54.5036 N.am      21 UNK        -0.5000 
    115 CA        -4.8755  -17.4166  -53.5385 C.3       21 UNK         0.1400 
    116 CB        -6.1966  -16.7972  -53.0375 C.3       21 UNK        -0.1800 
    117 C         -3.8794  -16.3602  -54.0684 C.2       21 UNK         0.5000 
    118 O         -3.9242  -15.2042  -53.6455 O.2       21 UNK        -0.5000 
    119 N         -3.0140  -16.7811  -55.0034 N.am      22 UNK        -0.5000 
    120 CA        -2.0972  -15.9443  -55.7965 C.3       22 UNK         0.1400 
    121 C         -2.8126  -14.9315  -56.7477 C.2       22 UNK         0.5000 
    122 N         -4.0969  -15.0906  -57.0515 N.am      22 UNK        -0.7600 
    123 O         -2.1889  -14.0022  -57.2535 O.2       22 UNK        -0.5000 
    124 C124       -0.9757  -15.2899  -54.9406 C.3       23 UNK        -0.0398 
    125 S125        0.1599  -16.5148  -54.2004 S.3       23 UNK        -0.2404 
    126 C126       -0.5821  -16.7571  -52.5592 C.3       23 UNK        -0.0205 
    127 H127       -4.4135  -17.8091  -47.8793 H         1 UNK         0.0600 
    128 H128       -3.6472  -17.6531  -46.2964 H         1 UNK         0.0600 
    129 H129       -3.3528  -19.0892  -47.2730 H         1 UNK         0.0600 
    130 H130       -2.4516  -15.7171  -46.7403 H         1 UNK         0.3000 
    131 H131       -0.7662  -15.4277  -49.0398 H         1 UNK         0.0600 
    132 H132        0.5907  -15.6174  -46.2788 H         1 UNK         0.0800 
    133 H133        0.6584  -16.8939  -47.4588 H         1 UNK         0.0800 
    134 H134        3.7424  -15.9809  -49.4481 H         1 UNK         0.0800 
    135 H135        3.3130  -16.9968  -48.0937 H         1 UNK         0.0800 
    136 H136        1.1481  -15.5550  -50.8462 H         1 UNK         0.1150 
    137 H137       -0.1439  -19.4241  -52.1600 H         1 UNK         0.1150 
    138 H138        2.7663  -19.0866  -49.0306 H         1 UNK         0.1150 
    139 H139        1.5668  -21.3331  -51.5216 H         1 UNK         0.0800 
    140 H140        2.3012  -21.2440  -49.9405 H         1 UNK         0.0800 
    141 H141       -0.6568  -20.2972  -47.8739 H         1 UNK         0.0800 
    142 H142        1.0232  -20.7597  -47.8466 H         1 UNK         0.0800 
    143 H143        0.2359  -23.1943  -47.5043 H         1 UNK         0.0600 
    144 H144        0.5428  -21.1983  -45.4933 H         1 UNK         0.3000 
    145 H145        0.7846  -23.6731  -42.8403 H         1 UNK         0.0600 
    146 H146        2.8457  -22.3604  -42.5428 H         1 UNK         0.0600 
    147 H147        2.9695  -23.3184  -44.0095 H         1 UNK         0.0600 
    148 H148        2.6373  -21.5945  -44.1156 H         1 UNK         0.0600 
    149 H149        0.7661  -20.8638  -42.6167 H         1 UNK         0.3000 
    150 H150       -2.7631  -20.4342  -42.0928 H         1 UNK         0.0600 
    151 H151       -1.7190  -21.1379  -39.9244 H         1 UNK         0.0600 
    152 H152       -1.8597  -19.3903  -40.0429 H         1 UNK         0.0600 
    153 H153       -0.2973  -20.1661  -40.2913 H         1 UNK         0.0600 
    154 H154       -0.7071  -18.5122  -42.1143 H         1 UNK         0.3000 
    155 H155       -0.7897  -17.7709  -45.6356 H         1 UNK         0.0600 
    156 H156       -2.5164  -16.4487  -44.4390 H         1 UNK         0.0600 
    157 H157       -1.0206  -15.5290  -44.5048 H         1 UNK         0.0600 
    158 H158       -1.4985  -16.3356  -43.0173 H         1 UNK         0.0600 
    159 H159        0.9641  -16.7997  -43.6506 H         1 UNK         0.3000 
    160 H160        3.5511  -19.2285  -44.0415 H         1 UNK         0.0600 
    161 H161        3.3099  -16.2811  -44.8643 H         1 UNK         0.0600 
    162 H162        3.9284  -17.5954  -45.8534 H         1 UNK         0.0600 
    163 H163        4.8098  -17.0963  -44.4199 H         1 UNK         0.0600 
    164 H164        3.1971  -16.8826  -42.4101 H         1 UNK         0.3000 
    165 H165        1.8135  -18.5676  -39.5745 H         1 UNK         0.0600 
    166 H166        3.7877  -17.4973  -38.5281 H         1 UNK         0.0600 
    167 H167        4.2910  -18.8911  -39.4704 H         1 UNK         0.0600 
    168 H168        4.5425  -17.2697  -40.1055 H         1 UNK         0.0600 
    169 H169        2.5181  -15.8373  -40.0637 H         1 UNK         0.3000 
    170 H170       -0.5611  -14.7751  -41.4690 H         1 UNK         0.0600 
    171 H171       -1.0938  -14.8970  -39.0310 H         1 UNK         0.0600 
    172 H172        0.5220  -14.3225  -38.6368 H         1 UNK         0.0600 
    173 H173       -0.6071  -13.2761  -39.4989 H         1 UNK         0.0600 
    174 H174        1.6854  -13.3012  -40.5851 H         1 UNK         0.3000 
    175 H175        3.0224  -12.3054  -42.0456 H         1 UNK         0.0600 
    176 H176        4.5916  -14.7513  -43.0350 H         1 UNK         0.0600 
    177 H177        5.2838  -13.2181  -42.5079 H         1 UNK         0.0600 
    178 H178        4.4534  -14.2481  -41.3549 H         1 UNK         0.0600 
    179 H179        3.9351  -12.9991  -44.6353 H         1 UNK         0.3000 
    180 H180        2.6365  -10.3516  -46.0626 H         1 UNK         0.0600 
    181 H181        3.7958  -13.1072  -46.7362 H         1 UNK         0.0600 
    182 H182        4.6856  -11.7016  -46.1519 H         1 UNK         0.0600 
    183 H183        3.9403  -11.6684  -47.7359 H         1 UNK         0.0600 
    184 H184        1.4067  -12.6780  -47.3974 H         1 UNK         0.3000 
    185 H185       -1.7298  -11.2925  -47.7162 H         1 UNK         0.0600 
    186 H186       -0.7864   -9.7042  -49.3834 H         1 UNK         0.0600 
    187 H187        0.2804  -10.9564  -50.0074 H         1 UNK         0.0600 
    188 H188       -1.4680  -11.1095  -50.1855 H         1 UNK         0.0600 
    189 H189       -0.1219  -13.2285  -49.2171 H         1 UNK         0.3000 
    190 H190       -2.1913  -21.3982  -45.5669 H         1 UNK         0.3000 
    191 H191       -4.5002  -22.3051  -46.9406 H         1 UNK         0.0600 
    192 H192       -4.5764  -20.4547  -45.3230 H         1 UNK         0.0600 
    193 H193       -5.6751  -21.7252  -44.8112 H         1 UNK         0.0600 
    194 H194       -4.1228  -21.5342  -44.0050 H         1 UNK         0.0600 
    195 H195       -2.6340  -23.7952  -44.2554 H         1 UNK         0.3000 
    196 H196       -4.3730  -26.0744  -43.9772 H         1 UNK         0.0600 
    197 H197       -2.5192  -26.9361  -42.5406 H         1 UNK         0.0600 
    198 H198       -2.9508  -25.2850  -42.1216 H         1 UNK         0.0600 
    199 H199       -1.4907  -25.6027  -43.0535 H         1 UNK         0.0600 
    200 H200       -1.1821  -25.5919  -45.5949 H         1 UNK         0.3000 
    201 H201       -0.9545  -28.3575  -46.3041 H         1 UNK         0.0600 
    202 H202        0.9951  -26.9192  -45.7775 H         1 UNK         0.0600 
    203 H203        0.6816  -25.9348  -47.2058 H         1 UNK         0.0600 
    204 H204        1.1524  -27.6205  -47.3805 H         1 UNK         0.0600 
    205 H205       -1.8923  -25.4528  -48.2138 H         1 UNK         0.3000 
    206 H206       -2.3154  -27.1876  -50.6217 H         1 UNK         0.0600 
    207 H207       -0.0529  -26.0926  -50.6613 H         1 UNK         0.0600 
    208 H208       -1.0940  -25.4830  -51.9328 H         1 UNK         0.0600 
    209 H209       -0.8194  -24.5152  -50.4867 H         1 UNK         0.0600 
    210 H210       -3.9530  -25.3165  -48.5236 H         1 UNK         0.3000 
    211 H211       -5.7921  -24.0550  -48.5085 H         1 UNK         0.0600 
    212 H212       -6.4068  -25.2717  -51.2519 H         1 UNK         0.0600 
    213 H213       -7.5594  -24.5136  -50.1629 H         1 UNK         0.0600 
    214 H214       -6.7791  -26.0165  -49.6977 H         1 UNK         0.0600 
    215 H215       -3.5644  -22.6604  -49.0784 H         1 UNK         0.3000 
    216 H216       -2.7861  -20.6699  -49.7076 H         1 UNK         0.0600 
    217 H217       -4.2411  -18.8347  -50.3006 H         1 UNK         0.0600 
    218 H218       -5.1020  -19.8069  -49.1141 H         1 UNK         0.0600 
    219 H219       -5.5311  -19.9072  -50.8201 H         1 UNK         0.0600 
    220 H220       -2.6728  -22.9851  -51.4283 H         1 UNK         0.3000 
    221 H221       -2.0039  -23.7377  -53.3872 H         1 UNK         0.0600 
    222 H222       -1.3911  -20.8564  -54.2307 H         1 UNK         0.0600 
    223 H223       -0.3011  -21.8891  -53.3076 H         1 UNK         0.0600 
    224 H224       -0.7480  -22.3249  -54.9487 H         1 UNK         0.0600 
    225 H225       -4.7789  -22.9061  -52.8893 H         1 UNK         0.3000 
    226 H226       -6.7788  -23.0202  -53.7112 H         1 UNK         0.0600 
    227 H227       -6.0111  -24.9654  -55.0452 H         1 UNK         0.0600 
    228 H228       -7.2482  -24.0601  -55.9047 H         1 UNK         0.0600 
    229 H229       -5.5630  -23.9039  -56.3811 H         1 UNK         0.0600 
    230 H230       -4.6486  -21.3291  -55.9917 H         1 UNK         0.3000 
    231 H231       -6.7360  -19.6234  -57.0829 H         1 UNK         0.0600 
    232 H232       -3.6792  -19.5502  -57.3479 H         1 UNK         0.0600 
    233 H233       -4.8112  -18.6342  -58.3376 H         1 UNK         0.0600 
    234 H234       -4.7911  -20.3882  -58.4296 H         1 UNK         0.0600 
    235 H235       -4.8404  -19.4173  -54.2080 H         1 UNK         0.3000 
    236 H236       -4.3915  -17.8690  -52.6749 H         1 UNK         0.0600 
    237 H237       -6.8737  -17.5655  -52.6640 H         1 UNK         0.0600 
    238 H238       -6.0160  -16.1008  -52.2179 H         1 UNK         0.0600 
    239 H239       -6.7128  -16.2475  -53.8247 H         1 UNK         0.0600 
    240 H240       -3.0511  -17.7543  -55.2668 H         1 UNK         0.3000 
    241 H241       -1.6069  -16.6351  -56.4831 H         1 UNK         0.0600 
    242 H242       -4.5370  -14.4342  -57.6763 H         1 UNK         0.3800 
    243 H243       -4.6459  -15.8483  -56.6604 H         1 UNK         0.3800 
    244 H244       -0.3537  -14.6421  -55.5603 H         1 UNK         0.0800 
    245 H245       -1.3936  -14.6425  -54.1691 H         1 UNK         0.0800 
    246 H246       -0.9085  -15.7994  -52.1507 H         1 UNK         0.0800 
    247 H247       -1.4767  -17.3746  -52.6500 H         1 UNK         0.0800 
@<TRIPOS>BOND
     1    1    2 1    
     2    1  127 1    
     3    1  128 1    
     4    1  129 1    
     5    2    3 2    
     6    2    4 am   BACKBONE|DICT|INTERRES
     7    4    5 1    
     8    4  130 1    
     9    5    6 1    
    10    5   65 1    
    11    5  131 1    
    12    6    7 1    
    13    6  132 1    
    14    6  133 1    
    15    7    8 1    
    16    8    9 1    
    17    8  134 1    
    18    8  135 1    
    19    9   10 ar   
    20    9   14 ar   
    21   10   11 ar   
    22   10  136 1    
    23   11   12 ar   
    24   11  126 1    
    25   12   13 ar   
    26   12  137 1    
    27   13   14 ar   
    28   13   15 1    
    29   14  138 1    
    30   15   16 1    
    31   15  139 1    
    32   15  140 1    
    33   16   17 1    
    34   17   18 1    
    35   17  141 1    
    36   17  142 1    
    37   18   19 1    
    38   18   67 1    
    39   18  143 1    
    40   19   20 am   BACKBONE|DICT|INTERRES
    41   19  144 1    
    42   20   21 2    
    43   20   22 1    
    44   22   23 1    
    45   22   24 1    
    46   22  145 1    
    47   23  146 1    
    48   23  147 1    
    49   23  148 1    
    50   24   25 am   BACKBONE|DICT|INTERRES
    51   24  149 1    
    52   25   26 2    
    53   25   27 1    
    54   27   28 1    
    55   27   29 1    
    56   27  150 1    
    57   28  151 1    
    58   28  152 1    
    59   28  153 1    
    60   29   30 am   BACKBONE|DICT|INTERRES
    61   29  154 1    
    62   30   31 2    
    63   30   32 1    
    64   32   33 1    
    65   32   34 1    
    66   32  155 1    
    67   33  156 1    
    68   33  157 1    
    69   33  158 1    
    70   34   35 am   BACKBONE|DICT|INTERRES
    71   34  159 1    
    72   35   36 2    
    73   35   37 1    
    74   37   38 1    
    75   37   39 1    
    76   37  160 1    
    77   38  161 1    
    78   38  162 1    
    79   38  163 1    
    80   39   40 am   BACKBONE|DICT|INTERRES
    81   39  164 1    
    82   40   41 2    
    83   40   42 1    
    84   42   43 1    
    85   42   44 1    
    86   42  165 1    
    87   43  166 1    
    88   43  167 1    
    89   43  168 1    
    90   44   45 am   BACKBONE|DICT|INTERRES
    91   44  169 1    
    92   45   46 2    
    93   45   47 1    
    94   47   48 1    
    95   47   49 1    
    96   47  170 1    
    97   48  171 1    
    98   48  172 1    
    99   48  173 1    
   100   49   50 am   BACKBONE|DICT|INTERRES
   101   49  174 1    
   102   50   51 2    
   103   50   52 1    
   104   52   53 1    
   105   52   54 1    
   106   52  175 1    
   107   53  176 1    
   108   53  177 1    
   109   53  178 1    
   110   54   55 am   BACKBONE|DICT|INTERRES
   111   54  179 1    
   112   55   56 2    
   113   55   57 1    
   114   57   58 1    
   115   57   59 1    
   116   57  180 1    
   117   58  181 1    
   118   58  182 1    
   119   58  183 1    
   120   59   60 am   BACKBONE|DICT|INTERRES
   121   59  184 1    
   122   60   61 2    
   123   60   62 1    
   124   62   63 1    
   125   62   64 1    
   126   62  185 1    
   127   63  186 1    
   128   63  187 1    
   129   63  188 1    
   130   64   65 am   BACKBONE|DICT|INTERRES
   131   64  189 1    
   132   65   66 2    
   133   67   68 2    
   134   67   69 am   BACKBONE|DICT|INTERRES
   135   69   70 1    
   136   69  190 1    
   137   70   71 1    
   138   70   72 1    
   139   70  191 1    
   140   71  192 1    
   141   71  193 1    
   142   71  194 1    
   143   72   73 2    
   144   72   74 am   BACKBONE|DICT|INTERRES
   145   74   75 1    
   146   74  195 1    
   147   75   76 1    
   148   75   77 1    
   149   75  196 1    
   150   76  197 1    
   151   76  198 1    
   152   76  199 1    
   153   77   78 2    
   154   77   79 am   BACKBONE|DICT|INTERRES
   155   79   80 1    
   156   79  200 1    
   157   80   81 1    
   158   80   82 1    
   159   80  201 1    
   160   81  202 1    
   161   81  203 1    
   162   81  204 1    
   163   82   83 2    
   164   82   84 am   BACKBONE|DICT|INTERRES
   165   84   85 1    
   166   84  205 1    
   167   85   86 1    
   168   85   87 1    
   169   85  206 1    
   170   86  207 1    
   171   86  208 1    
   172   86  209 1    
   173   87   88 2    
   174   87   89 am   BACKBONE|DICT|INTERRES
   175   89   90 1    
   176   89  210 1    
   177   90   91 1    
   178   90   92 1    
   179   90  211 1    
   180   91  212 1    
   181   91  213 1    
   182   91  214 1    
   183   92   93 2    
   184   92   94 am   BACKBONE|DICT|INTERRES
   185   94   95 1    
   186   94  215 1    
   187   95   96 1    
   188   95   97 1    
   189   95  216 1    
   190   96  217 1    
   191   96  218 1    
   192   96  219 1    
   193   97   98 2    
   194   97   99 am   BACKBONE|DICT|INTERRES
   195   99  100 1    
   196   99  220 1    
   197  100  101 1    
   198  100  102 1    
   199  100  221 1    
   200  101  222 1    
   201  101  223 1    
   202  101  224 1    
   203  102  103 2    
   204  102  104 am   BACKBONE|DICT|INTERRES
   205  104  105 1    
   206  104  225 1    
   207  105  106 1    
   208  105  107 1    
   209  105  226 1    
   210  106  227 1    
   211  106  228 1    
   212  106  229 1    
   213  107  108 2    
   214  107  109 am   BACKBONE|DICT|INTERRES
   215  109  110 1    
   216  109  230 1    
   217  110  111 1    
   218  110  112 1    
   219  110  231 1    
   220  111  232 1    
   221  111  233 1    
   222  111  234 1    
   223  112  113 2    
   224  112  114 am   BACKBONE|DICT|INTERRES
   225  114  115 1    
   226  114  235 1    
   227  115  116 1    
   228  115  117 1    
   229  115  236 1    
   230  116  237 1    
   231  116  238 1    
   232  116  239 1    
   233  117  118 2    
   234  117  119 am   BACKBONE|DICT|INTERRES
   235  119  120 1    
   236  119  240 1    
   237  120  121 1    
   238  120  124 1    
   239  120  241 1    
   240  121  122 am   BACKBONE|DICT|INTERRES
   241  121  123 2    
   242  122  242 1    
   243  122  243 1    
   244  124  125 1    
   245  124  244 1    
   246  124  245 1    
   247  125  126 1    
   248  126  246 1    
   249  126  247 1    
@<TRIPOS>SUBSTRUCTURE
     1 UNK         1 GROUP             0       ****    0 ROOT    
