@<TRIPOS>MOLECULE
3R540
247   249    1
SMALL
USER_CHARGES


@<TRIPOS>ATOM
      1 CA         -1.9034  -13.1911  -42.4751 C.3       0 UNK        -0.1800 
      2 C          -2.1280  -13.1307  -43.9795 C.2       0 UNK         0.5000 
      3 O          -3.2655  -13.2403  -44.4362 O.2       0 UNK        -0.5000 
      4 N          -1.0499  -12.9520  -44.7472 N.am      1 UNK        -0.5000 
      5 CA         -1.0475  -12.7925  -46.1990 C.3       1 UNK         0.1400 
      6 C6         -1.2965  -14.1240  -46.9607 C.3       23 UNK        -0.0398 
      7 S7         -2.0645  -13.8471  -48.5937 S.3       23 UNK        -0.2404 
      8 C8         -2.4870  -15.5443  -49.0927 C.3       23 UNK        -0.0205 
      9 C9         -1.2772  -16.2912  -49.6326 C.ar      23 UNK        -0.0193 
     10 C10        -0.9583  -16.2238  -50.9922 C.ar      23 UNK        -0.1150 
     11 C11         0.1340  -16.9289  -51.5066 C.ar      23 UNK        -0.0193 
     12 C12         0.9281  -17.6831  -50.6357 C.ar      23 UNK        -0.1150 
     13 C13         0.6159  -17.7639  -49.2769 C.ar      23 UNK        -0.0193 
     14 C14        -0.4878  -17.0656  -48.7802 C.ar      23 UNK        -0.1150 
     15 C15         1.4742  -18.6045  -48.3474 C.3       23 UNK        -0.0205 
     16 S16         1.0743  -20.3775  -48.4591 S.3       23 UNK        -0.2404 
     17 C17        -0.6547  -20.4063  -47.8811 C.3       23 UNK        -0.0398 
     18 CA         -1.0321  -21.7592  -47.2379 C.3       11 UNK         0.1400 
     19 N          -0.3244  -22.0054  -45.9728 N.am      11 UNK        -0.5000 
     20 C          -0.3611  -23.1420  -45.2596 C.2       10 UNK         0.5000 
     21 O          -1.0394  -24.1218  -45.5715 O.2       10 UNK        -0.5000 
     22 CA          0.4589  -23.1753  -43.9605 C.3       10 UNK         0.1400 
     23 CB          1.9584  -23.3313  -44.2573 C.3       10 UNK        -0.1800 
     24 N           0.2296  -21.9676  -43.1690 N.am      10 UNK        -0.5000 
     25 C          -0.7847  -21.8130  -42.3057 C.2       9 UNK         0.5000 
     26 O          -1.5787  -22.7098  -42.0207 O.2       9 UNK        -0.5000 
     27 CA         -0.9641  -20.4212  -41.6623 C.3       9 UNK         0.1400 
     28 CB         -0.2188  -20.3444  -40.3215 C.3       9 UNK        -0.1800 
     29 N          -0.5260  -19.3151  -42.5143 N.am      9 UNK        -0.5000 
     30 C          -1.0523  -19.0135  -43.7088 C.2       8 UNK         0.5000 
     31 O          -2.0030  -19.6098  -44.2122 O.2       8 UNK        -0.5000 
     32 CA         -0.3522  -17.9025  -44.5083 C.3       8 UNK         0.1400 
     33 CB         -0.9018  -16.5269  -44.1141 C.3       8 UNK        -0.1800 
     34 N           1.1064  -17.9122  -44.3702 N.am      8 UNK        -0.5000 
     35 C           1.9054  -18.9522  -44.6535 C.2       7 UNK         0.5000 
     36 O           1.4922  -20.0341  -45.0649 O.2       7 UNK        -0.5000 
     37 CA          3.4084  -18.7692  -44.3983 C.3       7 UNK         0.1400 
     38 CB          4.0658  -17.9597  -45.5258 C.3       7 UNK        -0.1800 
     39 N           3.6484  -18.1235  -43.1101 N.am      7 UNK        -0.5000 
     40 C           3.4888  -18.7302  -41.9248 C.2       6 UNK         0.5000 
     41 O           3.2075  -19.9217  -41.7974 O.2       6 UNK        -0.5000 
     42 CA          3.6407  -17.8470  -40.6723 C.3       6 UNK         0.1400 
     43 CB          5.1059  -17.8087  -40.2131 C.3       6 UNK        -0.1800 
     44 N           3.1676  -16.4784  -40.8894 N.am      6 UNK        -0.5000 
     45 C           1.8848  -16.1403  -41.0846 C.2       5 UNK         0.5000 
     46 O           0.9534  -16.9455  -41.0574 O.2       5 UNK        -0.5000 
     47 CA          1.6122  -14.6615  -41.4237 C.3       5 UNK         0.1400 
     48 CB          1.4703  -13.8227  -40.1456 C.3       5 UNK        -0.1800 
     49 N           2.6494  -14.0792  -42.2841 N.am      5 UNK        -0.5000 
     50 C           2.8507  -14.4553  -43.5529 C.2       4 UNK         0.5000 
     51 O           2.1474  -15.2904  -44.1269 O.2       4 UNK        -0.5000 
     52 CA          4.0622  -13.8612  -44.2851 C.3       4 UNK         0.1400 
     53 CB          5.3383  -14.6058  -43.8351 C.3       4 UNK        -0.1800 
     54 N           3.8038  -14.0124  -45.7167 N.am      4 UNK        -0.5000 
     55 C           4.6267  -13.8481  -46.7583 C.2       3 UNK         0.5000 
     56 O           5.8123  -13.5269  -46.6752 O.2       3 UNK        -0.5000 
     57 CA          3.9823  -14.0437  -48.1450 C.3       3 UNK         0.1400 
     58 CB          3.5500  -15.5042  -48.3642 C.3       3 UNK        -0.1800 
     59 N           2.8267  -13.1656  -48.3337 N.am      3 UNK        -0.5000 
     60 C           2.8861  -11.8273  -48.3976 C.2       2 UNK         0.5000 
     61 O           3.9385  -11.1874  -48.3981 O.2       2 UNK        -0.5000 
     62 CA          1.5476  -11.0658  -48.4732 C.3       2 UNK         0.1400 
     63 CB          1.2124  -10.7168  -49.9316 C.3       2 UNK        -0.1800 
     64 N           0.4076  -11.7748  -47.8848 N.am      2 UNK        -0.5000 
     65 C           0.2786  -12.1159  -46.5964 C.2       1 UNK         0.5000 
     66 O           1.1495  -11.9187  -45.7432 O.2       1 UNK        -0.5000 
     67 C          -2.5638  -21.8933  -47.1219 C.2       11 UNK         0.5000 
     68 O          -3.2056  -22.2439  -48.1129 O.2       11 UNK        -0.5000 
     69 N          -3.1210  -21.6849  -45.9207 N.am      12 UNK        -0.5000 
     70 CA         -4.5135  -21.9681  -45.5632 C.3       12 UNK         0.1400 
     71 CB         -4.7284  -21.6446  -44.0775 C.3       12 UNK        -0.1800 
     72 C          -4.9540  -23.4155  -45.8660 C.2       12 UNK         0.5000 
     73 O          -6.1106  -23.6282  -46.2296 O.2       12 UNK        -0.5000 
     74 N          -4.0190  -24.3674  -45.7485 N.am      13 UNK        -0.5000 
     75 CA         -4.2056  -25.7662  -46.1189 C.3       13 UNK         0.1400 
     76 CB         -3.6486  -26.6632  -45.0016 C.3       13 UNK        -0.1800 
     77 C          -3.5140  -26.0707  -47.4573 C.2       13 UNK         0.5000 
     78 O          -4.1479  -26.6272  -48.3534 O.2       13 UNK        -0.5000 
     79 N          -2.2301  -25.7010  -47.5733 N.am      14 UNK        -0.5000 
     80 CA         -1.3410  -26.0886  -48.6726 C.3       14 UNK         0.1400 
     81 CB          0.1084  -25.7516  -48.2890 C.3       14 UNK        -0.1800 
     82 C          -1.6943  -25.4696  -50.0372 C.2       14 UNK         0.5000 
     83 O          -1.4241  -26.0913  -51.0651 O.2       14 UNK        -0.5000 
     84 N          -2.2899  -24.2718  -50.0263 N.am      15 UNK        -0.5000 
     85 CA         -2.7355  -23.5450  -51.2155 C.3       15 UNK         0.1400 
     86 CB         -1.9133  -22.2519  -51.3474 C.3       15 UNK        -0.1800 
     87 C          -4.2420  -23.2426  -51.1615 C.2       15 UNK         0.5000 
     88 O          -4.7228  -22.4527  -51.9770 O.2       15 UNK        -0.5000 
     89 N          -4.9550  -23.8457  -50.1974 N.am      16 UNK        -0.5000 
     90 CA         -6.3795  -23.6622  -49.9003 C.3       16 UNK         0.1400 
     91 CB         -7.2376  -24.3020  -51.0114 C.3       16 UNK        -0.1800 
     92 C          -6.7522  -22.1882  -49.6233 C.2       16 UNK         0.5000 
     93 O          -7.8020  -21.7259  -50.0683 O.2       16 UNK        -0.5000 
     94 N          -5.8552  -21.4661  -48.9335 N.am      17 UNK        -0.5000 
     95 CA         -5.9063  -20.0242  -48.6593 C.3       17 UNK         0.1400 
     96 CB         -7.1229  -19.6581  -47.7820 C.3       17 UNK        -0.1800 
     97 C          -5.8062  -19.1840  -49.9498 C.2       17 UNK         0.5000 
     98 O          -6.4984  -18.1754  -50.0932 O.2       17 UNK        -0.5000 
     99 N          -4.9363  -19.6396  -50.8636 N.am      18 UNK        -0.5000 
    100 CA        -4.6527  -19.0863  -52.1916 C.3       18 UNK         0.1400 
    101 CB        -4.1230  -17.6427  -52.0957 C.3       18 UNK        -0.1800 
    102 C         -5.8166  -19.2452  -53.1919 C.2       18 UNK         0.5000 
    103 O         -5.9005  -18.4886  -54.1604 O.2       18 UNK        -0.5000 
    104 N         -6.6763  -20.2468  -52.9645 N.am      19 UNK        -0.5000 
    105 CA        -7.7179  -20.6638  -53.9034 C.3       19 UNK         0.1400 
    106 CB        -8.9321  -21.1841  -53.1201 C.3       19 UNK        -0.1800 
    107 C         -7.2096  -21.7385  -54.8834 C.2       19 UNK         0.5000 
    108 O         -7.7934  -21.8872  -55.9579 O.2       19 UNK        -0.5000 
    109 N         -6.1516  -22.4684  -54.5017 N.am      20 UNK        -0.5000 
    110 CA        -5.5328  -23.5306  -55.2876 C.3       20 UNK         0.1400 
    111 CB        -5.5596  -24.8423  -54.4757 C.3       20 UNK        -0.1800 
    112 C         -4.1260  -23.0836  -55.7243 C.2       20 UNK         0.5000 
    113 O         -4.0181  -22.1791  -56.5535 O.2       20 UNK        -0.5000 
    114 N         -3.0796  -23.7194  -55.1763 N.am      21 UNK        -0.5000 
    115 CA        -1.6769  -23.6485  -55.6104 C.3       21 UNK         0.1400 
    116 CB        -0.8369  -24.5705  -54.7118 C.3       21 UNK        -0.1800 
    117 C         -1.0345  -22.2466  -55.6735 C.2       21 UNK         0.5000 
    118 O         -0.0576  -22.0765  -56.4044 O.2       21 UNK        -0.5000 
    119 N         -1.5813  -21.2823  -54.9254 N.am      22 UNK        -0.5000 
    120 CA        -1.1662  -19.8687  -54.9278 C.3       22 UNK         0.1400 
    121 C         -2.2924  -18.9078  -55.4097 C.2       22 UNK         0.5000 
    122 N         -3.3914  -19.3993  -55.9701 N.am      22 UNK        -0.7600 
    123 O         -2.1691  -17.6933  -55.2880 O.2       22 UNK        -0.5000 
    124 C124       -0.5529  -19.4552  -53.5581 C.3       23 UNK        -0.0398 
    125 S125        0.9526  -18.4374  -53.7414 S.3       23 UNK        -0.2404 
    126 C126        0.4491  -16.8472  -52.9981 C.3       23 UNK        -0.0205 
    127 H127       -2.6531  -12.5923  -41.9578 H         1 UNK         0.0600 
    128 H128       -0.9210  -12.8069  -42.2003 H         1 UNK         0.0600 
    129 H129       -1.9844  -14.2193  -42.1228 H         1 UNK         0.0600 
    130 H130       -0.1350  -12.8144  -44.3342 H         1 UNK         0.3000 
    131 H131       -1.8441  -12.0846  -46.4389 H         1 UNK         0.0600 
    132 H132       -0.3768  -14.7008  -47.0710 H         1 UNK         0.0800 
    133 H133       -1.9816  -14.7567  -46.3958 H         1 UNK         0.0800 
    134 H134       -2.9295  -16.0833  -48.2536 H         1 UNK         0.0800 
    135 H135       -3.2608  -15.4979  -49.8605 H         1 UNK         0.0800 
    136 H136       -1.5716  -15.6271  -51.6529 H         1 UNK         0.1150 
    137 H137        1.7840  -18.2229  -51.0153 H         1 UNK         0.1150 
    138 H138       -0.7348  -17.1233  -47.7307 H         1 UNK         0.1150 
    139 H139        2.5263  -18.4650  -48.5992 H         1 UNK         0.0800 
    140 H140        1.3591  -18.2626  -47.3207 H         1 UNK         0.0800 
    141 H141       -1.2838  -20.1865  -48.7454 H         1 UNK         0.0800 
    142 H142       -0.8209  -19.5982  -47.1713 H         1 UNK         0.0800 
    143 H143       -0.7212  -22.5460  -47.9269 H         1 UNK         0.0600 
    144 H144        0.2910  -21.2586  -45.6548 H         1 UNK         0.3000 
    145 H145        0.1437  -24.0497  -43.3871 H         1 UNK         0.0600 
    146 H146        2.5380  -23.3795  -43.3353 H         1 UNK         0.0600 
    147 H147        2.1498  -24.2515  -44.8108 H         1 UNK         0.0600 
    148 H148        2.3486  -22.5062  -44.8531 H         1 UNK         0.0600 
    149 H149        0.8091  -21.1677  -43.3914 H         1 UNK         0.3000 
    150 H150       -2.0302  -20.2853  -41.4692 H         1 UNK         0.0600 
    151 H151       -0.5539  -21.1293  -39.6423 H         1 UNK         0.0600 
    152 H152       -0.3936  -19.3887  -39.8267 H         1 UNK         0.0600 
    153 H153        0.8573  -20.4608  -40.4532 H         1 UNK         0.0600 
    154 H154        0.2294  -18.7383  -42.1633 H         1 UNK         0.3000 
    155 H155       -0.5779  -18.0597  -45.5615 H         1 UNK         0.0600 
    156 H156       -0.7403  -16.3156  -43.0578 H         1 UNK         0.0600 
    157 H157       -1.9747  -16.4654  -44.3007 H         1 UNK         0.0600 
    158 H158       -0.4238  -15.7364  -44.6897 H         1 UNK         0.0600 
    159 H159        1.5313  -17.0317  -44.0905 H         1 UNK         0.3000 
    160 H160        3.8691  -19.7594  -44.3826 H         1 UNK         0.0600 
    161 H161        3.6396  -16.9609  -45.6123 H         1 UNK         0.0600 
    162 H162        3.9340  -18.4567  -46.4872 H         1 UNK         0.0600 
    163 H163        5.1383  -17.8548  -45.3625 H         1 UNK         0.0600 
    164 H164        3.8485  -17.1360  -43.1235 H         1 UNK         0.3000 
    165 H165        3.0419  -18.2938  -39.8756 H         1 UNK         0.0600 
    166 H166        5.2141  -17.2440  -39.2868 H         1 UNK         0.0600 
    167 H167        5.4817  -18.8152  -40.0244 H         1 UNK         0.0600 
    168 H168        5.7527  -17.3519  -40.9633 H         1 UNK         0.0600 
    169 H169        3.8678  -15.7525  -40.9173 H         1 UNK         0.3000 
    170 H170        0.6643  -14.6216  -41.9623 H         1 UNK         0.0600 
    171 H171        0.6884  -14.2255  -39.5003 H         1 UNK         0.0600 
    172 H172        2.3958  -13.8043  -39.5690 H         1 UNK         0.0600 
    173 H173        1.1985  -12.7930  -40.3786 H         1 UNK         0.0600 
    174 H174        3.2563  -13.3885  -41.8659 H         1 UNK         0.3000 
    175 H175        4.1376  -12.7985  -44.0496 H         1 UNK         0.0600 
    176 H176        5.3477  -15.6393  -44.1802 H         1 UNK         0.0600 
    177 H177        6.2391  -14.1211  -44.2096 H         1 UNK         0.0600 
    178 H178        5.4282  -14.6220  -42.7483 H         1 UNK         0.0600 
    179 H179        2.8476  -14.2865  -45.9022 H         1 UNK         0.3000 
    180 H180        4.7294  -13.7935  -48.9012 H         1 UNK         0.0600 
    181 H181        2.7489  -15.7994  -47.6856 H         1 UNK         0.0600 
    182 H182        4.3851  -16.1875  -48.2052 H         1 UNK         0.0600 
    183 H183        3.1940  -15.6598  -49.3829 H         1 UNK         0.0600 
    184 H184        1.9186  -13.6030  -48.3634 H         1 UNK         0.3000 
    185 H185        1.6757  -10.1332  -47.9199 H         1 UNK         0.0600 
    186 H186        2.0274  -10.1626  -50.3993 H         1 UNK         0.0600 
    187 H187        1.0390  -11.6128  -50.5292 H         1 UNK         0.0600 
    188 H188        0.3205  -10.0931  -49.9939 H         1 UNK         0.0600 
    189 H189       -0.3503  -11.9990  -48.5159 H         1 UNK         0.3000 
    190 H190       -2.5408  -21.2982  -45.1831 H         1 UNK         0.3000 
    191 H191       -5.1460  -21.3019  -46.1480 H         1 UNK         0.0600 
    192 H192       -4.5389  -20.5911  -43.8719 H         1 UNK         0.0600 
    193 H193       -5.7554  -21.8529  -43.7747 H         1 UNK         0.0600 
    194 H194       -4.0696  -22.2346  -43.4390 H         1 UNK         0.0600 
    195 H195       -3.0797  -24.0961  -45.4793 H         1 UNK         0.3000 
    196 H196       -5.2673  -25.9959  -46.2317 H         1 UNK         0.0600 
    197 H197       -3.7556  -27.7182  -45.2571 H         1 UNK         0.0600 
    198 H198       -4.1838  -26.4996  -44.0661 H         1 UNK         0.0600 
    199 H199       -2.5904  -26.4743  -44.8162 H         1 UNK         0.0600 
    200 H200       -1.7880  -25.2163  -46.7948 H         1 UNK         0.3000 
    201 H201       -1.4134  -27.1725  -48.7841 H         1 UNK         0.0600 
    202 H202        0.3965  -26.2468  -47.3615 H         1 UNK         0.0600 
    203 H203        0.2532  -24.6800  -48.1537 H         1 UNK         0.0600 
    204 H204        0.8041  -26.0806  -49.0620 H         1 UNK         0.0600 
    205 H205       -2.4898  -23.8226  -49.1395 H         1 UNK         0.3000 
    206 H206       -2.5834  -24.1435  -52.1142 H         1 UNK         0.0600 
    207 H207       -0.8480  -22.4685  -51.4283 H         1 UNK         0.0600 
    208 H208       -2.1994  -21.6931  -52.2368 H         1 UNK         0.0600 
    209 H209       -2.0570  -21.5939  -50.4916 H         1 UNK         0.0600 
    210 H210       -4.4690  -24.4992  -49.5993 H         1 UNK         0.3000 
    211 H211       -6.5758  -24.2048  -48.9745 H         1 UNK         0.0600 
    212 H212       -7.1060  -23.7952  -51.9671 H         1 UNK         0.0600 
    213 H213       -8.2984  -24.2629  -50.7619 H         1 UNK         0.0600 
    214 H214       -6.9774  -25.3508  -51.1532 H         1 UNK         0.0600 
    215 H215       -4.9969  -21.9294  -48.6456 H         1 UNK         0.3000 
    216 H216       -5.0085  -19.7937  -48.0841 H         1 UNK         0.0600 
    217 H217       -7.0548  -18.6260  -47.4367 H         1 UNK         0.0600 
    218 H218       -7.1840  -20.2927  -46.8985 H         1 UNK         0.0600 
    219 H219       -8.0621  -19.7554  -48.3270 H         1 UNK         0.0600 
    220 H220       -4.4768  -20.5170  -50.6647 H         1 UNK         0.3000 
    221 H221       -3.8434  -19.6967  -52.5938 H         1 UNK         0.0600 
    222 H222       -4.9002  -16.9397  -51.7964 H         1 UNK         0.0600 
    223 H223       -3.3142  -17.5805  -51.3708 H         1 UNK         0.0600 
    224 H224       -3.7292  -17.3025  -53.0535 H         1 UNK         0.0600 
    225 H225       -6.5437  -20.8216  -52.1430 H         1 UNK         0.3000 
    226 H226       -8.0469  -19.8052  -54.4924 H         1 UNK         0.0600 
    227 H227       -9.2870  -20.4439  -52.4026 H         1 UNK         0.0600 
    228 H228       -9.7604  -21.4104  -53.7924 H         1 UNK         0.0600 
    229 H229       -8.6995  -22.0968  -52.5724 H         1 UNK         0.0600 
    230 H230       -5.7137  -22.2717  -53.6062 H         1 UNK         0.3000 
    231 H231       -6.0948  -23.7071  -56.2067 H         1 UNK         0.0600 
    232 H232       -5.0315  -24.7578  -53.5270 H         1 UNK         0.0600 
    233 H233       -5.1128  -25.6636  -55.0377 H         1 UNK         0.0600 
    234 H234       -6.5857  -25.1337  -54.2504 H         1 UNK         0.0600 
    235 H235       -3.2854  -24.4411  -54.5022 H         1 UNK         0.3000 
    236 H236       -1.6457  -24.0504  -56.6250 H         1 UNK         0.0600 
    237 H237       -1.2272  -25.5884  -54.7073 H         1 UNK         0.0600 
    238 H238        0.1945  -24.6237  -55.0630 H         1 UNK         0.0600 
    239 H239       -0.8096  -24.2148  -53.6817 H         1 UNK         0.0600 
    240 H240       -2.4068  -21.5055  -54.3909 H         1 UNK         0.3000 
    241 H241       -0.3943  -19.7457  -55.6890 H         1 UNK         0.0600 
    242 H242       -4.1202  -18.7609  -56.2471 H         1 UNK         0.3800 
    243 H243       -3.5023  -20.3916  -56.1584 H         1 UNK         0.3800 
    244 H244       -1.2835  -18.9546  -52.9203 H         1 UNK         0.0800 
    245 H245       -0.2421  -20.3387  -52.9993 H         1 UNK         0.0800 
    246 H246       -0.4097  -16.4637  -53.5512 H         1 UNK         0.0800 
    247 H247        1.2545  -16.1259  -53.1400 H         1 UNK         0.0800 
@<TRIPOS>BOND
     1    1    2 1    
     2    1  127 1    
     3    1  128 1    
     4    1  129 1    
     5    2    3 2    
     6    2    4 am   BACKBONE|DICT|INTERRES
     7    4    5 1    
     8    4  130 1    
     9    5    6 1    
    10    5   65 1    
    11    5  131 1    
    12    6    7 1    
    13    6  132 1    
    14    6  133 1    
    15    7    8 1    
    16    8    9 1    
    17    8  134 1    
    18    8  135 1    
    19    9   10 ar   
    20    9   14 ar   
    21   10   11 ar   
    22   10  136 1    
    23   11   12 ar   
    24   11  126 1    
    25   12   13 ar   
    26   12  137 1    
    27   13   14 ar   
    28   13   15 1    
    29   14  138 1    
    30   15   16 1    
    31   15  139 1    
    32   15  140 1    
    33   16   17 1    
    34   17   18 1    
    35   17  141 1    
    36   17  142 1    
    37   18   19 1    
    38   18   67 1    
    39   18  143 1    
    40   19   20 am   BACKBONE|DICT|INTERRES
    41   19  144 1    
    42   20   21 2    
    43   20   22 1    
    44   22   23 1    
    45   22   24 1    
    46   22  145 1    
    47   23  146 1    
    48   23  147 1    
    49   23  148 1    
    50   24   25 am   BACKBONE|DICT|INTERRES
    51   24  149 1    
    52   25   26 2    
    53   25   27 1    
    54   27   28 1    
    55   27   29 1    
    56   27  150 1    
    57   28  151 1    
    58   28  152 1    
    59   28  153 1    
    60   29   30 am   BACKBONE|DICT|INTERRES
    61   29  154 1    
    62   30   31 2    
    63   30   32 1    
    64   32   33 1    
    65   32   34 1    
    66   32  155 1    
    67   33  156 1    
    68   33  157 1    
    69   33  158 1    
    70   34   35 am   BACKBONE|DICT|INTERRES
    71   34  159 1    
    72   35   36 2    
    73   35   37 1    
    74   37   38 1    
    75   37   39 1    
    76   37  160 1    
    77   38  161 1    
    78   38  162 1    
    79   38  163 1    
    80   39   40 am   BACKBONE|DICT|INTERRES
    81   39  164 1    
    82   40   41 2    
    83   40   42 1    
    84   42   43 1    
    85   42   44 1    
    86   42  165 1    
    87   43  166 1    
    88   43  167 1    
    89   43  168 1    
    90   44   45 am   BACKBONE|DICT|INTERRES
    91   44  169 1    
    92   45   46 2    
    93   45   47 1    
    94   47   48 1    
    95   47   49 1    
    96   47  170 1    
    97   48  171 1    
    98   48  172 1    
    99   48  173 1    
   100   49   50 am   BACKBONE|DICT|INTERRES
   101   49  174 1    
   102   50   51 2    
   103   50   52 1    
   104   52   53 1    
   105   52   54 1    
   106   52  175 1    
   107   53  176 1    
   108   53  177 1    
   109   53  178 1    
   110   54   55 am   BACKBONE|DICT|INTERRES
   111   54  179 1    
   112   55   56 2    
   113   55   57 1    
   114   57   58 1    
   115   57   59 1    
   116   57  180 1    
   117   58  181 1    
   118   58  182 1    
   119   58  183 1    
   120   59   60 am   BACKBONE|DICT|INTERRES
   121   59  184 1    
   122   60   61 2    
   123   60   62 1    
   124   62   63 1    
   125   62   64 1    
   126   62  185 1    
   127   63  186 1    
   128   63  187 1    
   129   63  188 1    
   130   64   65 am   BACKBONE|DICT|INTERRES
   131   64  189 1    
   132   65   66 2    
   133   67   68 2    
   134   67   69 am   BACKBONE|DICT|INTERRES
   135   69   70 1    
   136   69  190 1    
   137   70   71 1    
   138   70   72 1    
   139   70  191 1    
   140   71  192 1    
   141   71  193 1    
   142   71  194 1    
   143   72   73 2    
   144   72   74 am   BACKBONE|DICT|INTERRES
   145   74   75 1    
   146   74  195 1    
   147   75   76 1    
   148   75   77 1    
   149   75  196 1    
   150   76  197 1    
   151   76  198 1    
   152   76  199 1    
   153   77   78 2    
   154   77   79 am   BACKBONE|DICT|INTERRES
   155   79   80 1    
   156   79  200 1    
   157   80   81 1    
   158   80   82 1    
   159   80  201 1    
   160   81  202 1    
   161   81  203 1    
   162   81  204 1    
   163   82   83 2    
   164   82   84 am   BACKBONE|DICT|INTERRES
   165   84   85 1    
   166   84  205 1    
   167   85   86 1    
   168   85   87 1    
   169   85  206 1    
   170   86  207 1    
   171   86  208 1    
   172   86  209 1    
   173   87   88 2    
   174   87   89 am   BACKBONE|DICT|INTERRES
   175   89   90 1    
   176   89  210 1    
   177   90   91 1    
   178   90   92 1    
   179   90  211 1    
   180   91  212 1    
   181   91  213 1    
   182   91  214 1    
   183   92   93 2    
   184   92   94 am   BACKBONE|DICT|INTERRES
   185   94   95 1    
   186   94  215 1    
   187   95   96 1    
   188   95   97 1    
   189   95  216 1    
   190   96  217 1    
   191   96  218 1    
   192   96  219 1    
   193   97   98 2    
   194   97   99 am   BACKBONE|DICT|INTERRES
   195   99  100 1    
   196   99  220 1    
   197  100  101 1    
   198  100  102 1    
   199  100  221 1    
   200  101  222 1    
   201  101  223 1    
   202  101  224 1    
   203  102  103 2    
   204  102  104 am   BACKBONE|DICT|INTERRES
   205  104  105 1    
   206  104  225 1    
   207  105  106 1    
   208  105  107 1    
   209  105  226 1    
   210  106  227 1    
   211  106  228 1    
   212  106  229 1    
   213  107  108 2    
   214  107  109 am   BACKBONE|DICT|INTERRES
   215  109  110 1    
   216  109  230 1    
   217  110  111 1    
   218  110  112 1    
   219  110  231 1    
   220  111  232 1    
   221  111  233 1    
   222  111  234 1    
   223  112  113 2    
   224  112  114 am   BACKBONE|DICT|INTERRES
   225  114  115 1    
   226  114  235 1    
   227  115  116 1    
   228  115  117 1    
   229  115  236 1    
   230  116  237 1    
   231  116  238 1    
   232  116  239 1    
   233  117  118 2    
   234  117  119 am   BACKBONE|DICT|INTERRES
   235  119  120 1    
   236  119  240 1    
   237  120  121 1    
   238  120  124 1    
   239  120  241 1    
   240  121  122 am   BACKBONE|DICT|INTERRES
   241  121  123 2    
   242  122  242 1    
   243  122  243 1    
   244  124  125 1    
   245  124  244 1    
   246  124  245 1    
   247  125  126 1    
   248  126  246 1    
   249  126  247 1    
@<TRIPOS>SUBSTRUCTURE
     1 UNK         1 GROUP             0       ****    0 ROOT    
