@<TRIPOS>MOLECULE
3R540
247   249    1
SMALL
USER_CHARGES


@<TRIPOS>ATOM
      1 CA          5.3394  -14.3679  -46.9172 C.3       0 UNK        -0.1800 
      2 C           4.3101  -13.4346  -46.2986 C.2       0 UNK         0.5000 
      3 O           4.4817  -13.0006  -45.1598 O.2       0 UNK        -0.5000 
      4 N           3.2487  -13.1076  -47.0484 N.am      1 UNK        -0.5000 
      5 CA          2.1084  -12.2947  -46.5968 C.3       1 UNK         0.1400 
      6 C6          0.9431  -12.2990  -47.6112 C.3       23 UNK        -0.0398 
      7 S7          0.2513  -13.9712  -47.8343 S.3       23 UNK        -0.2404 
      8 C8          0.6937  -14.3119  -49.5641 C.3       23 UNK        -0.0205 
      9 C9          0.1591  -15.6618  -50.0137 C.ar      23 UNK        -0.0193 
     10 C10        -1.1996  -15.8110  -50.3004 C.ar      23 UNK        -0.1150 
     11 C11        -1.7080  -17.0428  -50.7186 C.ar      23 UNK        -0.0193 
     12 C12        -0.8398  -18.1283  -50.8760 C.ar      23 UNK        -0.1150 
     13 C13         0.5241  -17.9921  -50.5912 C.ar      23 UNK        -0.0193 
     14 C14         1.0153  -16.7577  -50.1539 C.ar      23 UNK        -0.1150 
     15 C15         1.4773  -19.1661  -50.7737 C.3       23 UNK        -0.0205 
     16 S16         1.7202  -20.1082  -49.2322 S.3       23 UNK        -0.2404 
     17 C17         0.1246  -20.9748  -49.1211 C.3       23 UNK        -0.0398 
     18 CA          0.1253  -22.1559  -48.1196 C.3       11 UNK         0.1400 
     19 N           0.1551  -21.7181  -46.7191 N.am      11 UNK        -0.5000 
     20 C           0.1994  -22.5379  -45.6568 C.2       10 UNK         0.5000 
     21 O           0.2981  -23.7619  -45.7396 O.2       10 UNK        -0.5000 
     22 CA          0.0418  -21.8954  -44.2662 C.3       10 UNK         0.1400 
     23 CB          1.3578  -21.2598  -43.7950 C.3       10 UNK        -0.1800 
     24 N          -1.0371  -20.9074  -44.2234 N.am      10 UNK        -0.5000 
     25 C          -2.3308  -21.1856  -44.4428 C.2       9 UNK         0.5000 
     26 O          -2.7607  -22.3171  -44.6583 O.2       9 UNK        -0.5000 
     27 CA         -3.3047  -19.9969  -44.4791 C.3       9 UNK         0.1400 
     28 CB         -3.7505  -19.5991  -43.0639 C.3       9 UNK        -0.1800 
     29 N          -2.7278  -18.8415  -45.1617 N.am      9 UNK        -0.5000 
     30 C          -2.4580  -18.7963  -46.4739 C.2       8 UNK         0.5000 
     31 O          -2.7098  -19.7110  -47.2599 O.2       8 UNK        -0.5000 
     32 CA         -1.7480  -17.5261  -46.9729 C.3       8 UNK         0.1400 
     33 CB         -2.7635  -16.3871  -47.1499 C.3       8 UNK        -0.1800 
     34 N          -0.6755  -17.0964  -46.0721 N.am      8 UNK        -0.5000 
     35 C           0.4322  -17.8154  -45.8306 C.2       7 UNK         0.5000 
     36 O           0.6619  -18.9024  -46.3555 O.2       7 UNK        -0.5000 
     37 CA          1.4206  -17.2758  -44.7774 C.3       7 UNK         0.1400 
     38 CB          2.4344  -16.3272  -45.4292 C.3       7 UNK        -0.1800 
     39 N           0.7673  -16.5941  -43.6603 N.am      7 UNK        -0.5000 
     40 C          -0.1661  -17.1413  -42.8658 C.2       6 UNK         0.5000 
     41 O          -0.4912  -18.3272  -42.9242 O.2       6 UNK        -0.5000 
     42 CA         -0.9008  -16.2127  -41.8755 C.3       6 UNK         0.1400 
     43 CB         -0.3745  -16.4297  -40.4492 C.3       6 UNK        -0.1800 
     44 N          -0.8037  -14.7881  -42.2028 N.am      6 UNK        -0.5000 
     45 C          -1.2018  -14.2071  -43.3444 C.2       5 UNK         0.5000 
     46 O          -1.8023  -14.8037  -44.2385 O.2       5 UNK        -0.5000 
     47 CA         -0.8072  -12.7295  -43.5486 C.3       5 UNK         0.1400 
     48 CB         -2.0189  -11.8136  -43.3231 C.3       5 UNK        -0.1800 
     49 N           0.3041  -12.2687  -42.7036 N.am      5 UNK        -0.5000 
     50 C           1.5480  -12.7682  -42.7091 C.2       4 UNK         0.5000 
     51 O           1.8944  -13.7342  -43.3903 O.2       4 UNK        -0.5000 
     52 CA          2.5579  -12.1171  -41.7600 C.3       4 UNK         0.1400 
     53 CB          2.9346  -13.0814  -40.6198 C.3       4 UNK        -0.1800 
     54 N           3.7435  -11.7312  -42.5178 N.am      4 UNK        -0.5000 
     55 C           4.6251  -10.8013  -42.1277 C.2       3 UNK         0.5000 
     56 O           4.5479  -10.1895  -41.0612 O.2       3 UNK        -0.5000 
     57 CA          5.7682  -10.4737  -43.1011 C.3       3 UNK         0.1400 
     58 CB          6.8283  -11.5871  -43.1087 C.3       3 UNK        -0.1800 
     59 N           5.2516  -10.2681  -44.4528 N.am      3 UNK        -0.5000 
     60 C           4.8233   -9.0889  -44.9276 C.2       2 UNK         0.5000 
     61 O           4.8904   -8.0341  -44.2951 O.2       2 UNK        -0.5000 
     62 CA          4.2162   -9.0730  -46.3459 C.3       2 UNK         0.1400 
     63 CB          5.2847   -8.6959  -47.3835 C.3       2 UNK        -0.1800 
     64 N           3.6144  -10.3504  -46.7272 N.am      2 UNK        -0.5000 
     65 C           2.4890  -10.8521  -46.1994 C.2       1 UNK         0.5000 
     66 O           1.7773  -10.2382  -45.4041 O.2       1 UNK        -0.5000 
     67 C          -1.0828  -23.0710  -48.3988 C.2       11 UNK         0.5000 
     68 O          -0.9032  -24.1624  -48.9412 O.2       11 UNK        -0.5000 
     69 N          -2.2837  -22.6200  -48.0079 N.am      12 UNK        -0.5000 
     70 CA         -3.5332  -23.3565  -48.1947 C.3       12 UNK         0.1400 
     71 CB         -4.7224  -22.4666  -47.8073 C.3       12 UNK        -0.1800 
     72 C          -3.5661  -24.6949  -47.4345 C.2       12 UNK         0.5000 
     73 O          -4.0019  -25.6994  -47.9963 O.2       12 UNK        -0.5000 
     74 N          -3.0662  -24.6991  -46.1912 N.am      13 UNK        -0.5000 
     75 CA         -2.9303  -25.8902  -45.3530 C.3       13 UNK         0.1400 
     76 CB         -2.5431  -25.4759  -43.9255 C.3       13 UNK        -0.1800 
     77 C          -1.9206  -26.9067  -45.9147 C.2       13 UNK         0.5000 
     78 O          -2.1914  -28.1072  -45.8742 O.2       13 UNK        -0.5000 
     79 N          -0.7902  -26.4144  -46.4421 N.am      14 UNK        -0.5000 
     80 CA          0.2484  -27.2276  -47.0761 C.3       14 UNK         0.1400 
     81 CB          1.5074  -26.3768  -47.3029 C.3       14 UNK        -0.1800 
     82 C          -0.2225  -27.8678  -48.3940 C.2       14 UNK         0.5000 
     83 O           0.0646  -29.0414  -48.6344 O.2       14 UNK        -0.5000 
     84 N          -0.9463  -27.0943  -49.2145 N.am      15 UNK        -0.5000 
     85 CA         -1.5310  -27.5557  -50.4743 C.3       15 UNK         0.1400 
     86 CB         -1.9377  -26.3362  -51.3136 C.3       15 UNK        -0.1800 
     87 C          -2.7467  -28.4793  -50.2765 C.2       15 UNK         0.5000 
     88 O          -2.9908  -29.3391  -51.1236 O.2       15 UNK        -0.5000 
     89 N          -3.4969  -28.2549  -49.1866 N.am      16 UNK        -0.5000 
     90 CA         -4.8123  -28.8256  -48.8749 C.3       16 UNK         0.1400 
     91 CB         -4.7216  -30.3473  -48.6383 C.3       16 UNK        -0.1800 
     92 C          -5.8685  -28.4253  -49.9289 C.2       16 UNK         0.5000 
     93 O          -6.7157  -29.2365  -50.3079 O.2       16 UNK        -0.5000 
     94 N          -5.7721  -27.1771  -50.4007 N.am      17 UNK        -0.5000 
     95 CA         -6.5307  -26.5907  -51.5000 C.3       17 UNK         0.1400 
     96 CB         -6.0718  -27.2056  -52.8390 C.3       17 UNK        -0.1800 
     97 C          -6.3045  -25.0703  -51.4887 C.2       17 UNK         0.5000 
     98 O          -5.5151  -24.5726  -50.6814 O.2       17 UNK        -0.5000 
     99 N          -6.9792  -24.3534  -52.3960 N.am      18 UNK        -0.5000 
    100 CA        -6.8227  -22.9134  -52.6111 C.3       18 UNK         0.1400 
    101 CB        -8.0466  -22.3839  -53.3800 C.3       18 UNK        -0.1800 
    102 C         -5.4963  -22.5947  -53.3329 C.2       18 UNK         0.5000 
    103 O         -5.4919  -22.3224  -54.5363 O.2       18 UNK        -0.5000 
    104 N         -4.3887  -22.6775  -52.5855 N.am      19 UNK        -0.5000 
    105 CA        -3.0227  -22.3880  -53.0211 C.3       19 UNK         0.1400 
    106 CB        -2.0795  -22.5302  -51.8208 C.3       19 UNK        -0.1800 
    107 C         -2.8958  -20.9786  -53.6212 C.2       19 UNK         0.5000 
    108 O         -3.3352  -20.0164  -52.9934 O.2       19 UNK        -0.5000 
    109 N         -2.3341  -20.8934  -54.8353 N.am      20 UNK        -0.5000 
    110 CA        -2.1784  -19.6738  -55.6419 C.3       20 UNK         0.1400 
    111 CB        -1.1594  -18.7179  -54.9847 C.3       20 UNK        -0.1800 
    112 C         -3.5165  -18.9761  -55.9900 C.2       20 UNK         0.5000 
    113 O         -3.5221  -17.7801  -56.2852 O.2       20 UNK        -0.5000 
    114 N         -4.6200  -19.7420  -55.9582 N.am      21 UNK        -0.5000 
    115 CA        -6.0121  -19.3150  -56.1272 C.3       21 UNK         0.1400 
    116 CB        -6.2619  -18.7628  -57.5468 C.3       21 UNK        -0.1800 
    117 C         -6.4959  -18.3667  -55.0079 C.2       21 UNK         0.5000 
    118 O         -7.3437  -17.5066  -55.2554 O.2       21 UNK        -0.5000 
    119 N         -5.9680  -18.5482  -53.7926 N.am      22 UNK        -0.5000 
    120 CA        -6.3119  -17.7783  -52.5918 C.3       22 UNK         0.1400 
    121 C         -6.3250  -18.6606  -51.3115 C.2       22 UNK         0.5000 
    122 N         -6.6112  -18.0877  -50.1493 N.am      22 UNK        -0.7600 
    123 O         -6.1151  -19.8695  -51.3527 O.2       22 UNK        -0.5000 
    124 C124       -5.4808  -16.4677  -52.4641 C.3       23 UNK        -0.0398 
    125 S125       -3.6684  -16.6487  -52.6317 S.3       23 UNK        -0.2404 
    126 C126       -3.2000  -17.1963  -50.9630 C.3       23 UNK        -0.0205 
    127 H127        5.0542  -14.6770  -47.9231 H         1 UNK         0.0600 
    128 H128        5.4464  -15.2626  -46.3041 H         1 UNK         0.0600 
    129 H129        6.3088  -13.8728  -46.9727 H         1 UNK         0.0600 
    130 H130        3.1658  -13.4943  -47.9768 H         1 UNK         0.3000 
    131 H131        1.7367  -12.7644  -45.6885 H         1 UNK         0.0600 
    132 H132        1.2622  -11.8871  -48.5700 H         1 UNK         0.0800 
    133 H133        0.1280  -11.6616  -47.2627 H         1 UNK         0.0800 
    134 H134        0.2835  -13.5304  -50.2055 H         1 UNK         0.0800 
    135 H135        1.7776  -14.2724  -49.6788 H         1 UNK         0.0800 
    136 H136       -1.8663  -14.9682  -50.1824 H         1 UNK         0.1150 
    137 H137       -1.2302  -19.0788  -51.2125 H         1 UNK         0.1150 
    138 H138        2.0673  -16.6501  -49.9300 H         1 UNK         0.1150 
    139 H139        1.1192  -19.8284  -51.5634 H         1 UNK         0.0800 
    140 H140        2.4470  -18.7970  -51.1110 H         1 UNK         0.0800 
    141 H141       -0.1053  -21.3309  -50.1254 H         1 UNK         0.0800 
    142 H142       -0.6502  -20.2510  -48.8659 H         1 UNK         0.0800 
    143 H143        1.0232  -22.7528  -48.2924 H         1 UNK         0.0600 
    144 H144        0.1429  -20.7126  -46.5631 H         1 UNK         0.3000 
    145 H145       -0.2170  -22.6889  -43.5622 H         1 UNK         0.0600 
    146 H146        1.2472  -20.8011  -42.8122 H         1 UNK         0.0600 
    147 H147        2.1442  -22.0114  -43.7186 H         1 UNK         0.0600 
    148 H148        1.7075  -20.4941  -44.4860 H         1 UNK         0.0600 
    149 H149       -0.7774  -19.9509  -44.0028 H         1 UNK         0.3000 
    150 H150       -4.1905  -20.3091  -45.0361 H         1 UNK         0.0600 
    151 H151       -4.2273  -20.4397  -42.5581 H         1 UNK         0.0600 
    152 H152       -4.4744  -18.7846  -43.0926 H         1 UNK         0.0600 
    153 H153       -2.9114  -19.2808  -42.4455 H         1 UNK         0.0600 
    154 H154       -2.4397  -18.0662  -44.5831 H         1 UNK         0.3000 
    155 H155       -1.3014  -17.7505  -47.9429 H         1 UNK         0.0600 
    156 H156       -2.2962  -15.5010  -47.5769 H         1 UNK         0.0600 
    157 H157       -3.5700  -16.6852  -47.8201 H         1 UNK         0.0600 
    158 H158       -3.2178  -16.0994  -46.2014 H         1 UNK         0.0600 
    159 H159       -0.8198  -16.2258  -45.5744 H         1 UNK         0.3000 
    160 H160        1.9672  -18.1263  -44.3671 H         1 UNK         0.0600 
    161 H161        1.9484  -15.4274  -45.8055 H         1 UNK         0.0600 
    162 H162        2.9397  -16.8056  -46.2692 H         1 UNK         0.0600 
    163 H163        3.2006  -16.0185  -44.7178 H         1 UNK         0.0600 
    164 H164        1.0027  -15.6151  -43.5355 H         1 UNK         0.3000 
    165 H165       -1.9574  -16.4863  -41.9001 H         1 UNK         0.0600 
    166 H166       -0.9440  -15.8475  -39.7245 H         1 UNK         0.0600 
    167 H167       -0.4560  -17.4777  -40.1572 H         1 UNK         0.0600 
    168 H168        0.6748  -16.1447  -40.3609 H         1 UNK         0.0600 
    169 H169       -0.3140  -14.2111  -41.5356 H         1 UNK         0.3000 
    170 H170       -0.4931  -12.6263  -44.5890 H         1 UNK         0.0600 
    171 H171       -2.8560  -12.1086  -43.9576 H         1 UNK         0.0600 
    172 H172       -2.3625  -11.8487  -42.2885 H         1 UNK         0.0600 
    173 H173       -1.7808  -10.7775  -43.5648 H         1 UNK         0.0600 
    174 H174        0.1016  -11.4830  -42.1021 H         1 UNK         0.3000 
    175 H175        2.1051  -11.2209  -41.3303 H         1 UNK         0.0600 
    176 H176        2.0491  -13.4035  -40.0706 H         1 UNK         0.0600 
    177 H177        3.4298  -13.9761  -40.9997 H         1 UNK         0.0600 
    178 H178        3.6050  -12.6081  -39.9025 H         1 UNK         0.0600 
    179 H179        3.8709  -12.2078  -43.4078 H         1 UNK         0.3000 
    180 H180        6.2558   -9.5599  -42.7542 H         1 UNK         0.0600 
    181 H181        6.4144  -12.5468  -43.4182 H         1 UNK         0.0600 
    182 H182        7.2546  -11.7222  -42.1140 H         1 UNK         0.0600 
    183 H183        7.6488  -11.3438  -43.7837 H         1 UNK         0.0600 
    184 H184        5.0993  -11.1073  -45.0012 H         1 UNK         0.3000 
    185 H185        3.4371   -8.3079  -46.3639 H         1 UNK         0.0600 
    186 H186        5.7372   -7.7324  -47.1453 H         1 UNK         0.0600 
    187 H187        6.0865   -9.4344  -47.4226 H         1 UNK         0.0600 
    188 H188        4.8540   -8.6132  -48.3816 H         1 UNK         0.0600 
    189 H189        4.1368  -10.9251  -47.3724 H         1 UNK         0.3000 
    190 H190       -2.3558  -21.7015  -47.5812 H         1 UNK         0.3000 
    191 H191       -3.6133  -23.5833  -49.2582 H         1 UNK         0.0600 
    192 H192       -4.6834  -22.1763  -46.7571 H         1 UNK         0.0600 
    193 H193       -5.6665  -22.9870  -47.9735 H         1 UNK         0.0600 
    194 H194       -4.7436  -21.5562  -48.4072 H         1 UNK         0.0600 
    195 H195       -2.7740  -23.8175  -45.7758 H         1 UNK         0.3000 
    196 H196       -3.9051  -26.3805  -45.3108 H         1 UNK         0.0600 
    197 H197       -2.4419  -26.3477  -43.2780 H         1 UNK         0.0600 
    198 H198       -3.3018  -24.8294  -43.4840 H         1 UNK         0.0600 
    199 H199       -1.5942  -24.9387  -43.9065 H         1 UNK         0.0600 
    200 H200       -0.6170  -25.4147  -46.3934 H         1 UNK         0.3000 
    201 H201        0.5081  -28.0358  -46.3893 H         1 UNK         0.0600 
    202 H202        1.9016  -25.9991  -46.3594 H         1 UNK         0.0600 
    203 H203        1.3052  -25.5202  -47.9467 H         1 UNK         0.0600 
    204 H204        2.2972  -26.9636  -47.7735 H         1 UNK         0.0600 
    205 H205       -1.0865  -26.1170  -48.9726 H         1 UNK         0.3000 
    206 H206       -0.7713  -28.1131  -51.0262 H         1 UNK         0.0600 
    207 H207       -1.0800  -25.6941  -51.5141 H         1 UNK         0.0600 
    208 H208       -2.3501  -26.6405  -52.2764 H         1 UNK         0.0600 
    209 H209       -2.6971  -25.7400  -50.8055 H         1 UNK         0.0600 
    210 H210       -3.2345  -27.4721  -48.5972 H         1 UNK         0.3000 
    211 H211       -5.1273  -28.3654  -47.9373 H         1 UNK         0.0600 
    212 H212       -4.4807  -30.8894  -49.5530 H         1 UNK         0.0600 
    213 H213       -5.6687  -30.7400  -48.2671 H         1 UNK         0.0600 
    214 H214       -3.9589  -30.5841  -47.8963 H         1 UNK         0.0600 
    215 H215       -5.1055  -26.5384  -49.9781 H         1 UNK         0.3000 
    216 H216       -7.5938  -26.7827  -51.3439 H         1 UNK         0.0600 
    217 H217       -5.0112  -27.0232  -53.0179 H         1 UNK         0.0600 
    218 H218       -6.6244  -26.7890  -53.6815 H         1 UNK         0.0600 
    219 H219       -6.2303  -28.2837  -52.8603 H         1 UNK         0.0600 
    220 H220       -7.5898  -24.8337  -53.0408 H         1 UNK         0.3000 
    221 H221       -6.8030  -22.4169  -51.6389 H         1 UNK         0.0600 
    222 H222       -8.9662  -22.5502  -52.8188 H         1 UNK         0.0600 
    223 H223       -8.1546  -22.8646  -54.3530 H         1 UNK         0.0600 
    224 H224       -7.9609  -21.3096  -53.5502 H         1 UNK         0.0600 
    225 H225       -4.5056  -22.9657  -51.6220 H         1 UNK         0.3000 
    226 H226       -2.7504  -23.1312  -53.7728 H         1 UNK         0.0600 
    227 H227       -2.1495  -23.5208  -51.3778 H         1 UNK         0.0600 
    228 H228       -1.0417  -22.3780  -52.1190 H         1 UNK         0.0600 
    229 H229       -2.3152  -21.8022  -51.0431 H         1 UNK         0.0600 
    230 H230       -2.0208  -21.7453  -55.2800 H         1 UNK         0.3000 
    231 H231       -1.7565  -19.9942  -56.5954 H         1 UNK         0.0600 
    232 H232       -1.5326  -18.3109  -54.0448 H         1 UNK         0.0600 
    233 H233       -0.9330  -17.8741  -55.6372 H         1 UNK         0.0600 
    234 H234       -0.2183  -19.2266  -54.7767 H         1 UNK         0.0600 
    235 H235       -4.5132  -20.7080  -55.6712 H         1 UNK         0.3000 
    236 H236       -6.6128  -20.2198  -56.0243 H         1 UNK         0.0600 
    237 H237       -7.3270  -18.6077  -57.7227 H         1 UNK         0.0600 
    238 H238       -5.7644  -17.8059  -57.7053 H         1 UNK         0.0600 
    239 H239       -5.9071  -19.4570  -58.3085 H         1 UNK         0.0600 
    240 H240       -5.2571  -19.2572  -53.6444 H         1 UNK         0.3000 
    241 H241       -7.3574  -17.4813  -52.6934 H         1 UNK         0.0600 
    242 H242       -6.6348  -18.6651  -49.3240 H         1 UNK         0.3800 
    243 H243       -6.8378  -17.1092  -50.0730 H         1 UNK         0.3800 
    244 H244       -5.7066  -15.9362  -51.5394 H         1 UNK         0.0800 
    245 H245       -5.7943  -15.7883  -53.2577 H         1 UNK         0.0800 
    246 H246       -3.4935  -18.2383  -50.8275 H         1 UNK         0.0800 
    247 H247       -3.7519  -16.6192  -50.2207 H         1 UNK         0.0800 
@<TRIPOS>BOND
     1    1    2 1    
     2    1  127 1    
     3    1  128 1    
     4    1  129 1    
     5    2    3 2    
     6    2    4 am   BACKBONE|DICT|INTERRES
     7    4    5 1    
     8    4  130 1    
     9    5    6 1    
    10    5   65 1    
    11    5  131 1    
    12    6    7 1    
    13    6  132 1    
    14    6  133 1    
    15    7    8 1    
    16    8    9 1    
    17    8  134 1    
    18    8  135 1    
    19    9   10 ar   
    20    9   14 ar   
    21   10   11 ar   
    22   10  136 1    
    23   11   12 ar   
    24   11  126 1    
    25   12   13 ar   
    26   12  137 1    
    27   13   14 ar   
    28   13   15 1    
    29   14  138 1    
    30   15   16 1    
    31   15  139 1    
    32   15  140 1    
    33   16   17 1    
    34   17   18 1    
    35   17  141 1    
    36   17  142 1    
    37   18   19 1    
    38   18   67 1    
    39   18  143 1    
    40   19   20 am   BACKBONE|DICT|INTERRES
    41   19  144 1    
    42   20   21 2    
    43   20   22 1    
    44   22   23 1    
    45   22   24 1    
    46   22  145 1    
    47   23  146 1    
    48   23  147 1    
    49   23  148 1    
    50   24   25 am   BACKBONE|DICT|INTERRES
    51   24  149 1    
    52   25   26 2    
    53   25   27 1    
    54   27   28 1    
    55   27   29 1    
    56   27  150 1    
    57   28  151 1    
    58   28  152 1    
    59   28  153 1    
    60   29   30 am   BACKBONE|DICT|INTERRES
    61   29  154 1    
    62   30   31 2    
    63   30   32 1    
    64   32   33 1    
    65   32   34 1    
    66   32  155 1    
    67   33  156 1    
    68   33  157 1    
    69   33  158 1    
    70   34   35 am   BACKBONE|DICT|INTERRES
    71   34  159 1    
    72   35   36 2    
    73   35   37 1    
    74   37   38 1    
    75   37   39 1    
    76   37  160 1    
    77   38  161 1    
    78   38  162 1    
    79   38  163 1    
    80   39   40 am   BACKBONE|DICT|INTERRES
    81   39  164 1    
    82   40   41 2    
    83   40   42 1    
    84   42   43 1    
    85   42   44 1    
    86   42  165 1    
    87   43  166 1    
    88   43  167 1    
    89   43  168 1    
    90   44   45 am   BACKBONE|DICT|INTERRES
    91   44  169 1    
    92   45   46 2    
    93   45   47 1    
    94   47   48 1    
    95   47   49 1    
    96   47  170 1    
    97   48  171 1    
    98   48  172 1    
    99   48  173 1    
   100   49   50 am   BACKBONE|DICT|INTERRES
   101   49  174 1    
   102   50   51 2    
   103   50   52 1    
   104   52   53 1    
   105   52   54 1    
   106   52  175 1    
   107   53  176 1    
   108   53  177 1    
   109   53  178 1    
   110   54   55 am   BACKBONE|DICT|INTERRES
   111   54  179 1    
   112   55   56 2    
   113   55   57 1    
   114   57   58 1    
   115   57   59 1    
   116   57  180 1    
   117   58  181 1    
   118   58  182 1    
   119   58  183 1    
   120   59   60 am   BACKBONE|DICT|INTERRES
   121   59  184 1    
   122   60   61 2    
   123   60   62 1    
   124   62   63 1    
   125   62   64 1    
   126   62  185 1    
   127   63  186 1    
   128   63  187 1    
   129   63  188 1    
   130   64   65 am   BACKBONE|DICT|INTERRES
   131   64  189 1    
   132   65   66 2    
   133   67   68 2    
   134   67   69 am   BACKBONE|DICT|INTERRES
   135   69   70 1    
   136   69  190 1    
   137   70   71 1    
   138   70   72 1    
   139   70  191 1    
   140   71  192 1    
   141   71  193 1    
   142   71  194 1    
   143   72   73 2    
   144   72   74 am   BACKBONE|DICT|INTERRES
   145   74   75 1    
   146   74  195 1    
   147   75   76 1    
   148   75   77 1    
   149   75  196 1    
   150   76  197 1    
   151   76  198 1    
   152   76  199 1    
   153   77   78 2    
   154   77   79 am   BACKBONE|DICT|INTERRES
   155   79   80 1    
   156   79  200 1    
   157   80   81 1    
   158   80   82 1    
   159   80  201 1    
   160   81  202 1    
   161   81  203 1    
   162   81  204 1    
   163   82   83 2    
   164   82   84 am   BACKBONE|DICT|INTERRES
   165   84   85 1    
   166   84  205 1    
   167   85   86 1    
   168   85   87 1    
   169   85  206 1    
   170   86  207 1    
   171   86  208 1    
   172   86  209 1    
   173   87   88 2    
   174   87   89 am   BACKBONE|DICT|INTERRES
   175   89   90 1    
   176   89  210 1    
   177   90   91 1    
   178   90   92 1    
   179   90  211 1    
   180   91  212 1    
   181   91  213 1    
   182   91  214 1    
   183   92   93 2    
   184   92   94 am   BACKBONE|DICT|INTERRES
   185   94   95 1    
   186   94  215 1    
   187   95   96 1    
   188   95   97 1    
   189   95  216 1    
   190   96  217 1    
   191   96  218 1    
   192   96  219 1    
   193   97   98 2    
   194   97   99 am   BACKBONE|DICT|INTERRES
   195   99  100 1    
   196   99  220 1    
   197  100  101 1    
   198  100  102 1    
   199  100  221 1    
   200  101  222 1    
   201  101  223 1    
   202  101  224 1    
   203  102  103 2    
   204  102  104 am   BACKBONE|DICT|INTERRES
   205  104  105 1    
   206  104  225 1    
   207  105  106 1    
   208  105  107 1    
   209  105  226 1    
   210  106  227 1    
   211  106  228 1    
   212  106  229 1    
   213  107  108 2    
   214  107  109 am   BACKBONE|DICT|INTERRES
   215  109  110 1    
   216  109  230 1    
   217  110  111 1    
   218  110  112 1    
   219  110  231 1    
   220  111  232 1    
   221  111  233 1    
   222  111  234 1    
   223  112  113 2    
   224  112  114 am   BACKBONE|DICT|INTERRES
   225  114  115 1    
   226  114  235 1    
   227  115  116 1    
   228  115  117 1    
   229  115  236 1    
   230  116  237 1    
   231  116  238 1    
   232  116  239 1    
   233  117  118 2    
   234  117  119 am   BACKBONE|DICT|INTERRES
   235  119  120 1    
   236  119  240 1    
   237  120  121 1    
   238  120  124 1    
   239  120  241 1    
   240  121  122 am   BACKBONE|DICT|INTERRES
   241  121  123 2    
   242  122  242 1    
   243  122  243 1    
   244  124  125 1    
   245  124  244 1    
   246  124  245 1    
   247  125  126 1    
   248  126  246 1    
   249  126  247 1    
@<TRIPOS>SUBSTRUCTURE
     1 UNK         1 GROUP             0       ****    0 ROOT    
