@<TRIPOS>MOLECULE
3R540
247   249    1
SMALL
USER_CHARGES


@<TRIPOS>ATOM
      1 CA         -5.5264  -13.1009  -47.9281 C.3       0 UNK        -0.1800 
      2 C          -4.0272  -13.0154  -47.6820 C.2       0 UNK         0.5000 
      3 O          -3.5689  -12.1025  -46.9942 O.2       0 UNK        -0.5000 
      4 N          -3.2612  -13.9706  -48.2276 N.am      1 UNK        -0.5000 
      5 CA         -1.7986  -14.0551  -48.1048 C.3       1 UNK         0.1400 
      6 C6         -1.1895  -15.0865  -49.0863 C.3       23 UNK        -0.0398 
      7 S7         -1.7885  -16.7990  -48.8460 S.3       23 UNK        -0.2404 
      8 C8         -1.5354  -17.5177  -50.4978 C.3       23 UNK        -0.0205 
      9 C9         -0.0667  -17.8005  -50.7927 C.ar      23 UNK        -0.0193 
     10 C10         0.7512  -16.7998  -51.3257 C.ar      23 UNK        -0.1150 
     11 C11         2.1037  -17.0452  -51.5746 C.ar      23 UNK        -0.0193 
     12 C12         2.6272  -18.3139  -51.3110 C.ar      23 UNK        -0.1150 
     13 C13         1.8237  -19.3386  -50.8010 C.ar      23 UNK        -0.0193 
     14 C14         0.4710  -19.0682  -50.5431 C.ar      23 UNK        -0.1150 
     15 C15         2.4875  -20.6953  -50.5362 C.3       23 UNK        -0.0205 
     16 S16         1.3919  -22.0616  -50.0195 S.3       23 UNK        -0.2404 
     17 C17         1.2303  -21.6635  -48.2507 C.3       23 UNK        -0.0398 
     18 CA          0.3637  -22.6528  -47.4384 C.3       11 UNK         0.1400 
     19 N           0.4967  -22.3996  -46.0009 N.am      11 UNK        -0.5000 
     20 C          -0.0314  -23.1497  -45.0244 C.2       10 UNK         0.5000 
     21 O          -0.6434  -24.1977  -45.2216 O.2       10 UNK        -0.5000 
     22 CA          0.1008  -22.6110  -43.5878 C.3       10 UNK         0.1400 
     23 CB          1.4720  -22.9634  -42.9930 C.3       10 UNK        -0.1800 
     24 N          -0.1137  -21.1654  -43.5092 N.am      10 UNK        -0.5000 
     25 C          -1.2656  -20.5490  -43.8124 C.2       9 UNK         0.5000 
     26 O          -2.2951  -21.1423  -44.1320 O.2       9 UNK        -0.5000 
     27 CA         -1.2446  -19.0095  -43.8190 C.3       9 UNK         0.1400 
     28 CB         -1.3247  -18.4535  -42.3884 C.3       9 UNK        -0.1800 
     29 N          -0.0601  -18.4797  -44.4972 N.am      9 UNK        -0.5000 
     30 C           0.2223  -18.6779  -45.7932 C.2       8 UNK         0.5000 
     31 O          -0.5310  -19.2639  -46.5676 O.2       8 UNK        -0.5000 
     32 CA          1.6037  -18.2150  -46.2894 C.3       8 UNK         0.1400 
     33 CB          1.5744  -16.7565  -46.7576 C.3       8 UNK        -0.1800 
     34 N           2.6266  -18.3790  -45.2589 N.am      8 UNK        -0.5000 
     35 C           3.1552  -19.5570  -44.9036 C.2       7 UNK         0.5000 
     36 O           2.8643  -20.6244  -45.4430 O.2       7 UNK        -0.5000 
     37 CA          4.1391  -19.5399  -43.7182 C.3       7 UNK         0.1400 
     38 CB          5.5565  -19.1923  -44.1964 C.3       7 UNK        -0.1800 
     39 N           3.7366  -18.6006  -42.6682 N.am      7 UNK        -0.5000 
     40 C           2.6452  -18.7525  -41.9053 C.2       6 UNK         0.5000 
     41 O           1.8998  -19.7288  -41.9776 O.2       6 UNK        -0.5000 
     42 CA          2.2993  -17.6066  -40.9332 C.3       6 UNK         0.1400 
     43 CB          2.9702  -17.8399  -39.5717 C.3       6 UNK        -0.1800 
     44 N           2.6462  -16.2654  -41.4183 N.am      6 UNK        -0.5000 
     45 C           2.2043  -15.7070  -42.5544 C.2       5 UNK         0.5000 
     46 O           1.4987  -16.3071  -43.3666 O.2       5 UNK        -0.5000 
     47 CA          2.6367  -14.2589  -42.8552 C.3       5 UNK         0.1400 
     48 CB          3.8850  -13.8078  -42.0652 C.3       5 UNK        -0.1800 
     49 N           2.8908  -14.1410  -44.2911 N.am      5 UNK        -0.5000 
     50 C           2.7561  -13.0709  -45.0849 C.2       4 UNK         0.5000 
     51 O           3.0375  -13.1339  -46.2813 O.2       4 UNK        -0.5000 
     52 CA          2.2078  -11.7506  -44.5084 C.3       4 UNK         0.1400 
     53 CB          2.5253  -10.5315  -45.3972 C.3       4 UNK        -0.1800 
     54 N           0.7623  -11.8687  -44.3452 N.am      4 UNK        -0.5000 
     55 C           0.0422  -11.2210  -43.4191 C.2       3 UNK         0.5000 
     56 O           0.5341  -10.4415  -42.6020 O.2       3 UNK        -0.5000 
     57 CA         -1.4802  -11.4742  -43.3828 C.3       3 UNK         0.1400 
     58 CB         -2.2299  -10.3289  -44.0803 C.3       3 UNK        -0.1800 
     59 N          -1.8824  -12.7385  -43.9969 N.am      3 UNK        -0.5000 
     60 C          -1.5867  -13.9556  -43.5200 C.2       2 UNK         0.5000 
     61 O          -1.0204  -14.1437  -42.4432 O.2       2 UNK        -0.5000 
     62 CA         -1.9746  -15.1669  -44.3937 C.3       2 UNK         0.1400 
     63 CB         -3.2572  -15.8163  -43.8500 C.3       2 UNK        -0.1800 
     64 N          -2.1827  -14.8705  -45.8140 N.am      2 UNK        -0.5000 
     65 C          -1.3158  -14.2862  -46.6550 C.2       1 UNK         0.5000 
     66 O          -0.2021  -13.8875  -46.3185 O.2       1 UNK        -0.5000 
     67 C          -1.1152  -22.6427  -47.8846 C.2       11 UNK         0.5000 
     68 O          -1.5627  -23.5942  -48.5248 O.2       11 UNK        -0.5000 
     69 N          -1.8607  -21.6005  -47.4904 N.am      12 UNK        -0.5000 
     70 CA         -3.2932  -21.4586  -47.7504 C.3       12 UNK         0.1400 
     71 CB         -3.7627  -20.0692  -47.2946 C.3       12 UNK        -0.1800 
     72 C          -4.1382  -22.5689  -47.0970 C.2       12 UNK         0.5000 
     73 O          -5.0577  -23.0834  -47.7349 O.2       12 UNK        -0.5000 
     74 N          -3.7909  -22.9449  -45.8581 N.am      13 UNK        -0.5000 
     75 CA         -4.4076  -24.0498  -45.1236 C.3       13 UNK         0.1400 
     76 CB         -3.9247  -24.0395  -43.6657 C.3       13 UNK        -0.1800 
     77 C          -4.1475  -25.4183  -45.7798 C.2       13 UNK         0.5000 
     78 O          -5.0748  -26.2210  -45.8831 O.2       13 UNK        -0.5000 
     79 N          -2.9107  -25.6467  -46.2450 N.am      14 UNK        -0.5000 
     80 CA         -2.5035  -26.8464  -46.9806 C.3       14 UNK         0.1400 
     81 CB         -0.9737  -26.8753  -47.1175 C.3       14 UNK        -0.1800 
     82 C          -3.1780  -26.9585  -48.3606 C.2       14 UNK         0.5000 
     83 O          -3.5421  -28.0621  -48.7687 O.2       14 UNK        -0.5000 
     84 N          -3.3640  -25.8160  -49.0375 N.am      15 UNK        -0.5000 
     85 CA         -4.1081  -25.7007  -50.2940 C.3       15 UNK         0.1400 
     86 CB         -3.8440  -24.3196  -50.9155 C.3       15 UNK        -0.1800 
     87 C          -5.6239  -25.9293  -50.1269 C.2       15 UNK         0.5000 
     88 O          -6.2923  -26.2590  -51.1072 O.2       15 UNK        -0.5000 
     89 N          -6.1386  -25.7280  -48.9040 N.am      16 UNK        -0.5000 
     90 CA         -7.5173  -25.8860  -48.4189 C.3       16 UNK         0.1400 
     91 CB         -8.0205  -27.3287  -48.6101 C.3       16 UNK        -0.1800 
     92 C          -8.5136  -24.8621  -48.9950 C.2       16 UNK         0.5000 
     93 O          -9.3066  -24.2946  -48.2437 O.2       16 UNK        -0.5000 
     94 N          -8.4314  -24.6144  -50.3059 N.am      17 UNK        -0.5000 
     95 CA         -9.1865  -23.5990  -51.0402 C.3       17 UNK         0.1400 
     96 CB         -9.2457  -24.0209  -52.5177 C.3       17 UNK        -0.1800 
     97 C          -8.5837  -22.1842  -50.9055 C.2       17 UNK         0.5000 
     98 O          -9.1569  -21.2371  -51.4447 O.2       17 UNK        -0.5000 
     99 N          -7.4324  -22.0697  -50.2230 N.am      18 UNK        -0.5000 
    100 CA        -6.6235  -20.8606  -50.0320 C.3       18 UNK         0.1400 
    101 CB        -7.3851  -19.7960  -49.2154 C.3       18 UNK        -0.1800 
    102 C         -6.0251  -20.3134  -51.3449 C.2       18 UNK         0.5000 
    103 O         -5.7977  -19.1086  -51.4666 O.2       18 UNK        -0.5000 
    104 N         -5.7677  -21.2159  -52.3024 N.am      19 UNK        -0.5000 
    105 CA        -5.0956  -20.9260  -53.5664 C.3       19 UNK         0.1400 
    106 CB        -5.2223  -22.1437  -54.4946 C.3       19 UNK        -0.1800 
    107 C         -3.6179  -20.5684  -53.3292 C.2       19 UNK         0.5000 
    108 O         -2.9377  -21.2602  -52.5681 O.2       19 UNK        -0.5000 
    109 N         -3.1544  -19.4953  -53.9758 N.am      20 UNK        -0.5000 
    110 CA        -1.7912  -18.9962  -53.8461 C.3       20 UNK         0.1400 
    111 CB        -1.7856  -17.4829  -54.1236 C.3       20 UNK        -0.1800 
    112 C         -0.8515  -19.7089  -54.8252 C.2       20 UNK         0.5000 
    113 O         -1.1542  -19.7689  -56.0192 O.2       20 UNK        -0.5000 
    114 N          0.3148  -20.1447  -54.3305 N.am      21 UNK        -0.5000 
    115 CA         1.4395  -20.5769  -55.1697 C.3       21 UNK         0.1400 
    116 CB         2.5028  -21.2517  -54.2933 C.3       21 UNK        -0.1800 
    117 C          2.0597  -19.3938  -55.9414 C.2       21 UNK         0.5000 
    118 O          2.5939  -19.5823  -57.0344 O.2       21 UNK        -0.5000 
    119 N          1.9382  -18.1943  -55.3594 N.am      22 UNK        -0.5000 
    120 CA         2.3030  -16.9000  -55.9484 C.3       22 UNK         0.1400 
    121 C          1.3290  -16.3960  -57.0576 C.2       22 UNK         0.5000 
    122 N          0.2214  -17.0706  -57.3469 N.am      22 UNK        -0.7600 
    123 O          1.5890  -15.3691  -57.6785 O.2       22 UNK        -0.5000 
    124 C124        2.4932  -15.8244  -54.8474 C.3       23 UNK        -0.0398 
    125 S125        3.8081  -16.2660  -53.6593 S.3       23 UNK        -0.2404 
    126 C126        3.0177  -15.9231  -52.0528 C.3       23 UNK        -0.0205 
    127 H127       -6.0575  -13.1868  -46.9801 H         1 UNK         0.0600 
    128 H128       -5.7879  -13.9616  -48.5442 H         1 UNK         0.0600 
    129 H129       -5.8747  -12.2010  -48.4350 H         1 UNK         0.0600 
    130 H130       -3.6928  -14.7056  -48.7702 H         1 UNK         0.3000 
    131 H131       -1.4078  -13.0770  -48.3940 H         1 UNK         0.0600 
    132 H132       -1.4219  -14.7766  -50.1057 H         1 UNK         0.0800 
    133 H133       -0.1005  -15.0781  -49.0202 H         1 UNK         0.0800 
    134 H134       -1.9528  -16.8471  -51.2480 H         1 UNK         0.0800 
    135 H135       -2.1126  -18.4416  -50.5621 H         1 UNK         0.0800 
    136 H136        0.3399  -15.8199  -51.5208 H         1 UNK         0.1150 
    137 H137        3.6764  -18.4997  -51.4951 H         1 UNK         0.1150 
    138 H138       -0.1773  -19.8320  -50.1398 H         1 UNK         0.1150 
    139 H139        3.0051  -21.0175  -51.4380 H         1 UNK         0.0800 
    140 H140        3.2659  -20.5619  -49.7836 H         1 UNK         0.0800 
    141 H141        0.8452  -20.6506  -48.1620 H         1 UNK         0.0800 
    142 H142        2.2378  -21.6417  -47.8336 H         1 UNK         0.0800 
    143 H143        0.7493  -23.6589  -47.6160 H         1 UNK         0.0600 
    144 H144        1.0342  -21.5820  -45.7370 H         1 UNK         0.3000 
    145 H145       -0.6663  -23.0943  -42.9796 H         1 UNK         0.0600 
    146 H146        1.5428  -22.6454  -41.9526 H         1 UNK         0.0600 
    147 H147        2.2854  -22.4891  -43.5422 H         1 UNK         0.0600 
    148 H148        1.6427  -24.0404  -43.0171 H         1 UNK         0.0600 
    149 H149        0.6712  -20.6044  -43.1903 H         1 UNK         0.3000 
    150 H150       -2.1189  -18.6641  -44.3731 H         1 UNK         0.0600 
    151 H151       -2.3098  -18.6400  -41.9595 H         1 UNK         0.0600 
    152 H152       -1.1529  -17.3779  -42.3614 H         1 UNK         0.0600 
    153 H153       -0.5943  -18.9196  -41.7285 H         1 UNK         0.0600 
    154 H154        0.5882  -17.9300  -43.9421 H         1 UNK         0.3000 
    155 H155        1.8801  -18.8286  -47.1485 H         1 UNK         0.0600 
    156 H156        0.8904  -16.6420  -47.5962 H         1 UNK         0.0600 
    157 H157        2.5561  -16.4252  -47.0957 H         1 UNK         0.0600 
    158 H158        1.2441  -16.0829  -45.9681 H         1 UNK         0.0600 
    159 H159        2.8427  -17.5640  -44.7043 H         1 UNK         0.3000 
    160 H160        4.1599  -20.5440  -43.2891 H         1 UNK         0.0600 
    161 H161        5.6066  -18.1869  -44.6164 H         1 UNK         0.0600 
    162 H162        5.8887  -19.8877  -44.9684 H         1 UNK         0.0600 
    163 H163        6.2740  -19.2507  -43.3777 H         1 UNK         0.0600 
    164 H164        4.3042  -17.7755  -42.5433 H         1 UNK         0.3000 
    165 H165        1.2185  -17.6242  -40.7837 H         1 UNK         0.0600 
    166 H166        2.6480  -17.0985  -38.8403 H         1 UNK         0.0600 
    167 H167        2.7118  -18.8214  -39.1716 H         1 UNK         0.0600 
    168 H168        4.0573  -17.7908  -39.6447 H         1 UNK         0.0600 
    169 H169        3.2365  -15.7135  -40.8130 H         1 UNK         0.3000 
    170 H170        1.7916  -13.6321  -42.5707 H         1 UNK         0.0600 
    171 H171        4.7312  -14.4746  -42.2363 H         1 UNK         0.0600 
    172 H172        4.2036  -12.8051  -42.3472 H         1 UNK         0.0600 
    173 H173        3.6890  -13.7818  -40.9926 H         1 UNK         0.0600 
    174 H174        3.1592  -15.0090  -44.7284 H         1 UNK         0.3000 
    175 H175        2.6790  -11.5812  -43.5400 H         1 UNK         0.0600 
    176 H176        2.0357  -10.6033  -46.3692 H         1 UNK         0.0600 
    177 H177        2.1982   -9.6039  -44.9273 H         1 UNK         0.0600 
    178 H178        3.5983  -10.4449  -45.5723 H         1 UNK         0.0600 
    179 H179        0.3055  -12.5270  -44.9722 H         1 UNK         0.3000 
    180 H180       -1.7844  -11.4955  -42.3344 H         1 UNK         0.0600 
    181 H181       -3.3096  -10.4556  -43.9978 H         1 UNK         0.0600 
    182 H182       -1.9796  -10.2732  -45.1407 H         1 UNK         0.0600 
    183 H183       -1.9807   -9.3663  -43.6319 H         1 UNK         0.0600 
    184 H184       -2.3515  -12.6754  -44.8908 H         1 UNK         0.3000 
    185 H185       -1.1561  -15.8848  -44.3287 H         1 UNK         0.0600 
    186 H186       -4.1104  -15.1416  -43.9308 H         1 UNK         0.0600 
    187 H187       -3.5024  -16.7289  -44.3926 H         1 UNK         0.0600 
    188 H188       -3.1521  -16.0804  -42.7972 H         1 UNK         0.0600 
    189 H189       -3.0752  -15.1454  -46.1966 H         1 UNK         0.3000 
    190 H190       -1.4119  -20.8320  -46.9959 H         1 UNK         0.3000 
    191 H191       -3.4353  -21.5277  -48.8306 H         1 UNK         0.0600 
    192 H192       -3.2473  -19.2825  -47.8451 H         1 UNK         0.0600 
    193 H193       -3.5752  -19.9088  -46.2327 H         1 UNK         0.0600 
    194 H194       -4.8319  -19.9379  -47.4617 H         1 UNK         0.0600 
    195 H195       -3.0620  -22.4264  -45.3759 H         1 UNK         0.3000 
    196 H196       -5.4870  -23.8841  -45.1216 H         1 UNK         0.0600 
    197 H197       -4.1687  -23.0962  -43.1767 H         1 UNK         0.0600 
    198 H198       -2.8465  -24.1824  -43.5965 H         1 UNK         0.0600 
    199 H199       -4.3991  -24.8363  -43.0918 H         1 UNK         0.0600 
    200 H200       -2.1847  -24.9572  -46.0682 H         1 UNK         0.3000 
    201 H201       -2.8062  -27.7161  -46.3939 H         1 UNK         0.0600 
    202 H202       -0.4915  -26.8833  -46.1399 H         1 UNK         0.0600 
    203 H203       -0.6012  -26.0099  -47.6662 H         1 UNK         0.0600 
    204 H204       -0.6452  -27.7689  -47.6496 H         1 UNK         0.0600 
    205 H205       -2.9498  -24.9625  -48.6725 H         1 UNK         0.3000 
    206 H206       -3.7343  -26.4619  -50.9815 H         1 UNK         0.0600 
    207 H207       -4.1976  -23.5119  -50.2750 H         1 UNK         0.0600 
    208 H208       -2.7797  -24.1612  -51.0910 H         1 UNK         0.0600 
    209 H209       -4.3476  -24.2199  -51.8774 H         1 UNK         0.0600 
    210 H210       -5.4916  -25.3956  -48.2001 H         1 UNK         0.3000 
    211 H211       -7.4679  -25.6990  -47.3450 H         1 UNK         0.0600 
    212 H212       -8.1191  -27.5926  -49.6633 H         1 UNK         0.0600 
    213 H213       -8.9996  -27.4621  -48.1488 H         1 UNK         0.0600 
    214 H214       -7.3418  -28.0448  -48.1465 H         1 UNK         0.0600 
    215 H215       -7.7496  -25.1541  -50.8344 H         1 UNK         0.3000 
    216 H216      -10.2056  -23.5612  -50.6503 H         1 UNK         0.0600 
    217 H217       -9.8384  -23.3184  -53.1051 H         1 UNK         0.0600 
    218 H218       -9.7064  -25.0028  -52.6287 H         1 UNK         0.0600 
    219 H219       -8.2510  -24.0652  -52.9633 H         1 UNK         0.0600 
    220 H220       -7.0613  -22.9089  -49.8002 H         1 UNK         0.3000 
    221 H221       -5.7678  -21.1698  -49.4353 H         1 UNK         0.0600 
    222 H222       -8.2255  -19.3802  -49.7714 H         1 UNK         0.0600 
    223 H223       -7.7703  -20.2153  -48.2859 H         1 UNK         0.0600 
    224 H224       -6.7304  -18.9657  -48.9481 H         1 UNK         0.0600 
    225 H225       -5.9683  -22.1851  -52.1117 H         1 UNK         0.3000 
    226 H226       -5.6013  -20.0790  -54.0351 H         1 UNK         0.0600 
    227 H227       -6.2675  -22.3912  -54.6816 H         1 UNK         0.0600 
    228 H228       -4.7569  -21.9459  -55.4610 H         1 UNK         0.0600 
    229 H229       -4.7382  -23.0254  -54.0728 H         1 UNK         0.0600 
    230 H230       -3.7543  -19.0029  -54.6216 H         1 UNK         0.3000 
    231 H231       -1.4422  -19.1658  -52.8274 H         1 UNK         0.0600 
    232 H232       -2.0505  -17.2595  -55.1580 H         1 UNK         0.0600 
    233 H233       -0.7997  -17.0548  -53.9396 H         1 UNK         0.0600 
    234 H234       -2.4957  -16.9577  -53.4859 H         1 UNK         0.0600 
    235 H235        0.4885  -20.0830  -53.3372 H         1 UNK         0.3000 
    236 H236        1.0717  -21.3063  -55.8945 H         1 UNK         0.0600 
    237 H237        2.9959  -20.5287  -53.6436 H         1 UNK         0.0600 
    238 H238        2.0716  -22.0361  -53.6708 H         1 UNK         0.0600 
    239 H239        3.2759  -21.7117  -54.9099 H         1 UNK         0.0600 
    240 H240        1.5146  -18.1525  -54.4455 H         1 UNK         0.3000 
    241 H241        3.2650  -17.0321  -56.4470 H         1 UNK         0.0600 
    242 H242       -0.3862  -16.7246  -58.0728 H         1 UNK         0.3800 
    243 H243       -0.0054  -17.9360  -56.8794 H         1 UNK         0.3800 
    244 H244        1.5545  -15.6582  -54.3164 H         1 UNK         0.0800 
    245 H245        2.7671  -14.8647  -55.2890 H         1 UNK         0.0800 
    246 H246        2.4832  -14.9733  -52.1060 H         1 UNK         0.0800 
    247 H247        3.8025  -15.7834  -51.3082 H         1 UNK         0.0800 
@<TRIPOS>BOND
     1    1    2 1    
     2    1  127 1    
     3    1  128 1    
     4    1  129 1    
     5    2    3 2    
     6    2    4 am   BACKBONE|DICT|INTERRES
     7    4    5 1    
     8    4  130 1    
     9    5    6 1    
    10    5   65 1    
    11    5  131 1    
    12    6    7 1    
    13    6  132 1    
    14    6  133 1    
    15    7    8 1    
    16    8    9 1    
    17    8  134 1    
    18    8  135 1    
    19    9   10 ar   
    20    9   14 ar   
    21   10   11 ar   
    22   10  136 1    
    23   11   12 ar   
    24   11  126 1    
    25   12   13 ar   
    26   12  137 1    
    27   13   14 ar   
    28   13   15 1    
    29   14  138 1    
    30   15   16 1    
    31   15  139 1    
    32   15  140 1    
    33   16   17 1    
    34   17   18 1    
    35   17  141 1    
    36   17  142 1    
    37   18   19 1    
    38   18   67 1    
    39   18  143 1    
    40   19   20 am   BACKBONE|DICT|INTERRES
    41   19  144 1    
    42   20   21 2    
    43   20   22 1    
    44   22   23 1    
    45   22   24 1    
    46   22  145 1    
    47   23  146 1    
    48   23  147 1    
    49   23  148 1    
    50   24   25 am   BACKBONE|DICT|INTERRES
    51   24  149 1    
    52   25   26 2    
    53   25   27 1    
    54   27   28 1    
    55   27   29 1    
    56   27  150 1    
    57   28  151 1    
    58   28  152 1    
    59   28  153 1    
    60   29   30 am   BACKBONE|DICT|INTERRES
    61   29  154 1    
    62   30   31 2    
    63   30   32 1    
    64   32   33 1    
    65   32   34 1    
    66   32  155 1    
    67   33  156 1    
    68   33  157 1    
    69   33  158 1    
    70   34   35 am   BACKBONE|DICT|INTERRES
    71   34  159 1    
    72   35   36 2    
    73   35   37 1    
    74   37   38 1    
    75   37   39 1    
    76   37  160 1    
    77   38  161 1    
    78   38  162 1    
    79   38  163 1    
    80   39   40 am   BACKBONE|DICT|INTERRES
    81   39  164 1    
    82   40   41 2    
    83   40   42 1    
    84   42   43 1    
    85   42   44 1    
    86   42  165 1    
    87   43  166 1    
    88   43  167 1    
    89   43  168 1    
    90   44   45 am   BACKBONE|DICT|INTERRES
    91   44  169 1    
    92   45   46 2    
    93   45   47 1    
    94   47   48 1    
    95   47   49 1    
    96   47  170 1    
    97   48  171 1    
    98   48  172 1    
    99   48  173 1    
   100   49   50 am   BACKBONE|DICT|INTERRES
   101   49  174 1    
   102   50   51 2    
   103   50   52 1    
   104   52   53 1    
   105   52   54 1    
   106   52  175 1    
   107   53  176 1    
   108   53  177 1    
   109   53  178 1    
   110   54   55 am   BACKBONE|DICT|INTERRES
   111   54  179 1    
   112   55   56 2    
   113   55   57 1    
   114   57   58 1    
   115   57   59 1    
   116   57  180 1    
   117   58  181 1    
   118   58  182 1    
   119   58  183 1    
   120   59   60 am   BACKBONE|DICT|INTERRES
   121   59  184 1    
   122   60   61 2    
   123   60   62 1    
   124   62   63 1    
   125   62   64 1    
   126   62  185 1    
   127   63  186 1    
   128   63  187 1    
   129   63  188 1    
   130   64   65 am   BACKBONE|DICT|INTERRES
   131   64  189 1    
   132   65   66 2    
   133   67   68 2    
   134   67   69 am   BACKBONE|DICT|INTERRES
   135   69   70 1    
   136   69  190 1    
   137   70   71 1    
   138   70   72 1    
   139   70  191 1    
   140   71  192 1    
   141   71  193 1    
   142   71  194 1    
   143   72   73 2    
   144   72   74 am   BACKBONE|DICT|INTERRES
   145   74   75 1    
   146   74  195 1    
   147   75   76 1    
   148   75   77 1    
   149   75  196 1    
   150   76  197 1    
   151   76  198 1    
   152   76  199 1    
   153   77   78 2    
   154   77   79 am   BACKBONE|DICT|INTERRES
   155   79   80 1    
   156   79  200 1    
   157   80   81 1    
   158   80   82 1    
   159   80  201 1    
   160   81  202 1    
   161   81  203 1    
   162   81  204 1    
   163   82   83 2    
   164   82   84 am   BACKBONE|DICT|INTERRES
   165   84   85 1    
   166   84  205 1    
   167   85   86 1    
   168   85   87 1    
   169   85  206 1    
   170   86  207 1    
   171   86  208 1    
   172   86  209 1    
   173   87   88 2    
   174   87   89 am   BACKBONE|DICT|INTERRES
   175   89   90 1    
   176   89  210 1    
   177   90   91 1    
   178   90   92 1    
   179   90  211 1    
   180   91  212 1    
   181   91  213 1    
   182   91  214 1    
   183   92   93 2    
   184   92   94 am   BACKBONE|DICT|INTERRES
   185   94   95 1    
   186   94  215 1    
   187   95   96 1    
   188   95   97 1    
   189   95  216 1    
   190   96  217 1    
   191   96  218 1    
   192   96  219 1    
   193   97   98 2    
   194   97   99 am   BACKBONE|DICT|INTERRES
   195   99  100 1    
   196   99  220 1    
   197  100  101 1    
   198  100  102 1    
   199  100  221 1    
   200  101  222 1    
   201  101  223 1    
   202  101  224 1    
   203  102  103 2    
   204  102  104 am   BACKBONE|DICT|INTERRES
   205  104  105 1    
   206  104  225 1    
   207  105  106 1    
   208  105  107 1    
   209  105  226 1    
   210  106  227 1    
   211  106  228 1    
   212  106  229 1    
   213  107  108 2    
   214  107  109 am   BACKBONE|DICT|INTERRES
   215  109  110 1    
   216  109  230 1    
   217  110  111 1    
   218  110  112 1    
   219  110  231 1    
   220  111  232 1    
   221  111  233 1    
   222  111  234 1    
   223  112  113 2    
   224  112  114 am   BACKBONE|DICT|INTERRES
   225  114  115 1    
   226  114  235 1    
   227  115  116 1    
   228  115  117 1    
   229  115  236 1    
   230  116  237 1    
   231  116  238 1    
   232  116  239 1    
   233  117  118 2    
   234  117  119 am   BACKBONE|DICT|INTERRES
   235  119  120 1    
   236  119  240 1    
   237  120  121 1    
   238  120  124 1    
   239  120  241 1    
   240  121  122 am   BACKBONE|DICT|INTERRES
   241  121  123 2    
   242  122  242 1    
   243  122  243 1    
   244  124  125 1    
   245  124  244 1    
   246  124  245 1    
   247  125  126 1    
   248  126  246 1    
   249  126  247 1    
@<TRIPOS>SUBSTRUCTURE
     1 UNK         1 GROUP             0       ****    0 ROOT    
