@<TRIPOS>MOLECULE
3R540
247   249    1
SMALL
USER_CHARGES


@<TRIPOS>ATOM
      1 CA         -4.6740  -17.0605  -45.0478 C.3       0 UNK        -0.1800 
      2 C          -4.3092  -15.7588  -45.7475 C.2       0 UNK         0.5000 
      3 O          -5.0145  -14.7619  -45.5910 O.2       0 UNK        -0.5000 
      4 N          -3.2115  -15.7605  -46.5139 N.am      1 UNK        -0.5000 
      5 CA         -2.6568  -14.5850  -47.1892 C.3       1 UNK         0.1400 
      6 C6         -1.7316  -14.9796  -48.3658 C.3       23 UNK        -0.0398 
      7 S7         -2.7083  -15.5403  -49.8038 S.3       23 UNK        -0.2404 
      8 C8         -1.8275  -14.7602  -51.1927 C.3       23 UNK        -0.0205 
      9 C9         -0.6881  -15.6390  -51.6829 C.ar      23 UNK        -0.0193 
     10 C10        -0.8531  -16.4253  -52.8266 C.ar      23 UNK        -0.1150 
     11 C11         0.1782  -17.2553  -53.2748 C.ar      23 UNK        -0.0193 
     12 C12         1.3814  -17.2973  -52.5643 C.ar      23 UNK        -0.1150 
     13 C13         1.5583  -16.5160  -51.4183 C.ar      23 UNK        -0.0193 
     14 C14         0.5238  -15.6807  -50.9886 C.ar      23 UNK        -0.1150 
     15 C15         2.8679  -16.5722  -50.6470 C.3       23 UNK        -0.0205 
     16 S16         3.1382  -18.1894  -49.8553 S.3       23 UNK        -0.2404 
     17 C17         1.8711  -18.2110  -48.5408 C.3       23 UNK        -0.0398 
     18 CA          1.1703  -19.5934  -48.4329 C.3       11 UNK         0.1400 
     19 N           1.0794  -20.0599  -47.0467 N.am      11 UNK        -0.5000 
     20 C           0.8640  -21.3335  -46.6871 C.2       10 UNK         0.5000 
     21 O           0.8247  -22.2655  -47.4890 O.2       10 UNK        -0.5000 
     22 CA          0.6278  -21.6260  -45.1920 C.3       10 UNK         0.1400 
     23 CB          1.8616  -22.3070  -44.5815 C.3       10 UNK        -0.1800 
     24 N           0.2836  -20.4451  -44.3950 N.am      10 UNK        -0.5000 
     25 C          -0.8358  -19.7190  -44.5240 C.2       9 UNK         0.5000 
     26 O          -1.7238  -19.9758  -45.3386 O.2       9 UNK        -0.5000 
     27 CA         -0.9340  -18.4472  -43.6584 C.3       9 UNK         0.1400 
     28 CB         -1.3063  -18.7881  -42.2084 C.3       9 UNK        -0.1800 
     29 N           0.3029  -17.6644  -43.6781 N.am      9 UNK        -0.5000 
     30 C           0.8287  -17.1066  -44.7794 C.2       8 UNK         0.5000 
     31 O           0.3036  -17.1625  -45.8917 O.2       8 UNK        -0.5000 
     32 CA          2.2078  -16.4454  -44.6181 C.3       8 UNK         0.1400 
     33 CB          2.0902  -15.0428  -43.9992 C.3       8 UNK        -0.1800 
     34 N           3.0941  -17.2743  -43.7996 N.am      8 UNK        -0.5000 
     35 C           3.6745  -18.4060  -44.2261 C.2       7 UNK         0.5000 
     36 O           3.5598  -18.8412  -45.3708 O.2       7 UNK        -0.5000 
     37 CA          4.5065  -19.1993  -43.1996 C.3       7 UNK         0.1400 
     38 CB          5.9675  -18.7260  -43.2131 C.3       7 UNK        -0.1800 
     39 N           3.9855  -19.1052  -41.8354 N.am      7 UNK        -0.5000 
     40 C           2.8071  -19.5993  -41.4301 C.2       6 UNK         0.5000 
     41 O           2.0374  -20.2185  -42.1615 O.2       6 UNK        -0.5000 
     42 CA          2.3896  -19.2903  -39.9801 C.3       6 UNK         0.1400 
     43 CB          2.9268  -20.3638  -39.0225 C.3       6 UNK        -0.1800 
     44 N           2.8263  -17.9665  -39.5254 N.am      6 UNK        -0.5000 
     45 C           2.4647  -16.8132  -40.1007 C.2       5 UNK         0.5000 
     46 O           1.7155  -16.7426  -41.0827 O.2       5 UNK        -0.5000 
     47 CA          3.0850  -15.5358  -39.5199 C.3       5 UNK         0.1400 
     48 CB          4.5434  -15.3714  -39.9802 C.3       5 UNK        -0.1800 
     49 N           2.2971  -14.4153  -40.0037 N.am      5 UNK        -0.5000 
     50 C           2.0219  -13.2831  -39.3518 C.2       4 UNK         0.5000 
     51 O           2.5199  -12.9738  -38.2686 O.2       4 UNK        -0.5000 
     52 CA          0.9992  -12.3441  -40.0244 C.3       4 UNK         0.1400 
     53 CB          1.7156  -11.1800  -40.7260 C.3       4 UNK        -0.1800 
     54 N           0.1464  -13.0284  -41.0022 N.am      4 UNK        -0.5000 
     55 C          -0.8055  -13.9263  -40.7059 C.2       3 UNK         0.5000 
     56 O          -1.0948  -14.2546  -39.5543 O.2       3 UNK        -0.5000 
     57 CA         -1.5299  -14.5735  -41.9062 C.3       3 UNK         0.1400 
     58 CB         -2.9090  -15.1580  -41.5399 C.3       3 UNK        -0.1800 
     59 N          -1.6372  -13.6886  -43.0713 N.am      3 UNK        -0.5000 
     60 C          -2.2505  -12.4983  -43.1480 C.2       2 UNK         0.5000 
     61 O          -2.8111  -11.9488  -42.1995 O.2       2 UNK        -0.5000 
     62 CA         -2.2517  -11.8047  -44.5248 C.3       2 UNK         0.1400 
     63 CB         -0.9220  -11.0686  -44.7818 C.3       2 UNK        -0.1800 
     64 N          -2.6117  -12.6984  -45.6348 N.am      2 UNK        -0.5000 
     65 C          -1.9247  -13.7325  -46.1395 C.2       1 UNK         0.5000 
     66 O          -0.8033  -14.0667  -45.7566 O.2       1 UNK        -0.5000 
     67 C          -0.2074  -19.6209  -49.1345 C.2       11 UNK         0.5000 
     68 O          -0.2536  -19.7707  -50.3543 O.2       11 UNK        -0.5000 
     69 N          -1.2980  -19.5344  -48.3542 N.am      12 UNK        -0.5000 
     70 CA         -2.6553  -19.8221  -48.8148 C.3       12 UNK         0.1400 
     71 CB         -3.6670  -18.9101  -48.1101 C.3       12 UNK        -0.1800 
     72 C          -3.0121  -21.2945  -48.5741 C.2       12 UNK         0.5000 
     73 O          -3.4949  -21.9532  -49.4956 O.2       12 UNK        -0.5000 
     74 N          -2.7389  -21.7773  -47.3527 N.am      13 UNK        -0.5000 
     75 CA         -3.0225  -23.1193  -46.8343 C.3       13 UNK         0.1400 
     76 CB         -2.2936  -24.1999  -47.6627 C.3       13 UNK        -0.1800 
     77 C          -4.5312  -23.4169  -46.6953 C.2       13 UNK         0.5000 
     78 O          -5.3772  -22.5575  -46.9612 O.2       13 UNK        -0.5000 
     79 N          -4.8420  -24.6404  -46.2455 N.am      14 UNK        -0.5000 
     80 CA         -6.2006  -25.1598  -46.0890 C.3       14 UNK         0.1400 
     81 CB         -6.1370  -26.5619  -45.4650 C.3       14 UNK        -0.1800 
     82 C          -6.9471  -25.1981  -47.4337 C.2       14 UNK         0.5000 
     83 O          -6.3735  -25.6321  -48.4353 O.2       14 UNK        -0.5000 
     84 N          -8.1935  -24.7052  -47.4328 N.am      15 UNK        -0.5000 
     85 CA         -9.0931  -24.5763  -48.5888 C.3       15 UNK         0.1400 
     86 CB         -9.5347  -25.9709  -49.0808 C.3       15 UNK        -0.1800 
     87 C          -8.5326  -23.7013  -49.7356 C.2       15 UNK         0.5000 
     88 O          -8.9910  -23.8264  -50.8722 O.2       15 UNK        -0.5000 
     89 N          -7.5479  -22.8432  -49.4198 N.am      16 UNK        -0.5000 
     90 CA         -6.7730  -22.0010  -50.3368 C.3       16 UNK         0.1400 
     91 CB         -7.6709  -20.9250  -50.9843 C.3       16 UNK        -0.1800 
     92 C          -5.9626  -22.8123  -51.3748 C.2       16 UNK         0.5000 
     93 O          -5.7100  -22.3162  -52.4733 O.2       16 UNK        -0.5000 
     94 N          -5.5678  -24.0457  -51.0218 N.am      17 UNK        -0.5000 
     95 CA         -4.8936  -24.9919  -51.9127 C.3       17 UNK         0.1400 
     96 CB         -4.7535  -26.3470  -51.2044 C.3       17 UNK        -0.1800 
     97 C          -3.5261  -24.5126  -52.4322 C.2       17 UNK         0.5000 
     98 O          -3.2272  -24.7083  -53.6113 O.2       17 UNK        -0.5000 
     99 N          -2.7273  -23.8765  -51.5644 N.am      18 UNK        -0.5000 
    100 CA        -1.4255  -23.3227  -51.9380 C.3       18 UNK         0.1400 
    101 CB        -0.5143  -23.2005  -50.7091 C.3       18 UNK        -0.1800 
    102 C         -1.5688  -21.9842  -52.6801 C.2       18 UNK         0.5000 
    103 O         -0.7677  -21.7189  -53.5754 O.2       18 UNK        -0.5000 
    104 N         -2.6132  -21.2057  -52.3538 N.am      19 UNK        -0.5000 
    105 CA        -2.9896  -19.9843  -53.0720 C.3       19 UNK         0.1400 
    106 CB        -4.0720  -19.2036  -52.3054 C.3       19 UNK        -0.1800 
    107 C         -3.4302  -20.2658  -54.5202 C.2       19 UNK         0.5000 
    108 O         -3.0628  -19.5173  -55.4255 O.2       19 UNK        -0.5000 
    109 N         -4.1921  -21.3501  -54.7139 N.am      20 UNK        -0.5000 
    110 CA        -4.6303  -21.8335  -56.0219 C.3       20 UNK         0.1400 
    111 CB        -5.6915  -22.9274  -55.8277 C.3       20 UNK        -0.1800 
    112 C         -3.4668  -22.3495  -56.8900 C.2       20 UNK         0.5000 
    113 O         -3.4706  -22.1225  -58.1006 O.2       20 UNK        -0.5000 
    114 N         -2.5000  -23.0322  -56.2615 N.am      21 UNK        -0.5000 
    115 CA        -1.3121  -23.5756  -56.9168 C.3       21 UNK         0.1400 
    116 CB        -0.7012  -24.6763  -56.0331 C.3       21 UNK        -0.1800 
    117 C         -0.2795  -22.4824  -57.2487 C.2       21 UNK         0.5000 
    118 O          0.0406  -22.2791  -58.4203 O.2       21 UNK        -0.5000 
    119 N          0.2241  -21.8101  -56.2059 N.am      22 UNK        -0.5000 
    120 CA         1.2571  -20.7610  -56.2430 C.3       22 UNK         0.1400 
    121 C          2.6433  -21.1877  -56.8210 C.2       22 UNK         0.5000 
    122 N          2.9775  -22.4724  -56.8408 N.am      22 UNK        -0.7600 
    123 O          3.4426  -20.3508  -57.2321 O.2       22 UNK        -0.5000 
    124 C124        0.7147  -19.4177  -56.8168 C.3       23 UNK        -0.0398 
    125 S125        1.1990  -17.9873  -55.7877 S.3       23 UNK        -0.2404 
    126 C126       -0.0474  -18.1634  -54.4741 C.3       23 UNK        -0.0205 
    127 H127       -5.5452  -17.5099  -45.5242 H         1 UNK         0.0600 
    128 H128       -4.9158  -16.8719  -44.0020 H         1 UNK         0.0600 
    129 H129       -3.8579  -17.7810  -45.0787 H         1 UNK         0.0600 
    130 H130       -2.6511  -16.5973  -46.5817 H         1 UNK         0.3000 
    131 H131       -3.4770  -13.9870  -47.5937 H         1 UNK         0.0600 
    132 H132       -1.0333  -15.7664  -48.0736 H         1 UNK         0.0800 
    133 H133       -1.1208  -14.1270  -48.6661 H         1 UNK         0.0800 
    134 H134       -1.4549  -13.7739  -50.9135 H         1 UNK         0.0800 
    135 H135       -2.5415  -14.5910  -52.0001 H         1 UNK         0.0800 
    136 H136       -1.7954  -16.4060  -53.3561 H         1 UNK         0.1150 
    137 H137        2.1748  -17.9543  -52.8920 H         1 UNK         0.1150 
    138 H138        0.6554  -15.0743  -50.1041 H         1 UNK         0.1150 
    139 H139        3.6908  -16.3772  -51.3360 H         1 UNK         0.0800 
    140 H140        2.9123  -15.7887  -49.8889 H         1 UNK         0.0800 
    141 H141        1.1536  -17.4005  -48.6805 H         1 UNK         0.0800 
    142 H142        2.3944  -17.9715  -47.6152 H         1 UNK         0.0800 
    143 H143        1.7853  -20.3304  -48.9545 H         1 UNK         0.0600 
    144 H144        1.1221  -19.3502  -46.3282 H         1 UNK         0.3000 
    145 H145       -0.2099  -22.3233  -45.1302 H         1 UNK         0.0600 
    146 H146        1.6796  -22.6009  -43.5476 H         1 UNK         0.0600 
    147 H147        2.1256  -23.2104  -45.1328 H         1 UNK         0.0600 
    148 H148        2.7295  -21.6473  -44.5964 H         1 UNK         0.0600 
    149 H149        0.9493  -20.1916  -43.6679 H         1 UNK         0.3000 
    150 H150       -1.7243  -17.8195  -44.0726 H         1 UNK         0.0600 
    151 H151       -2.2589  -19.3175  -42.1658 H         1 UNK         0.0600 
    152 H152       -1.4068  -17.8875  -41.6031 H         1 UNK         0.0600 
    153 H153       -0.5566  -19.4232  -41.7362 H         1 UNK         0.0600 
    154 H154        0.8056  -17.5739  -42.8022 H         1 UNK         0.3000 
    155 H155        2.6519  -16.3386  -45.6101 H         1 UNK         0.0600 
    156 H156        1.5413  -15.0522  -43.0589 H         1 UNK         0.0600 
    157 H157        1.5661  -14.3668  -44.6744 H         1 UNK         0.0600 
    158 H158        3.0724  -14.6093  -43.8106 H         1 UNK         0.0600 
    159 H159        3.1843  -17.0175  -42.8271 H         1 UNK         0.3000 
    160 H160        4.4851  -20.2497  -43.4967 H         1 UNK         0.0600 
    161 H161        6.0574  -17.6856  -42.8977 H         1 UNK         0.0600 
    162 H162        6.3937  -18.8037  -44.2143 H         1 UNK         0.0600 
    163 H163        6.5851  -19.3329  -42.5508 H         1 UNK         0.0600 
    164 H164        4.5526  -18.6082  -41.1648 H         1 UNK         0.3000 
    165 H165        1.2986  -19.3119  -39.9410 H         1 UNK         0.0600 
    166 H166        2.5649  -20.2032  -38.0068 H         1 UNK         0.0600 
    167 H167        2.5998  -21.3585  -39.3288 H         1 UNK         0.0600 
    168 H168        4.0171  -20.3707  -38.9943 H         1 UNK         0.0600 
    169 H169        3.4475  -17.9460  -38.7293 H         1 UNK         0.3000 
    170 H170        3.0362  -15.5865  -38.4301 H         1 UNK         0.0600 
    171 H171        5.1648  -16.1946  -39.6260 H         1 UNK         0.0600 
    172 H172        4.6215  -15.3423  -41.0679 H         1 UNK         0.0600 
    173 H173        4.9761  -14.4497  -39.5908 H         1 UNK         0.0600 
    174 H174        1.7868  -14.6182  -40.8525 H         1 UNK         0.3000 
    175 H175        0.3604  -11.9343  -39.2393 H         1 UNK         0.0600 
    176 H176        2.3627  -11.5320  -41.5305 H         1 UNK         0.0600 
    177 H177        1.0006  -10.4761  -41.1526 H         1 UNK         0.0600 
    178 H178        2.3378  -10.6239  -40.0236 H         1 UNK         0.0600 
    179 H179        0.3026  -12.8031  -41.9734 H         1 UNK         0.3000 
    180 H180       -0.8975  -15.4057  -42.2176 H         1 UNK         0.0600 
    181 H181       -3.3721  -15.6386  -42.4014 H         1 UNK         0.0600 
    182 H182       -3.5911  -14.3887  -41.1773 H         1 UNK         0.0600 
    183 H183       -2.8217  -15.9129  -40.7577 H         1 UNK         0.0600 
    184 H184       -1.2041  -14.0227  -43.9294 H         1 UNK         0.3000 
    185 H185       -3.0385  -11.0492  -44.4927 H         1 UNK         0.0600 
    186 H186       -0.7368  -10.3243  -44.0064 H         1 UNK         0.0600 
    187 H187       -0.0680  -11.7462  -44.7879 H         1 UNK         0.0600 
    188 H188       -0.9407  -10.5443  -45.7372 H         1 UNK         0.0600 
    189 H189       -3.5582  -12.5772  -45.9703 H         1 UNK         0.3000 
    190 H190       -1.1709  -19.4461  -47.3539 H         1 UNK         0.3000 
    191 H191       -2.7205  -19.6354  -49.8842 H         1 UNK         0.0600 
    192 H192       -4.6794  -19.1054  -48.4661 H         1 UNK         0.0600 
    193 H193       -3.4533  -17.8628  -48.3064 H         1 UNK         0.0600 
    194 H194       -3.6655  -19.0618  -47.0317 H         1 UNK         0.0600 
    195 H195       -2.3912  -21.1218  -46.6578 H         1 UNK         0.3000 
    196 H196       -2.6093  -23.1352  -45.8250 H         1 UNK         0.0600 
    197 H197       -2.7560  -24.3468  -48.6386 H         1 UNK         0.0600 
    198 H198       -1.2489  -23.9365  -47.8223 H         1 UNK         0.0600 
    199 H199       -2.3006  -25.1639  -47.1540 H         1 UNK         0.0600 
    200 H200       -4.0956  -25.2954  -46.0669 H         1 UNK         0.3000 
    201 H201       -6.7332  -24.4987  -45.4023 H         1 UNK         0.0600 
    202 H202       -5.5909  -27.2605  -46.1004 H         1 UNK         0.0600 
    203 H203       -7.1382  -26.9682  -45.3161 H         1 UNK         0.0600 
    204 H204       -5.6479  -26.5398  -44.4910 H         1 UNK         0.0600 
    205 H205       -8.5648  -24.3517  -46.5615 H         1 UNK         0.3000 
    206 H206       -9.9820  -24.0585  -48.2259 H         1 UNK         0.0600 
    207 H207       -9.9325  -26.5706  -48.2622 H         1 UNK         0.0600 
    208 H208      -10.3203  -25.8923  -49.8331 H         1 UNK         0.0600 
    209 H209       -8.7076  -26.5221  -49.5294 H         1 UNK         0.0600 
    210 H210       -7.2248  -22.8329  -48.4604 H         1 UNK         0.3000 
    211 H211       -6.0428  -21.4805  -49.7175 H         1 UNK         0.0600 
    212 H212       -7.0797  -20.1996  -51.5426 H         1 UNK         0.0600 
    213 H213       -8.2293  -20.3715  -50.2296 H         1 UNK         0.0600 
    214 H214       -8.3875  -21.3598  -51.6813 H         1 UNK         0.0600 
    215 H215       -5.8180  -24.3936  -50.1030 H         1 UNK         0.3000 
    216 H216       -5.5382  -25.1325  -52.7829 H         1 UNK         0.0600 
    217 H217       -4.1699  -26.2620  -50.2868 H         1 UNK         0.0600 
    218 H218       -4.2570  -27.0764  -51.8456 H         1 UNK         0.0600 
    219 H219       -5.7295  -26.7564  -50.9427 H         1 UNK         0.0600 
    220 H220       -3.0790  -23.6422  -50.6429 H         1 UNK         0.3000 
    221 H221       -0.9382  -24.0207  -52.6221 H         1 UNK         0.0600 
    222 H222       -0.3698  -24.1668  -50.2265 H         1 UNK         0.0600 
    223 H223       -0.9130  -22.5124  -49.9679 H         1 UNK         0.0600 
    224 H224        0.4706  -22.8278  -50.9928 H         1 UNK         0.0600 
    225 H225       -3.2182  -21.5096  -51.6014 H         1 UNK         0.3000 
    226 H226       -2.1093  -19.3456  -53.1177 H         1 UNK         0.0600 
    227 H227       -4.7756  -19.8652  -51.8036 H         1 UNK         0.0600 
    228 H228       -3.6275  -18.5498  -51.5565 H         1 UNK         0.0600 
    229 H229       -4.6469  -18.5559  -52.9690 H         1 UNK         0.0600 
    230 H230       -4.5301  -21.8589  -53.9009 H         1 UNK         0.3000 
    231 H231       -5.0956  -20.9990  -56.5506 H         1 UNK         0.0600 
    232 H232       -5.2944  -23.7802  -55.2760 H         1 UNK         0.0600 
    233 H233       -6.0544  -23.2958  -56.7879 H         1 UNK         0.0600 
    234 H234       -6.5527  -22.5471  -55.2777 H         1 UNK         0.0600 
    235 H235       -2.5952  -23.2033  -55.2690 H         1 UNK         0.3000 
    236 H236       -1.6182  -24.0401  -57.8568 H         1 UNK         0.0600 
    237 H237       -1.4086  -25.4915  -55.8791 H         1 UNK         0.0600 
    238 H238        0.1888  -25.1023  -56.4979 H         1 UNK         0.0600 
    239 H239       -0.4134  -24.2998  -55.0513 H         1 UNK         0.0600 
    240 H240       -0.1436  -22.0013  -55.2760 H         1 UNK         0.3000 
    241 H241        1.4766  -20.6094  -55.1862 H         1 UNK         0.0600 
    242 H242        3.8763  -22.7453  -57.2069 H         1 UNK         0.3800 
    243 H243        2.3422  -23.1738  -56.4965 H         1 UNK         0.3800 
    244 H244       -0.3754  -19.4316  -56.8712 H         1 UNK         0.0800 
    245 H245        1.0490  -19.2560  -57.8428 H         1 UNK         0.0800 
    246 H246       -1.0279  -17.9775  -54.9124 H         1 UNK         0.0800 
    247 H247       -0.0503  -19.1930  -54.1181 H         1 UNK         0.0800 
@<TRIPOS>BOND
     1    1    2 1    
     2    1  127 1    
     3    1  128 1    
     4    1  129 1    
     5    2    3 2    
     6    2    4 am   BACKBONE|DICT|INTERRES
     7    4    5 1    
     8    4  130 1    
     9    5    6 1    
    10    5   65 1    
    11    5  131 1    
    12    6    7 1    
    13    6  132 1    
    14    6  133 1    
    15    7    8 1    
    16    8    9 1    
    17    8  134 1    
    18    8  135 1    
    19    9   10 ar   
    20    9   14 ar   
    21   10   11 ar   
    22   10  136 1    
    23   11   12 ar   
    24   11  126 1    
    25   12   13 ar   
    26   12  137 1    
    27   13   14 ar   
    28   13   15 1    
    29   14  138 1    
    30   15   16 1    
    31   15  139 1    
    32   15  140 1    
    33   16   17 1    
    34   17   18 1    
    35   17  141 1    
    36   17  142 1    
    37   18   19 1    
    38   18   67 1    
    39   18  143 1    
    40   19   20 am   BACKBONE|DICT|INTERRES
    41   19  144 1    
    42   20   21 2    
    43   20   22 1    
    44   22   23 1    
    45   22   24 1    
    46   22  145 1    
    47   23  146 1    
    48   23  147 1    
    49   23  148 1    
    50   24   25 am   BACKBONE|DICT|INTERRES
    51   24  149 1    
    52   25   26 2    
    53   25   27 1    
    54   27   28 1    
    55   27   29 1    
    56   27  150 1    
    57   28  151 1    
    58   28  152 1    
    59   28  153 1    
    60   29   30 am   BACKBONE|DICT|INTERRES
    61   29  154 1    
    62   30   31 2    
    63   30   32 1    
    64   32   33 1    
    65   32   34 1    
    66   32  155 1    
    67   33  156 1    
    68   33  157 1    
    69   33  158 1    
    70   34   35 am   BACKBONE|DICT|INTERRES
    71   34  159 1    
    72   35   36 2    
    73   35   37 1    
    74   37   38 1    
    75   37   39 1    
    76   37  160 1    
    77   38  161 1    
    78   38  162 1    
    79   38  163 1    
    80   39   40 am   BACKBONE|DICT|INTERRES
    81   39  164 1    
    82   40   41 2    
    83   40   42 1    
    84   42   43 1    
    85   42   44 1    
    86   42  165 1    
    87   43  166 1    
    88   43  167 1    
    89   43  168 1    
    90   44   45 am   BACKBONE|DICT|INTERRES
    91   44  169 1    
    92   45   46 2    
    93   45   47 1    
    94   47   48 1    
    95   47   49 1    
    96   47  170 1    
    97   48  171 1    
    98   48  172 1    
    99   48  173 1    
   100   49   50 am   BACKBONE|DICT|INTERRES
   101   49  174 1    
   102   50   51 2    
   103   50   52 1    
   104   52   53 1    
   105   52   54 1    
   106   52  175 1    
   107   53  176 1    
   108   53  177 1    
   109   53  178 1    
   110   54   55 am   BACKBONE|DICT|INTERRES
   111   54  179 1    
   112   55   56 2    
   113   55   57 1    
   114   57   58 1    
   115   57   59 1    
   116   57  180 1    
   117   58  181 1    
   118   58  182 1    
   119   58  183 1    
   120   59   60 am   BACKBONE|DICT|INTERRES
   121   59  184 1    
   122   60   61 2    
   123   60   62 1    
   124   62   63 1    
   125   62   64 1    
   126   62  185 1    
   127   63  186 1    
   128   63  187 1    
   129   63  188 1    
   130   64   65 am   BACKBONE|DICT|INTERRES
   131   64  189 1    
   132   65   66 2    
   133   67   68 2    
   134   67   69 am   BACKBONE|DICT|INTERRES
   135   69   70 1    
   136   69  190 1    
   137   70   71 1    
   138   70   72 1    
   139   70  191 1    
   140   71  192 1    
   141   71  193 1    
   142   71  194 1    
   143   72   73 2    
   144   72   74 am   BACKBONE|DICT|INTERRES
   145   74   75 1    
   146   74  195 1    
   147   75   76 1    
   148   75   77 1    
   149   75  196 1    
   150   76  197 1    
   151   76  198 1    
   152   76  199 1    
   153   77   78 2    
   154   77   79 am   BACKBONE|DICT|INTERRES
   155   79   80 1    
   156   79  200 1    
   157   80   81 1    
   158   80   82 1    
   159   80  201 1    
   160   81  202 1    
   161   81  203 1    
   162   81  204 1    
   163   82   83 2    
   164   82   84 am   BACKBONE|DICT|INTERRES
   165   84   85 1    
   166   84  205 1    
   167   85   86 1    
   168   85   87 1    
   169   85  206 1    
   170   86  207 1    
   171   86  208 1    
   172   86  209 1    
   173   87   88 2    
   174   87   89 am   BACKBONE|DICT|INTERRES
   175   89   90 1    
   176   89  210 1    
   177   90   91 1    
   178   90   92 1    
   179   90  211 1    
   180   91  212 1    
   181   91  213 1    
   182   91  214 1    
   183   92   93 2    
   184   92   94 am   BACKBONE|DICT|INTERRES
   185   94   95 1    
   186   94  215 1    
   187   95   96 1    
   188   95   97 1    
   189   95  216 1    
   190   96  217 1    
   191   96  218 1    
   192   96  219 1    
   193   97   98 2    
   194   97   99 am   BACKBONE|DICT|INTERRES
   195   99  100 1    
   196   99  220 1    
   197  100  101 1    
   198  100  102 1    
   199  100  221 1    
   200  101  222 1    
   201  101  223 1    
   202  101  224 1    
   203  102  103 2    
   204  102  104 am   BACKBONE|DICT|INTERRES
   205  104  105 1    
   206  104  225 1    
   207  105  106 1    
   208  105  107 1    
   209  105  226 1    
   210  106  227 1    
   211  106  228 1    
   212  106  229 1    
   213  107  108 2    
   214  107  109 am   BACKBONE|DICT|INTERRES
   215  109  110 1    
   216  109  230 1    
   217  110  111 1    
   218  110  112 1    
   219  110  231 1    
   220  111  232 1    
   221  111  233 1    
   222  111  234 1    
   223  112  113 2    
   224  112  114 am   BACKBONE|DICT|INTERRES
   225  114  115 1    
   226  114  235 1    
   227  115  116 1    
   228  115  117 1    
   229  115  236 1    
   230  116  237 1    
   231  116  238 1    
   232  116  239 1    
   233  117  118 2    
   234  117  119 am   BACKBONE|DICT|INTERRES
   235  119  120 1    
   236  119  240 1    
   237  120  121 1    
   238  120  124 1    
   239  120  241 1    
   240  121  122 am   BACKBONE|DICT|INTERRES
   241  121  123 2    
   242  122  242 1    
   243  122  243 1    
   244  124  125 1    
   245  124  244 1    
   246  124  245 1    
   247  125  126 1    
   248  126  246 1    
   249  126  247 1    
@<TRIPOS>SUBSTRUCTURE
     1 UNK         1 GROUP             0       ****    0 ROOT    
