@<TRIPOS>MOLECULE
3R540
247   249    1
SMALL
USER_CHARGES


@<TRIPOS>ATOM
      1 CA          0.0283  -11.6346  -49.7410 C.3       0 UNK        -0.1800 
      2 C           0.9831  -12.6167  -49.0810 C.2       0 UNK         0.5000 
      3 O           1.7854  -12.2229  -48.2334 O.2       0 UNK        -0.5000 
      4 N           0.8931  -13.9014  -49.4527 N.am      1 UNK        -0.5000 
      5 CA          1.7898  -14.9775  -49.0022 C.3       1 UNK         0.1400 
      6 C6          1.6927  -16.2757  -49.8504 C.3       23 UNK        -0.0398 
      7 S7          1.4755  -15.9806  -51.6474 S.3       23 UNK        -0.2404 
      8 C8         -0.1744  -16.6864  -51.9978 C.3       23 UNK        -0.0205 
      9 C9         -1.2345  -16.2120  -51.0143 C.ar      23 UNK        -0.0193 
     10 C10        -1.7773  -14.9275  -51.1105 C.ar      23 UNK        -0.1150 
     11 C11        -2.7016  -14.4792  -50.1609 C.ar      23 UNK        -0.0193 
     12 C12        -3.0668  -15.3189  -49.1048 C.ar      23 UNK        -0.1150 
     13 C13        -2.5456  -16.6114  -49.0131 C.ar      23 UNK        -0.0193 
     14 C14        -1.6516  -17.0597  -49.9854 C.ar      23 UNK        -0.1150 
     15 C15        -2.9717  -17.5333  -47.8839 C.3       23 UNK        -0.0205 
     16 S16        -1.8692  -17.4179  -46.4364 S.3       23 UNK        -0.2404 
     17 C17        -0.4542  -18.4875  -46.8601 C.3       23 UNK        -0.0398 
     18 CA         -0.5501  -19.9589  -46.3823 C.3       11 UNK         0.1400 
     19 N          -0.5291  -20.1490  -44.9258 N.am      11 UNK        -0.5000 
     20 C          -0.3047  -21.3506  -44.3643 C.2       10 UNK         0.5000 
     21 O          -0.0435  -22.3653  -45.0119 O.2       10 UNK        -0.5000 
     22 CA         -0.4482  -21.4680  -42.8395 C.3       10 UNK         0.1400 
     23 CB          0.8190  -20.9906  -42.1157 C.3       10 UNK        -0.1800 
     24 N          -1.6164  -20.7491  -42.3381 N.am      10 UNK        -0.5000 
     25 C          -2.8840  -21.1404  -42.5340 C.2       9 UNK         0.5000 
     26 O          -3.1986  -22.1385  -43.1820 O.2       9 UNK        -0.5000 
     27 CA         -3.9834  -20.2543  -41.9191 C.3       9 UNK         0.1400 
     28 CB         -4.2541  -20.6635  -40.4637 C.3       9 UNK        -0.1800 
     29 N          -3.6395  -18.8331  -41.9646 N.am      9 UNK        -0.5000 
     30 C          -3.5748  -18.1163  -43.0951 C.2       8 UNK         0.5000 
     31 O          -3.8907  -18.5659  -44.1954 O.2       8 UNK        -0.5000 
     32 CA         -3.0254  -16.6790  -42.9765 C.3       8 UNK         0.1400 
     33 CB         -4.1668  -15.6782  -42.7482 C.3       8 UNK        -0.1800 
     34 N          -2.0274  -16.5317  -41.9126 N.am      8 UNK        -0.5000 
     35 C          -0.8397  -17.1515  -41.8941 C.2       7 UNK         0.5000 
     36 O          -0.4223  -17.8639  -42.8131 O.2       7 UNK        -0.5000 
     37 CA         -0.0306  -17.0186  -40.5954 C.3       7 UNK         0.1400 
     38 CB         -0.7511  -17.7528  -39.4432 C.3       7 UNK        -0.1800 
     39 N           1.2952  -17.5910  -40.8016 N.am      7 UNK        -0.5000 
     40 C           2.3403  -17.4945  -39.9710 C.2       6 UNK         0.5000 
     41 O           2.3182  -16.8614  -38.9145 O.2       6 UNK        -0.5000 
     42 CA          3.6310  -18.2382  -40.3740 C.3       6 UNK         0.1400 
     43 CB          3.7089  -19.5972  -39.6607 C.3       6 UNK        -0.1800 
     44 N           3.7674  -18.4527  -41.8173 N.am      6 UNK        -0.5000 
     45 C           3.9912  -17.4752  -42.7043 C.2       5 UNK         0.5000 
     46 O           4.1173  -16.2906  -42.3862 O.2       5 UNK        -0.5000 
     47 CA          4.0709  -17.9104  -44.1822 C.3       5 UNK         0.1400 
     48 CB          2.7120  -18.4383  -44.6728 C.3       5 UNK        -0.1800 
     49 N           4.4758  -16.8125  -45.0554 N.am      5 UNK        -0.5000 
     50 C           5.7050  -16.2876  -45.1334 C.2       4 UNK         0.5000 
     51 O           6.6910  -16.7533  -44.5599 O.2       4 UNK        -0.5000 
     52 CA          5.8455  -15.0142  -45.9847 C.3       4 UNK         0.1400 
     53 CB          5.9569  -15.3603  -47.4784 C.3       4 UNK        -0.1800 
     54 N           4.7108  -14.1130  -45.7766 N.am      4 UNK        -0.5000 
     55 C           4.6243  -13.2181  -44.7820 C.2       3 UNK         0.5000 
     56 O           5.5307  -13.0053  -43.9756 O.2       3 UNK        -0.5000 
     57 CA          3.3175  -12.4076  -44.6731 C.3       3 UNK         0.1400 
     58 CB          3.4699  -11.0498  -45.3756 C.3       3 UNK        -0.1800 
     59 N           2.1677  -13.1105  -45.2428 N.am      3 UNK        -0.5000 
     60 C           1.4761  -14.0687  -44.6065 C.2       2 UNK         0.5000 
     61 O           1.6779  -14.3956  -43.4382 O.2       2 UNK        -0.5000 
     62 CA          0.3673  -14.7856  -45.4036 C.3       2 UNK         0.1400 
     63 CB         -0.9892  -14.1242  -45.1086 C.3       2 UNK        -0.1800 
     64 N           0.5865  -14.7849  -46.8527 N.am      2 UNK        -0.5000 
     65 C           1.6517  -15.2881  -47.4942 C.2       1 UNK         0.5000 
     66 O           2.5388  -15.9244  -46.9290 O.2       1 UNK        -0.5000 
     67 C          -1.7282  -20.7041  -47.0363 C.2       11 UNK         0.5000 
     68 O          -1.5387  -21.3028  -48.0917 O.2       11 UNK        -0.5000 
     69 N          -2.9068  -20.6834  -46.3942 N.am      12 UNK        -0.5000 
     70 CA         -4.1065  -21.3777  -46.8625 C.3       12 UNK         0.1400 
     71 CB         -5.3104  -20.9794  -45.9976 C.3       12 UNK        -0.1800 
     72 C          -3.9286  -22.9053  -46.8946 C.2       12 UNK         0.5000 
     73 O          -4.3502  -23.5403  -47.8600 O.2       12 UNK        -0.5000 
     74 N          -3.2695  -23.4579  -45.8663 N.am      13 UNK        -0.5000 
     75 CA         -2.8949  -24.8692  -45.7872 C.3       13 UNK         0.1400 
     76 CB         -2.3795  -25.1845  -44.3750 C.3       13 UNK        -0.1800 
     77 C          -1.8547  -25.2696  -46.8503 C.2       13 UNK         0.5000 
     78 O          -1.9786  -26.3421  -47.4409 O.2       13 UNK        -0.5000 
     79 N          -0.8604  -24.4024  -47.0870 N.am      14 UNK        -0.5000 
     80 CA          0.1878  -24.6044  -48.0888 C.3       14 UNK         0.1400 
     81 CB          1.3237  -23.5984  -47.8477 C.3       14 UNK        -0.1800 
     82 C          -0.3326  -24.4985  -49.5349 C.2       14 UNK         0.5000 
     83 O           0.0713  -25.2905  -50.3866 O.2       14 UNK        -0.5000 
     84 N          -1.2139  -23.5222  -49.7861 N.am      15 UNK        -0.5000 
     85 CA         -1.7845  -23.2247  -51.0994 C.3       15 UNK         0.1400 
     86 CB         -2.2497  -21.7607  -51.1192 C.3       15 UNK        -0.1800 
     87 C          -2.9392  -24.1578  -51.5085 C.2       15 UNK         0.5000 
     88 O          -3.3562  -24.1023  -52.6679 O.2       15 UNK        -0.5000 
     89 N          -3.4505  -24.9720  -50.5740 N.am      16 UNK        -0.5000 
     90 CA         -4.5328  -25.9347  -50.7839 C.3       16 UNK         0.1400 
     91 CB         -4.8415  -26.6598  -49.4648 C.3       16 UNK        -0.1800 
     92 C          -4.1976  -26.9471  -51.8949 C.2       16 UNK         0.5000 
     93 O          -3.1785  -27.6350  -51.8058 O.2       16 UNK        -0.5000 
     94 N          -5.0532  -26.9870  -52.9264 N.am      17 UNK        -0.5000 
     95 CA         -4.9240  -27.7782  -54.1582 C.3       17 UNK         0.1400 
     96 CB         -4.9824  -29.2903  -53.8539 C.3       17 UNK        -0.1800 
     97 C          -3.7069  -27.3909  -55.0315 C.2       17 UNK         0.5000 
     98 O          -3.2877  -28.1834  -55.8774 O.2       17 UNK        -0.5000 
     99 N          -3.1753  -26.1793  -54.8295 N.am      18 UNK        -0.5000 
    100 CA        -2.0637  -25.5996  -55.5716 C.3       18 UNK         0.1400 
    101 CB        -0.7969  -25.6236  -54.6912 C.3       18 UNK        -0.1800 
    102 C         -2.4922  -24.1990  -56.0379 C.2       18 UNK         0.5000 
    103 O         -3.3357  -24.0987  -56.9304 O.2       18 UNK        -0.5000 
    104 N         -1.9226  -23.1464  -55.4356 N.am      19 UNK        -0.5000 
    105 CA        -2.2038  -21.7441  -55.7533 C.3       19 UNK         0.1400 
    106 CB        -1.1442  -20.8590  -55.0769 C.3       19 UNK        -0.1800 
    107 C         -3.6213  -21.2806  -55.3605 C.2       19 UNK         0.5000 
    108 O         -4.1366  -20.3511  -55.9808 O.2       19 UNK        -0.5000 
    109 N         -4.2116  -21.9218  -54.3392 N.am      20 UNK        -0.5000 
    110 CA        -5.5459  -21.6760  -53.7748 C.3       20 UNK         0.1400 
    111 CB        -6.6437  -22.0022  -54.8086 C.3       20 UNK        -0.1800 
    112 C         -5.7290  -20.2834  -53.1255 C.2       20 UNK         0.5000 
    113 O         -6.8671  -19.8471  -52.9428 O.2       20 UNK        -0.5000 
    114 N         -4.6109  -19.6364  -52.7582 N.am      21 UNK        -0.5000 
    115 CA        -4.4905  -18.3061  -52.1464 C.3       21 UNK         0.1400 
    116 CB        -5.1885  -18.2768  -50.7679 C.3       21 UNK        -0.1800 
    117 C         -4.9505  -17.1561  -53.0719 C.2       21 UNK         0.5000 
    118 O         -5.2723  -17.3809  -54.2408 O.2       21 UNK        -0.5000 
    119 N         -4.9399  -15.9258  -52.5435 N.am      22 UNK        -0.5000 
    120 CA        -5.3879  -14.7113  -53.2480 C.3       22 UNK         0.1400 
    121 C         -6.9341  -14.5423  -53.3604 C.2       22 UNK         0.5000 
    122 N         -7.7477  -15.3786  -52.7268 N.am      22 UNK        -0.7600 
    123 O         -7.4056  -13.6423  -54.0506 O.2       22 UNK        -0.5000 
    124 C124       -4.6983  -13.4346  -52.6997 C.3       23 UNK        -0.0398 
    125 S125       -4.9958  -13.1221  -50.9220 S.3       23 UNK        -0.2404 
    126 C126       -3.3017  -13.0857  -50.2580 C.3       23 UNK        -0.0205 
    127 H127       -0.8276  -11.4480  -49.0928 H         1 UNK         0.0600 
    128 H128       -0.3321  -12.0143  -50.6967 H         1 UNK         0.0600 
    129 H129        0.5316  -10.6857  -49.9263 H         1 UNK         0.0600 
    130 H130        0.2094  -14.1783  -50.1439 H         1 UNK         0.3000 
    131 H131        2.8044  -14.5954  -49.1352 H         1 UNK         0.0600 
    132 H132        2.6094  -16.8542  -49.7237 H         1 UNK         0.0800 
    133 H133        0.9039  -16.9276  -49.4828 H         1 UNK         0.0800 
    134 H134       -0.1021  -17.7752  -51.9867 H         1 UNK         0.0800 
    135 H135       -0.4698  -16.4128  -53.0117 H         1 UNK         0.0800 
    136 H136       -1.4698  -14.2766  -51.9171 H         1 UNK         0.1150 
    137 H137       -3.7706  -14.9703  -48.3617 H         1 UNK         0.1150 
    138 H138       -1.2580  -18.0643  -49.9283 H         1 UNK         0.1150 
    139 H139       -3.9817  -17.2748  -47.5626 H         1 UNK         0.0800 
    140 H140       -3.0328  -18.5578  -48.2474 H         1 UNK         0.0800 
    141 H141        0.4342  -18.0291  -46.4279 H         1 UNK         0.0800 
    142 H142       -0.2896  -18.4588  -47.9356 H         1 UNK         0.0800 
    143 H143        0.3541  -20.4425  -46.7592 H         1 UNK         0.0600 
    144 H144       -0.7277  -19.3445  -44.3409 H         1 UNK         0.3000 
    145 H145       -0.5818  -22.5261  -42.6033 H         1 UNK         0.0600 
    146 H146        0.7229  -21.1049  -41.0360 H         1 UNK         0.0600 
    147 H147        1.6868  -21.5723  -42.4289 H         1 UNK         0.0600 
    148 H148        1.0353  -19.9457  -42.3243 H         1 UNK         0.0600 
    149 H149       -1.4434  -19.8811  -41.8555 H         1 UNK         0.3000 
    150 H150       -4.8990  -20.4082  -42.4942 H         1 UNK         0.0600 
    151 H151       -4.5293  -21.7172  -40.4002 H         1 UNK         0.0600 
    152 H152       -5.0767  -20.0879  -40.0390 H         1 UNK         0.0600 
    153 H153       -3.3776  -20.5142  -39.8317 H         1 UNK         0.0600 
    154 H154       -3.3879  -18.3912  -41.0936 H         1 UNK         0.3000 
    155 H155       -2.5414  -16.4254  -43.9180 H         1 UNK         0.0600 
    156 H156       -4.6784  -15.8575  -41.8018 H         1 UNK         0.0600 
    157 H157       -3.7965  -14.6529  -42.7430 H         1 UNK         0.0600 
    158 H158       -4.9105  -15.7492  -43.5431 H         1 UNK         0.0600 
    159 H159       -2.2969  -15.9643  -41.1218 H         1 UNK         0.3000 
    160 H160        0.0730  -15.9576  -40.3599 H         1 UNK         0.0600 
    161 H161       -0.8470  -18.8202  -39.6463 H         1 UNK         0.0600 
    162 H162       -1.7539  -17.3570  -39.2799 H         1 UNK         0.0600 
    163 H163       -0.2168  -17.6433  -38.4998 H         1 UNK         0.0600 
    164 H164        1.4003  -18.0721  -41.6849 H         1 UNK         0.3000 
    165 H165        4.4752  -17.6314  -40.0396 H         1 UNK         0.0600 
    166 H166        4.6526  -20.1007  -39.8712 H         1 UNK         0.0600 
    167 H167        3.6425  -19.4748  -38.5788 H         1 UNK         0.0600 
    168 H168        2.8982  -20.2598  -39.9651 H         1 UNK         0.0600 
    169 H169        3.6930  -19.4061  -42.1401 H         1 UNK         0.3000 
    170 H170        4.8111  -18.7086  -44.2666 H         1 UNK         0.0600 
    171 H171        2.4305  -19.3543  -44.1550 H         1 UNK         0.0600 
    172 H172        1.9177  -17.7084  -44.5109 H         1 UNK         0.0600 
    173 H173        2.7410  -18.6722  -45.7372 H         1 UNK         0.0600 
    174 H174        3.7338  -16.3818  -45.6001 H         1 UNK         0.3000 
    175 H175        6.7675  -14.5093  -45.6885 H         1 UNK         0.0600 
    176 H176        5.0741  -15.8859  -47.8432 H         1 UNK         0.0600 
    177 H177        6.0850  -14.4618  -48.0822 H         1 UNK         0.0600 
    178 H178        6.8188  -16.0024  -47.6641 H         1 UNK         0.0600 
    179 H179        3.9004  -14.2666  -46.3595 H         1 UNK         0.3000 
    180 H180        3.1300  -12.2204  -43.6135 H         1 UNK         0.0600 
    181 H181        3.6720  -11.1683  -46.4409 H         1 UNK         0.0600 
    182 H182        4.2940  -10.4784  -44.9466 H         1 UNK         0.0600 
    183 H183        2.5673  -10.4476  -45.2708 H         1 UNK         0.0600 
    184 H184        1.9254  -12.8794  -46.2003 H         1 UNK         0.3000 
    185 H185        0.3336  -15.8233  -45.0666 H         1 UNK         0.0600 
    186 H186       -1.2235  -14.1755  -44.0445 H         1 UNK         0.0600 
    187 H187       -0.9925  -13.0718  -45.3953 H         1 UNK         0.0600 
    188 H188       -1.8021  -14.6141  -45.6431 H         1 UNK         0.0600 
    189 H189       -0.0936  -14.2849  -47.4058 H         1 UNK         0.3000 
    190 H190       -2.9998  -20.1289  -45.5512 H         1 UNK         0.3000 
    191 H191       -4.3021  -21.0477  -47.8851 H         1 UNK         0.0600 
    192 H192       -5.1600  -21.2429  -44.9506 H         1 UNK         0.0600 
    193 H193       -6.2180  -21.4803  -46.3365 H         1 UNK         0.0600 
    194 H194       -5.4929  -19.9059  -46.0497 H         1 UNK         0.0600 
    195 H195       -3.0063  -22.8721  -45.0807 H         1 UNK         0.3000 
    196 H196       -3.7934  -25.4650  -45.9614 H         1 UNK         0.0600 
    197 H197       -2.1042  -26.2360  -44.2846 H         1 UNK         0.0600 
    198 H198       -3.1428  -24.9822  -43.6234 H         1 UNK         0.0600 
    199 H199       -1.4997  -24.5907  -44.1249 H         1 UNK         0.0600 
    200 H200       -0.7974  -23.5613  -46.5234 H         1 UNK         0.3000 
    201 H201        0.5943  -25.6091  -47.9550 H         1 UNK         0.0600 
    202 H202        1.7451  -23.7116  -46.8486 H         1 UNK         0.0600 
    203 H203        0.9789  -22.5693  -47.9500 H         1 UNK         0.0600 
    204 H204        2.1347  -23.7460  -48.5620 H         1 UNK         0.0600 
    205 H205       -1.4467  -22.8687  -49.0408 H         1 UNK         0.3000 
    206 H206       -0.9993  -23.3359  -51.8498 H         1 UNK         0.0600 
    207 H207       -2.6023  -21.4783  -52.1084 H         1 UNK         0.0600 
    208 H208       -3.0648  -21.5871  -50.4150 H         1 UNK         0.0600 
    209 H209       -1.4351  -21.0825  -50.8641 H         1 UNK         0.0600 
    210 H210       -3.0573  -24.9333  -49.6443 H         1 UNK         0.3000 
    211 H211       -5.4194  -25.3671  -51.0733 H         1 UNK         0.0600 
    212 H212       -3.9776  -27.2178  -49.1021 H         1 UNK         0.0600 
    213 H213       -5.6598  -27.3695  -49.5923 H         1 UNK         0.0600 
    214 H214       -5.1395  -25.9593  -48.6853 H         1 UNK         0.0600 
    215 H215       -5.8520  -26.3682  -52.9019 H         1 UNK         0.3000 
    216 H216       -5.8020  -27.5360  -54.7585 H         1 UNK         0.0600 
    217 H217       -5.0613  -29.8719  -54.7731 H         1 UNK         0.0600 
    218 H218       -5.8500  -29.5367  -53.2418 H         1 UNK         0.0600 
    219 H219       -4.0914  -29.6340  -53.3281 H         1 UNK         0.0600 
    220 H220       -3.5746  -25.5820  -54.1136 H         1 UNK         0.3000 
    221 H221       -1.8605  -26.1769  -56.4758 H         1 UNK         0.0600 
    222 H222       -0.9440  -25.1112  -53.7403 H         1 UNK         0.0600 
    223 H223       -0.5077  -26.6497  -54.4630 H         1 UNK         0.0600 
    224 H224        0.0484  -25.1590  -55.2003 H         1 UNK         0.0600 
    225 H225       -1.2431  -23.3199  -54.7103 H         1 UNK         0.3000 
    226 H226       -2.1099  -21.6191  -56.8341 H         1 UNK         0.0600 
    227 H227       -0.1434  -21.1006  -55.4354 H         1 UNK         0.0600 
    228 H228       -1.3180  -19.8040  -55.2937 H         1 UNK         0.0600 
    229 H229       -1.1482  -20.9765  -53.9932 H         1 UNK         0.0600 
    230 H230       -3.7088  -22.6902  -53.9031 H         1 UNK         0.3000 
    231 H231       -5.6516  -22.3916  -52.9581 H         1 UNK         0.0600 
    232 H232       -7.6325  -21.9913  -54.3488 H         1 UNK         0.0600 
    233 H233       -6.4982  -22.9938  -55.2376 H         1 UNK         0.0600 
    234 H234       -6.6563  -21.2809  -55.6261 H         1 UNK         0.0600 
    235 H235       -3.7377  -20.0760  -53.0041 H         1 UNK         0.3000 
    236 H236       -3.4236  -18.1526  -51.9831 H         1 UNK         0.0600 
    237 H237       -4.8330  -19.0881  -50.1324 H         1 UNK         0.0600 
    238 H238       -4.9921  -17.3465  -50.2365 H         1 UNK         0.0600 
    239 H239       -6.2708  -18.3711  -50.8550 H         1 UNK         0.0600 
    240 H240       -4.6500  -15.7924  -51.5851 H         1 UNK         0.3000 
    241 H241       -5.0513  -14.8059  -54.2822 H         1 UNK         0.0600 
    242 H242       -8.7451  -15.2620  -52.8136 H         1 UNK         0.3800 
    243 H243       -7.3768  -16.1290  -52.1674 H         1 UNK         0.3800 
    244 H244       -3.6262  -13.5051  -52.8823 H         1 UNK         0.0800 
    245 H245       -5.0221  -12.5549  -53.2585 H         1 UNK         0.0800 
    246 H246       -2.6847  -12.4336  -50.8769 H         1 UNK         0.0800 
    247 H247       -3.3223  -12.6326  -49.2658 H         1 UNK         0.0800 
@<TRIPOS>BOND
     1    1    2 1    
     2    1  127 1    
     3    1  128 1    
     4    1  129 1    
     5    2    3 2    
     6    2    4 am   BACKBONE|DICT|INTERRES
     7    4    5 1    
     8    4  130 1    
     9    5    6 1    
    10    5   65 1    
    11    5  131 1    
    12    6    7 1    
    13    6  132 1    
    14    6  133 1    
    15    7    8 1    
    16    8    9 1    
    17    8  134 1    
    18    8  135 1    
    19    9   10 ar   
    20    9   14 ar   
    21   10   11 ar   
    22   10  136 1    
    23   11   12 ar   
    24   11  126 1    
    25   12   13 ar   
    26   12  137 1    
    27   13   14 ar   
    28   13   15 1    
    29   14  138 1    
    30   15   16 1    
    31   15  139 1    
    32   15  140 1    
    33   16   17 1    
    34   17   18 1    
    35   17  141 1    
    36   17  142 1    
    37   18   19 1    
    38   18   67 1    
    39   18  143 1    
    40   19   20 am   BACKBONE|DICT|INTERRES
    41   19  144 1    
    42   20   21 2    
    43   20   22 1    
    44   22   23 1    
    45   22   24 1    
    46   22  145 1    
    47   23  146 1    
    48   23  147 1    
    49   23  148 1    
    50   24   25 am   BACKBONE|DICT|INTERRES
    51   24  149 1    
    52   25   26 2    
    53   25   27 1    
    54   27   28 1    
    55   27   29 1    
    56   27  150 1    
    57   28  151 1    
    58   28  152 1    
    59   28  153 1    
    60   29   30 am   BACKBONE|DICT|INTERRES
    61   29  154 1    
    62   30   31 2    
    63   30   32 1    
    64   32   33 1    
    65   32   34 1    
    66   32  155 1    
    67   33  156 1    
    68   33  157 1    
    69   33  158 1    
    70   34   35 am   BACKBONE|DICT|INTERRES
    71   34  159 1    
    72   35   36 2    
    73   35   37 1    
    74   37   38 1    
    75   37   39 1    
    76   37  160 1    
    77   38  161 1    
    78   38  162 1    
    79   38  163 1    
    80   39   40 am   BACKBONE|DICT|INTERRES
    81   39  164 1    
    82   40   41 2    
    83   40   42 1    
    84   42   43 1    
    85   42   44 1    
    86   42  165 1    
    87   43  166 1    
    88   43  167 1    
    89   43  168 1    
    90   44   45 am   BACKBONE|DICT|INTERRES
    91   44  169 1    
    92   45   46 2    
    93   45   47 1    
    94   47   48 1    
    95   47   49 1    
    96   47  170 1    
    97   48  171 1    
    98   48  172 1    
    99   48  173 1    
   100   49   50 am   BACKBONE|DICT|INTERRES
   101   49  174 1    
   102   50   51 2    
   103   50   52 1    
   104   52   53 1    
   105   52   54 1    
   106   52  175 1    
   107   53  176 1    
   108   53  177 1    
   109   53  178 1    
   110   54   55 am   BACKBONE|DICT|INTERRES
   111   54  179 1    
   112   55   56 2    
   113   55   57 1    
   114   57   58 1    
   115   57   59 1    
   116   57  180 1    
   117   58  181 1    
   118   58  182 1    
   119   58  183 1    
   120   59   60 am   BACKBONE|DICT|INTERRES
   121   59  184 1    
   122   60   61 2    
   123   60   62 1    
   124   62   63 1    
   125   62   64 1    
   126   62  185 1    
   127   63  186 1    
   128   63  187 1    
   129   63  188 1    
   130   64   65 am   BACKBONE|DICT|INTERRES
   131   64  189 1    
   132   65   66 2    
   133   67   68 2    
   134   67   69 am   BACKBONE|DICT|INTERRES
   135   69   70 1    
   136   69  190 1    
   137   70   71 1    
   138   70   72 1    
   139   70  191 1    
   140   71  192 1    
   141   71  193 1    
   142   71  194 1    
   143   72   73 2    
   144   72   74 am   BACKBONE|DICT|INTERRES
   145   74   75 1    
   146   74  195 1    
   147   75   76 1    
   148   75   77 1    
   149   75  196 1    
   150   76  197 1    
   151   76  198 1    
   152   76  199 1    
   153   77   78 2    
   154   77   79 am   BACKBONE|DICT|INTERRES
   155   79   80 1    
   156   79  200 1    
   157   80   81 1    
   158   80   82 1    
   159   80  201 1    
   160   81  202 1    
   161   81  203 1    
   162   81  204 1    
   163   82   83 2    
   164   82   84 am   BACKBONE|DICT|INTERRES
   165   84   85 1    
   166   84  205 1    
   167   85   86 1    
   168   85   87 1    
   169   85  206 1    
   170   86  207 1    
   171   86  208 1    
   172   86  209 1    
   173   87   88 2    
   174   87   89 am   BACKBONE|DICT|INTERRES
   175   89   90 1    
   176   89  210 1    
   177   90   91 1    
   178   90   92 1    
   179   90  211 1    
   180   91  212 1    
   181   91  213 1    
   182   91  214 1    
   183   92   93 2    
   184   92   94 am   BACKBONE|DICT|INTERRES
   185   94   95 1    
   186   94  215 1    
   187   95   96 1    
   188   95   97 1    
   189   95  216 1    
   190   96  217 1    
   191   96  218 1    
   192   96  219 1    
   193   97   98 2    
   194   97   99 am   BACKBONE|DICT|INTERRES
   195   99  100 1    
   196   99  220 1    
   197  100  101 1    
   198  100  102 1    
   199  100  221 1    
   200  101  222 1    
   201  101  223 1    
   202  101  224 1    
   203  102  103 2    
   204  102  104 am   BACKBONE|DICT|INTERRES
   205  104  105 1    
   206  104  225 1    
   207  105  106 1    
   208  105  107 1    
   209  105  226 1    
   210  106  227 1    
   211  106  228 1    
   212  106  229 1    
   213  107  108 2    
   214  107  109 am   BACKBONE|DICT|INTERRES
   215  109  110 1    
   216  109  230 1    
   217  110  111 1    
   218  110  112 1    
   219  110  231 1    
   220  111  232 1    
   221  111  233 1    
   222  111  234 1    
   223  112  113 2    
   224  112  114 am   BACKBONE|DICT|INTERRES
   225  114  115 1    
   226  114  235 1    
   227  115  116 1    
   228  115  117 1    
   229  115  236 1    
   230  116  237 1    
   231  116  238 1    
   232  116  239 1    
   233  117  118 2    
   234  117  119 am   BACKBONE|DICT|INTERRES
   235  119  120 1    
   236  119  240 1    
   237  120  121 1    
   238  120  124 1    
   239  120  241 1    
   240  121  122 am   BACKBONE|DICT|INTERRES
   241  121  123 2    
   242  122  242 1    
   243  122  243 1    
   244  124  125 1    
   245  124  244 1    
   246  124  245 1    
   247  125  126 1    
   248  126  246 1    
   249  126  247 1    
@<TRIPOS>SUBSTRUCTURE
     1 UNK         1 GROUP             0       ****    0 ROOT    
