@<TRIPOS>MOLECULE
3R540
247   249    1
SMALL
USER_CHARGES


@<TRIPOS>ATOM
      1 CA         -2.3369  -10.6856  -43.5407 C.3       0 UNK        -0.1800 
      2 C          -1.4863  -11.2478  -44.6710 C.2       0 UNK         0.5000 
      3 O          -0.3105  -11.5379  -44.4563 O.2       0 UNK        -0.5000 
      4 N          -2.0843  -11.4110  -45.8604 N.am      1 UNK        -0.5000 
      5 CA         -1.4721  -11.9145  -47.0988 C.3       1 UNK         0.1400 
      6 C6         -0.7970  -13.3057  -46.9142 C.3       23 UNK        -0.0398 
      7 S7         -0.8188  -14.3273  -48.4312 S.3       23 UNK        -0.2404 
      8 C8         -1.3703  -15.9139  -47.7439 C.3       23 UNK        -0.0205 
      9 C9         -1.7252  -16.9270  -48.8185 C.ar      23 UNK        -0.0193 
     10 C10        -2.9511  -16.8336  -49.4807 C.ar      23 UNK        -0.1150 
     11 C11        -3.3218  -17.7719  -50.4479 C.ar      23 UNK        -0.0193 
     12 C12        -2.4475  -18.8308  -50.7312 C.ar      23 UNK        -0.1150 
     13 C13        -1.2098  -18.9267  -50.0876 C.ar      23 UNK        -0.0193 
     14 C14        -0.8538  -17.9735  -49.1290 C.ar      23 UNK        -0.1150 
     15 C15        -0.2468  -20.0459  -50.4527 C.3       23 UNK        -0.0205 
     16 S16        -0.7598  -21.6495  -49.7613 S.3       23 UNK        -0.2404 
     17 C17        -0.5797  -21.3242  -47.9777 C.3       23 UNK        -0.0398 
     18 CA         -0.4914  -22.6145  -47.1285 C.3       11 UNK         0.1400 
     19 N           0.2047  -22.3797  -45.8609 N.am      11 UNK        -0.5000 
     20 C           0.6005  -23.3365  -45.0110 C.2       10 UNK         0.5000 
     21 O           0.4253  -24.5377  -45.2078 O.2       10 UNK        -0.5000 
     22 CA          1.2624  -22.8763  -43.6999 C.3       10 UNK         0.1400 
     23 CB          2.7211  -22.4594  -43.9377 C.3       10 UNK        -0.1800 
     24 N           0.5322  -21.7857  -43.0534 N.am      10 UNK        -0.5000 
     25 C          -0.7189  -21.8908  -42.5822 C.2       9 UNK         0.5000 
     26 O          -1.3754  -22.9316  -42.6106 O.2       9 UNK        -0.5000 
     27 CA         -1.3646  -20.6069  -42.0311 C.3       9 UNK         0.1400 
     28 CB         -0.8707  -20.3090  -40.6076 C.3       9 UNK        -0.1800 
     29 N          -1.1278  -19.4440  -42.8858 N.am      9 UNK        -0.5000 
     30 C          -1.5384  -19.3361  -44.1575 C.2       8 UNK         0.5000 
     31 O          -2.1882  -20.1973  -44.7488 O.2       8 UNK        -0.5000 
     32 CA         -1.0968  -18.0745  -44.9150 C.3       8 UNK         0.1400 
     33 CB         -1.9178  -16.8541  -44.4637 C.3       8 UNK        -0.1800 
     34 N           0.3339  -17.8046  -44.7548 N.am      8 UNK        -0.5000 
     35 C           1.3160  -18.6416  -45.1226 C.2       7 UNK         0.5000 
     36 O           1.1238  -19.7084  -45.7006 O.2       7 UNK        -0.5000 
     37 CA          2.7505  -18.2564  -44.7270 C.3       7 UNK         0.1400 
     38 CB          3.3737  -17.3045  -45.7580 C.3       7 UNK        -0.1800 
     39 N           2.8007  -17.6588  -43.3938 N.am      7 UNK        -0.5000 
     40 C           2.5708  -18.3341  -42.2578 C.2       6 UNK         0.5000 
     41 O           2.3507  -19.5447  -42.2133 O.2       6 UNK        -0.5000 
     42 CA          2.5305  -17.5030  -40.9623 C.3       6 UNK         0.1400 
     43 CB          3.9492  -17.2682  -40.4230 C.3       6 UNK        -0.1800 
     44 N           1.8638  -16.2139  -41.1557 N.am      6 UNK        -0.5000 
     45 C           0.5588  -16.0726  -41.4295 C.2       5 UNK         0.5000 
     46 O          -0.2324  -17.0145  -41.4679 O.2       5 UNK        -0.5000 
     47 CA          0.0695  -14.6504  -41.7685 C.3       5 UNK         0.1400 
     48 CB         -0.4012  -13.9210  -40.5022 C.3       5 UNK        -0.1800 
     49 N           1.0873  -13.8411  -42.4459 N.am      5 UNK        -0.5000 
     50 C           1.5666  -14.1010  -43.6687 C.2       4 UNK         0.5000 
     51 O           1.1879  -15.0491  -44.3625 O.2       4 UNK        -0.5000 
     52 CA          2.6952  -13.1912  -44.1729 C.3       4 UNK         0.1400 
     53 CB          4.0165  -13.5219  -43.4516 C.3       4 UNK        -0.1800 
     54 N           2.8517  -13.3898  -45.6099 N.am      4 UNK        -0.5000 
     55 C           3.4688  -12.5580  -46.4566 C.2       3 UNK         0.5000 
     56 O           4.0057  -11.5062  -46.1070 O.2       3 UNK        -0.5000 
     57 CA          3.4840  -12.9586  -47.9455 C.3       3 UNK         0.1400 
     58 CB          3.3923  -14.4804  -48.1754 C.3       3 UNK        -0.1800 
     59 N           2.3748  -12.3137  -48.6393 N.am      3 UNK        -0.5000 
     60 C           2.3706  -11.0633  -49.1244 C.2       2 UNK         0.5000 
     61 O           3.3581  -10.3284  -49.1493 O.2       2 UNK        -0.5000 
     62 CA          1.0223  -10.5465  -49.6692 C.3       2 UNK         0.1400 
     63 CB          0.9156  -10.8015  -51.1805 C.3       2 UNK        -0.1800 
     64 N          -0.1093  -11.1857  -48.9939 N.am      2 UNK        -0.5000 
     65 C          -0.5017  -10.8971  -47.7464 C.2       1 UNK         0.5000 
     66 O          -0.1067   -9.9051  -47.1289 O.2       1 UNK        -0.5000 
     67 C          -1.8774  -23.2577  -46.9147 C.2       11 UNK         0.5000 
     68 O          -2.2282  -24.1984  -47.6284 O.2       11 UNK        -0.5000 
     69 N          -2.6265  -22.7788  -45.9120 N.am      12 UNK        -0.5000 
     70 CA         -3.9167  -23.3358  -45.5040 C.3       12 UNK         0.1400 
     71 CB         -4.5750  -22.4080  -44.4729 C.3       12 UNK        -0.1800 
     72 C          -3.8090  -24.7702  -44.9534 C.2       12 UNK         0.5000 
     73 O          -4.7053  -25.5769  -45.1974 O.2       12 UNK        -0.5000 
     74 N          -2.7186  -25.0695  -44.2369 N.am      13 UNK        -0.5000 
     75 CA         -2.4355  -26.3962  -43.6966 C.3       13 UNK         0.1400 
     76 CB         -1.4031  -26.2798  -42.5637 C.3       13 UNK        -0.1800 
     77 C          -1.9567  -27.3834  -44.7762 C.2       13 UNK         0.5000 
     78 O          -2.4926  -28.4887  -44.8664 O.2       13 UNK        -0.5000 
     79 N          -0.9383  -26.9849  -45.5496 N.am      14 UNK        -0.5000 
     80 CA         -0.2240  -27.8659  -46.4722 C.3       14 UNK         0.1400 
     81 CB          1.2069  -27.3411  -46.6727 C.3       14 UNK        -0.1800 
     82 C          -0.9269  -28.0324  -47.8279 C.2       14 UNK         0.5000 
     83 O          -1.0552  -29.1611  -48.3046 O.2       14 UNK        -0.5000 
     84 N          -1.3337  -26.9139  -48.4404 N.am      15 UNK        -0.5000 
     85 CA         -1.8474  -26.8720  -49.8126 C.3       15 UNK         0.1400 
     86 CB         -1.1609  -25.7116  -50.5537 C.3       15 UNK        -0.1800 
     87 C          -3.3761  -26.7150  -49.8770 C.2       15 UNK         0.5000 
     88 O          -3.9515  -26.9419  -50.9417 O.2       15 UNK        -0.5000 
     89 N          -3.9968  -26.3187  -48.7549 N.am      16 UNK        -0.5000 
     90 CA         -5.3839  -25.8548  -48.6329 C.3       16 UNK         0.1400 
     91 CB         -6.3952  -26.9679  -48.9809 C.3       16 UNK        -0.1800 
     92 C          -5.6054  -24.5434  -49.4156 C.2       16 UNK         0.5000 
     93 O          -6.6217  -24.3885  -50.0953 O.2       16 UNK        -0.5000 
     94 N          -4.6240  -23.6337  -49.3040 N.am      17 UNK        -0.5000 
     95 CA         -4.4767  -22.3908  -50.0646 C.3       17 UNK         0.1400 
     96 CB         -5.6206  -21.3990  -49.7566 C.3       17 UNK        -0.1800 
     97 C          -4.2624  -22.6888  -51.5649 C.2       17 UNK         0.5000 
     98 O          -3.5290  -23.6225  -51.8901 O.2       17 UNK        -0.5000 
     99 N          -4.8694  -21.8865  -52.4499 N.am      18 UNK        -0.5000 
    100 CA        -4.9513  -22.0227  -53.9138 C.3       18 UNK         0.1400 
    101 CB        -5.6939  -23.3200  -54.2898 C.3       18 UNK        -0.1800 
    102 C         -3.6266  -21.8986  -54.7012 C.2       18 UNK         0.5000 
    103 O         -3.6752  -21.7496  -55.9223 O.2       18 UNK        -0.5000 
    104 N         -2.4746  -21.9617  -54.0235 N.am      19 UNK        -0.5000 
    105 CA        -1.1441  -21.9178  -54.6332 C.3       19 UNK         0.1400 
    106 CB        -0.1453  -22.6050  -53.6886 C.3       19 UNK        -0.1800 
    107 C         -0.6723  -20.4964  -55.0040 C.2       19 UNK         0.5000 
    108 O          0.2812  -20.3684  -55.7741 O.2       19 UNK        -0.5000 
    109 N         -1.3289  -19.4642  -54.4581 N.am      20 UNK        -0.5000 
    110 CA        -1.0801  -18.0535  -54.7626 C.3       20 UNK         0.1400 
    111 CB        -1.0171  -17.2603  -53.4429 C.3       20 UNK        -0.1800 
    112 C         -2.1576  -17.5201  -55.7299 C.2       20 UNK         0.5000 
    113 O         -2.7428  -18.2939  -56.4914 O.2       20 UNK        -0.5000 
    114 N         -2.4262  -16.2067  -55.6756 N.am      21 UNK        -0.5000 
    115 CA        -3.4285  -15.4979  -56.4848 C.3       21 UNK         0.1400 
    116 CB        -3.3310  -13.9937  -56.1873 C.3       21 UNK        -0.1800 
    117 C         -4.8776  -15.9944  -56.2866 C.2       21 UNK         0.5000 
    118 O         -5.7171  -15.7902  -57.1642 O.2       21 UNK        -0.5000 
    119 N         -5.1308  -16.6587  -55.1535 N.am      22 UNK        -0.5000 
    120 CA        -6.3395  -17.4411  -54.8600 C.3       22 UNK         0.1400 
    121 C         -6.5321  -18.7151  -55.7388 C.2       22 UNK         0.5000 
    122 N         -5.5316  -19.1852  -56.4740 N.am      22 UNK        -0.7600 
    123 O         -7.6184  -19.2871  -55.7542 O.2       22 UNK        -0.5000 
    124 C124       -6.4293  -17.7832  -53.3485 C.3       23 UNK        -0.0398 
    125 S125       -4.8998  -18.5409  -52.6846 S.3       23 UNK        -0.2404 
    126 C126       -4.6677  -17.5825  -51.1494 C.3       23 UNK        -0.0205 
    127 H127       -3.3635  -10.5000  -43.8574 H         1 UNK         0.0600 
    128 H128       -1.9142   -9.7455  -43.1864 H         1 UNK         0.0600 
    129 H129       -2.3596  -11.3863  -42.7059 H         1 UNK         0.0600 
    130 H130       -3.0477  -11.1212  -45.9554 H         1 UNK         0.3000 
    131 H131       -2.3097  -12.0280  -47.7891 H         1 UNK         0.0600 
    132 H132        0.2298  -13.2078  -46.5614 H         1 UNK         0.0800 
    133 H133       -1.3132  -13.8541  -46.1259 H         1 UNK         0.0800 
    134 H134       -0.5773  -16.2973  -47.1018 H         1 UNK         0.0800 
    135 H135       -2.2474  -15.7541  -47.1160 H         1 UNK         0.0800 
    136 H136       -3.6201  -16.0185  -49.2417 H         1 UNK         0.1150 
    137 H137       -2.7078  -19.5786  -51.4646 H         1 UNK         0.1150 
    138 H138        0.0982  -18.0482  -48.6221 H         1 UNK         0.1150 
    139 H139       -0.1931  -20.1227  -51.5387 H         1 UNK         0.0800 
    140 H140        0.7651  -19.8125  -50.1178 H         1 UNK         0.0800 
    141 H141       -1.3822  -20.6680  -47.6347 H         1 UNK         0.0800 
    142 H142        0.3424  -20.7545  -47.8668 H         1 UNK         0.0800 
    143 H143        0.1158  -23.3382  -47.6771 H         1 UNK         0.0600 
    144 H144        0.4196  -21.4096  -45.6399 H         1 UNK         0.3000 
    145 H145        1.2629  -23.7263  -43.0144 H         1 UNK         0.0600 
    146 H146        3.2136  -22.1978  -43.0010 H         1 UNK         0.0600 
    147 H147        3.2904  -23.2728  -44.3892 H         1 UNK         0.0600 
    148 H148        2.7925  -21.5997  -44.6038 H         1 UNK         0.0600 
    149 H149        1.0211  -20.9017  -42.9570 H         1 UNK         0.3000 
    150 H150       -2.4432  -20.7711  -41.9888 H         1 UNK         0.0600 
    151 H151       -1.0583  -21.1542  -39.9443 H         1 UNK         0.0600 
    152 H152       -1.3832  -19.4438  -40.1865 H         1 UNK         0.0600 
    153 H153        0.2000  -20.1046  -40.5858 H         1 UNK         0.0600 
    154 H154       -0.6292  -18.6642  -42.4674 H         1 UNK         0.3000 
    155 H155       -1.2811  -18.2461  -45.9769 H         1 UNK         0.0600 
    156 H156       -1.9707  -16.7721  -43.3789 H         1 UNK         0.0600 
    157 H157       -2.9427  -16.9258  -44.8289 H         1 UNK         0.0600 
    158 H158       -1.4980  -15.9217  -44.8379 H         1 UNK         0.0600 
    159 H159        0.5901  -16.9136  -44.3418 H         1 UNK         0.3000 
    160 H160        3.3494  -19.1694  -44.7102 H         1 UNK         0.0600 
    161 H161        2.8018  -16.3844  -45.8582 H         1 UNK         0.0600 
    162 H162        3.4108  -17.7714  -46.7430 H         1 UNK         0.0600 
    163 H163        4.3950  -17.0381  -45.4856 H         1 UNK         0.0600 
    164 H164        2.9235  -16.6592  -43.3484 H         1 UNK         0.3000 
    165 H165        1.9693  -18.0713  -40.2174 H         1 UNK         0.0600 
    166 H166        3.9256  -16.7412  -39.4690 H         1 UNK         0.0600 
    167 H167        4.4645  -18.2153  -40.2572 H         1 UNK         0.0600 
    168 H168        4.5542  -16.6819  -41.1159 H         1 UNK         0.0600 
    169 H169        2.4431  -15.3883  -41.1283 H         1 UNK         0.3000 
    170 H170       -0.7844  -14.7465  -42.4421 H         1 UNK         0.0600 
    171 H171       -1.1774  -14.4910  -39.9897 H         1 UNK         0.0600 
    172 H172        0.4161  -13.7697  -39.7959 H         1 UNK         0.0600 
    173 H173       -0.8226  -12.9449  -40.7440 H         1 UNK         0.0600 
    174 H174        1.4351  -13.0381  -41.9422 H         1 UNK         0.3000 
    175 H175        2.4130  -12.1539  -43.9812 H         1 UNK         0.0600 
    176 H176        4.3292  -14.5500  -43.6388 H         1 UNK         0.0600 
    177 H177        4.8227  -12.8653  -43.7785 H         1 UNK         0.0600 
    178 H178        3.9223  -13.3965  -42.3725 H         1 UNK         0.0600 
    179 H179        2.3899  -14.2201  -45.9571 H         1 UNK         0.3000 
    180 H180        4.4297  -12.6132  -48.3687 H         1 UNK         0.0600 
    181 H181        2.4283  -14.8900  -47.8710 H         1 UNK         0.0600 
    182 H182        4.1723  -15.0077  -47.6246 H         1 UNK         0.0600 
    183 H183        3.5285  -14.7203  -49.2301 H         1 UNK         0.0600 
    184 H184        1.5114  -12.8339  -48.6733 H         1 UNK         0.3000 
    185 H185        0.9785   -9.4687  -49.4985 H         1 UNK         0.0600 
    186 H186        1.7358  -10.3209  -51.7154 H         1 UNK         0.0600 
    187 H187        0.9505  -11.8664  -51.4141 H         1 UNK         0.0600 
    188 H188       -0.0141  -10.3993  -51.5833 H         1 UNK         0.0600 
    189 H189       -0.5025  -11.9989  -49.4486 H         1 UNK         0.3000 
    190 H190       -2.2996  -21.9681  -45.3912 H         1 UNK         0.3000 
    191 H191       -4.5601  -23.3677  -46.3851 H         1 UNK         0.0600 
    192 H192       -4.7397  -21.4133  -44.8875 H         1 UNK         0.0600 
    193 H193       -5.5456  -22.7950  -44.1604 H         1 UNK         0.0600 
    194 H194       -3.9596  -22.3000  -43.5791 H         1 UNK         0.0600 
    195 H195       -2.0516  -24.3358  -44.0255 H         1 UNK         0.3000 
    196 H196       -3.3551  -26.7966  -43.2642 H         1 UNK         0.0600 
    197 H197       -1.1725  -27.2589  -42.1420 H         1 UNK         0.0600 
    198 H198       -1.7801  -25.6569  -41.7524 H         1 UNK         0.0600 
    199 H199       -0.4668  -25.8417  -42.9106 H         1 UNK         0.0600 
    200 H200       -0.5398  -26.0580  -45.4080 H         1 UNK         0.3000 
    201 H201       -0.1460  -28.8557  -46.0167 H         1 UNK         0.0600 
    202 H202        1.7388  -27.2757  -45.7233 H         1 UNK         0.0600 
    203 H203        1.2149  -26.3499  -47.1280 H         1 UNK         0.0600 
    204 H204        1.7794  -28.0048  -47.3218 H         1 UNK         0.0600 
    205 H205       -1.2463  -26.0219  -47.9675 H         1 UNK         0.3000 
    206 H206       -1.5962  -27.7939  -50.3410 H         1 UNK         0.0600 
    207 H207       -0.0766  -25.8214  -50.5450 H         1 UNK         0.0600 
    208 H208       -1.4755  -25.6740  -51.5974 H         1 UNK         0.0600 
    209 H209       -1.4042  -24.7461  -50.1097 H         1 UNK         0.0600 
    210 H210       -3.4094  -26.1425  -47.9509 H         1 UNK         0.3000 
    211 H211       -5.5372  -25.6031  -47.5856 H         1 UNK         0.0600 
    212 H212       -6.3843  -27.2172  -50.0419 H         1 UNK         0.0600 
    213 H213       -7.4108  -26.6579  -48.7328 H         1 UNK         0.0600 
    214 H214       -6.1876  -27.8781  -48.4185 H         1 UNK         0.0600 
    215 H215       -3.8056  -23.8997  -48.7648 H         1 UNK         0.3000 
    216 H216       -3.5572  -21.9314  -49.7078 H         1 UNK         0.0600 
    217 H217       -5.4040  -20.4110  -50.1628 H         1 UNK         0.0600 
    218 H218       -5.7495  -21.2762  -48.6811 H         1 UNK         0.0600 
    219 H219       -6.5749  -21.7273  -50.1695 H         1 UNK         0.0600 
    220 H220       -5.3967  -21.1091  -52.0771 H         1 UNK         0.3000 
    221 H221       -5.5711  -21.1896  -54.2462 H         1 UNK         0.0600 
    222 H222       -5.1246  -24.2079  -54.0129 H         1 UNK         0.0600 
    223 H223       -6.6639  -23.3763  -53.7958 H         1 UNK         0.0600 
    224 H224       -5.8743  -23.3707  -55.3642 H         1 UNK         0.0600 
    225 H225       -2.5241  -22.1976  -53.0405 H         1 UNK         0.3000 
    226 H226       -1.1704  -22.4949  -55.5600 H         1 UNK         0.0600 
    227 H227       -0.4298  -23.6410  -53.5023 H         1 UNK         0.0600 
    228 H228        0.8576  -22.6163  -54.1173 H         1 UNK         0.0600 
    229 H229       -0.0849  -22.1008  -52.7259 H         1 UNK         0.0600 
    230 H230       -2.1407  -19.6669  -53.8945 H         1 UNK         0.3000 
    231 H231       -0.1173  -17.9400  -55.2642 H         1 UNK         0.0600 
    232 H232       -1.9969  -17.1806  -52.9724 H         1 UNK         0.0600 
    233 H233       -0.6438  -16.2485  -53.6028 H         1 UNK         0.0600 
    234 H234       -0.3413  -17.7336  -52.7306 H         1 UNK         0.0600 
    235 H235       -1.9075  -15.6402  -55.0202 H         1 UNK         0.3000 
    236 H236       -3.1755  -15.6571  -57.5349 H         1 UNK         0.0600 
    237 H237       -2.3361  -13.6095  -56.4130 H         1 UNK         0.0600 
    238 H238       -4.0405  -13.4280  -56.7928 H         1 UNK         0.0600 
    239 H239       -3.5470  -13.7767  -55.1404 H         1 UNK         0.0600 
    240 H240       -4.3750  -16.7772  -54.4959 H         1 UNK         0.3000 
    241 H241       -7.1915  -16.8005  -55.0948 H         1 UNK         0.0600 
    242 H242       -5.6714  -20.0160  -57.0257 H         1 UNK         0.3800 
    243 H243       -4.6098  -18.7587  -56.4553 H         1 UNK         0.3800 
    244 H244       -6.6434  -16.8673  -52.7967 H         1 UNK         0.0800 
    245 H245       -7.2711  -18.4461  -53.1406 H         1 UNK         0.0800 
    246 H246       -5.4670  -17.8352  -50.4516 H         1 UNK         0.0800 
    247 H247       -4.7829  -16.5241  -51.3883 H         1 UNK         0.0800 
@<TRIPOS>BOND
     1    1    2 1    
     2    1  127 1    
     3    1  128 1    
     4    1  129 1    
     5    2    3 2    
     6    2    4 am   BACKBONE|DICT|INTERRES
     7    4    5 1    
     8    4  130 1    
     9    5    6 1    
    10    5   65 1    
    11    5  131 1    
    12    6    7 1    
    13    6  132 1    
    14    6  133 1    
    15    7    8 1    
    16    8    9 1    
    17    8  134 1    
    18    8  135 1    
    19    9   10 ar   
    20    9   14 ar   
    21   10   11 ar   
    22   10  136 1    
    23   11   12 ar   
    24   11  126 1    
    25   12   13 ar   
    26   12  137 1    
    27   13   14 ar   
    28   13   15 1    
    29   14  138 1    
    30   15   16 1    
    31   15  139 1    
    32   15  140 1    
    33   16   17 1    
    34   17   18 1    
    35   17  141 1    
    36   17  142 1    
    37   18   19 1    
    38   18   67 1    
    39   18  143 1    
    40   19   20 am   BACKBONE|DICT|INTERRES
    41   19  144 1    
    42   20   21 2    
    43   20   22 1    
    44   22   23 1    
    45   22   24 1    
    46   22  145 1    
    47   23  146 1    
    48   23  147 1    
    49   23  148 1    
    50   24   25 am   BACKBONE|DICT|INTERRES
    51   24  149 1    
    52   25   26 2    
    53   25   27 1    
    54   27   28 1    
    55   27   29 1    
    56   27  150 1    
    57   28  151 1    
    58   28  152 1    
    59   28  153 1    
    60   29   30 am   BACKBONE|DICT|INTERRES
    61   29  154 1    
    62   30   31 2    
    63   30   32 1    
    64   32   33 1    
    65   32   34 1    
    66   32  155 1    
    67   33  156 1    
    68   33  157 1    
    69   33  158 1    
    70   34   35 am   BACKBONE|DICT|INTERRES
    71   34  159 1    
    72   35   36 2    
    73   35   37 1    
    74   37   38 1    
    75   37   39 1    
    76   37  160 1    
    77   38  161 1    
    78   38  162 1    
    79   38  163 1    
    80   39   40 am   BACKBONE|DICT|INTERRES
    81   39  164 1    
    82   40   41 2    
    83   40   42 1    
    84   42   43 1    
    85   42   44 1    
    86   42  165 1    
    87   43  166 1    
    88   43  167 1    
    89   43  168 1    
    90   44   45 am   BACKBONE|DICT|INTERRES
    91   44  169 1    
    92   45   46 2    
    93   45   47 1    
    94   47   48 1    
    95   47   49 1    
    96   47  170 1    
    97   48  171 1    
    98   48  172 1    
    99   48  173 1    
   100   49   50 am   BACKBONE|DICT|INTERRES
   101   49  174 1    
   102   50   51 2    
   103   50   52 1    
   104   52   53 1    
   105   52   54 1    
   106   52  175 1    
   107   53  176 1    
   108   53  177 1    
   109   53  178 1    
   110   54   55 am   BACKBONE|DICT|INTERRES
   111   54  179 1    
   112   55   56 2    
   113   55   57 1    
   114   57   58 1    
   115   57   59 1    
   116   57  180 1    
   117   58  181 1    
   118   58  182 1    
   119   58  183 1    
   120   59   60 am   BACKBONE|DICT|INTERRES
   121   59  184 1    
   122   60   61 2    
   123   60   62 1    
   124   62   63 1    
   125   62   64 1    
   126   62  185 1    
   127   63  186 1    
   128   63  187 1    
   129   63  188 1    
   130   64   65 am   BACKBONE|DICT|INTERRES
   131   64  189 1    
   132   65   66 2    
   133   67   68 2    
   134   67   69 am   BACKBONE|DICT|INTERRES
   135   69   70 1    
   136   69  190 1    
   137   70   71 1    
   138   70   72 1    
   139   70  191 1    
   140   71  192 1    
   141   71  193 1    
   142   71  194 1    
   143   72   73 2    
   144   72   74 am   BACKBONE|DICT|INTERRES
   145   74   75 1    
   146   74  195 1    
   147   75   76 1    
   148   75   77 1    
   149   75  196 1    
   150   76  197 1    
   151   76  198 1    
   152   76  199 1    
   153   77   78 2    
   154   77   79 am   BACKBONE|DICT|INTERRES
   155   79   80 1    
   156   79  200 1    
   157   80   81 1    
   158   80   82 1    
   159   80  201 1    
   160   81  202 1    
   161   81  203 1    
   162   81  204 1    
   163   82   83 2    
   164   82   84 am   BACKBONE|DICT|INTERRES
   165   84   85 1    
   166   84  205 1    
   167   85   86 1    
   168   85   87 1    
   169   85  206 1    
   170   86  207 1    
   171   86  208 1    
   172   86  209 1    
   173   87   88 2    
   174   87   89 am   BACKBONE|DICT|INTERRES
   175   89   90 1    
   176   89  210 1    
   177   90   91 1    
   178   90   92 1    
   179   90  211 1    
   180   91  212 1    
   181   91  213 1    
   182   91  214 1    
   183   92   93 2    
   184   92   94 am   BACKBONE|DICT|INTERRES
   185   94   95 1    
   186   94  215 1    
   187   95   96 1    
   188   95   97 1    
   189   95  216 1    
   190   96  217 1    
   191   96  218 1    
   192   96  219 1    
   193   97   98 2    
   194   97   99 am   BACKBONE|DICT|INTERRES
   195   99  100 1    
   196   99  220 1    
   197  100  101 1    
   198  100  102 1    
   199  100  221 1    
   200  101  222 1    
   201  101  223 1    
   202  101  224 1    
   203  102  103 2    
   204  102  104 am   BACKBONE|DICT|INTERRES
   205  104  105 1    
   206  104  225 1    
   207  105  106 1    
   208  105  107 1    
   209  105  226 1    
   210  106  227 1    
   211  106  228 1    
   212  106  229 1    
   213  107  108 2    
   214  107  109 am   BACKBONE|DICT|INTERRES
   215  109  110 1    
   216  109  230 1    
   217  110  111 1    
   218  110  112 1    
   219  110  231 1    
   220  111  232 1    
   221  111  233 1    
   222  111  234 1    
   223  112  113 2    
   224  112  114 am   BACKBONE|DICT|INTERRES
   225  114  115 1    
   226  114  235 1    
   227  115  116 1    
   228  115  117 1    
   229  115  236 1    
   230  116  237 1    
   231  116  238 1    
   232  116  239 1    
   233  117  118 2    
   234  117  119 am   BACKBONE|DICT|INTERRES
   235  119  120 1    
   236  119  240 1    
   237  120  121 1    
   238  120  124 1    
   239  120  241 1    
   240  121  122 am   BACKBONE|DICT|INTERRES
   241  121  123 2    
   242  122  242 1    
   243  122  243 1    
   244  124  125 1    
   245  124  244 1    
   246  124  245 1    
   247  125  126 1    
   248  126  246 1    
   249  126  247 1    
@<TRIPOS>SUBSTRUCTURE
     1 UNK         1 GROUP             0       ****    0 ROOT    
