@<TRIPOS>MOLECULE
3R540
247   249    1
SMALL
USER_CHARGES


@<TRIPOS>ATOM
      1 CA         -2.4491  -12.5675  -44.5317 C.3       0 UNK        -0.1800 
      2 C          -2.1576  -11.4324  -45.5029 C.2       0 UNK         0.5000 
      3 O          -2.3012  -10.2641  -45.1432 O.2       0 UNK        -0.5000 
      4 N          -1.7449  -11.7705  -46.7319 N.am      1 UNK        -0.5000 
      5 CA         -1.3689  -10.8154  -47.7855 C.3       1 UNK         0.1400 
      6 C6         -1.5093  -11.4321  -49.2004 C.3       23 UNK        -0.0398 
      7 S7         -0.4311  -12.8749  -49.5318 S.3       23 UNK        -0.2404 
      8 C8         -1.6184  -14.2509  -49.4580 C.3       23 UNK        -0.0205 
      9 C9         -1.0900  -15.4817  -50.1783 C.ar      23 UNK        -0.0193 
     10 C10        -1.5352  -15.7793  -51.4683 C.ar      23 UNK        -0.1150 
     11 C11        -1.0873  -16.9265  -52.1268 C.ar      23 UNK        -0.0193 
     12 C12        -0.1820  -17.7778  -51.4888 C.ar      23 UNK        -0.1150 
     13 C13         0.2682  -17.4979  -50.1943 C.ar      23 UNK        -0.0193 
     14 C14        -0.1799  -16.3379  -49.5521 C.ar      23 UNK        -0.1150 
     15 C15         1.2384  -18.4362  -49.4809 C.3       23 UNK        -0.0205 
     16 S16         0.8168  -20.2092  -49.6333 S.3       23 UNK        -0.2404 
     17 C17        -0.9458  -20.2377  -49.1654 C.3       23 UNK        -0.0398 
     18 CA         -1.3591  -21.5964  -48.5506 C.3       11 UNK         0.1400 
     19 N          -0.9363  -21.7235  -47.1522 N.am      11 UNK        -0.5000 
     20 C          -1.0920  -22.8167  -46.3946 C.2       10 UNK         0.5000 
     21 O          -1.5689  -23.8705  -46.8162 O.2       10 UNK        -0.5000 
     22 CA         -0.6851  -22.7073  -44.9133 C.3       10 UNK         0.1400 
     23 CB          0.8267  -22.9122  -44.7421 C.3       10 UNK        -0.1800 
     24 N          -1.1007  -21.4450  -44.2993 N.am      10 UNK        -0.5000 
     25 C          -2.3807  -21.0922  -44.1099 C.2       9 UNK         0.5000 
     26 O          -3.3327  -21.8128  -44.4024 O.2       9 UNK        -0.5000 
     27 CA         -2.6564  -19.6853  -43.5514 C.3       9 UNK         0.1400 
     28 CB         -2.4947  -19.6585  -42.0248 C.3       9 UNK        -0.1800 
     29 N          -1.8062  -18.6654  -44.1616 N.am      9 UNK        -0.5000 
     30 C          -1.8108  -18.3563  -45.4658 C.2       8 UNK         0.5000 
     31 O          -2.5900  -18.8473  -46.2843 O.2       8 UNK        -0.5000 
     32 CA         -0.7119  -17.3917  -45.9478 C.3       8 UNK         0.1400 
     33 CB         -1.0961  -15.9279  -45.6922 C.3       8 UNK        -0.1800 
     34 N           0.5959  -17.6773  -45.3518 N.am      8 UNK        -0.5000 
     35 C           1.2605  -18.8301  -45.5210 C.2       7 UNK         0.5000 
     36 O           0.8634  -19.7442  -46.2390 O.2       7 UNK        -0.5000 
     37 CA          2.5501  -19.0221  -44.7101 C.3       7 UNK         0.1400 
     38 CB          3.7421  -18.3383  -45.3961 C.3       7 UNK        -0.1800 
     39 N           2.3929  -18.5287  -43.3424 N.am      7 UNK        -0.5000 
     40 C           1.6518  -19.1460  -42.4099 C.2       6 UNK         0.5000 
     41 O           1.0790  -20.2192  -42.5977 O.2       6 UNK        -0.5000 
     42 CA          1.4889  -18.4283  -41.0565 C.3       6 UNK         0.1400 
     43 CB          2.6482  -18.7833  -40.1139 C.3       6 UNK        -0.1800 
     44 N           1.4045  -16.9737  -41.1935 N.am      6 UNK        -0.5000 
     45 C           0.3979  -16.3237  -41.7950 C.2       5 UNK         0.5000 
     46 O          -0.6006  -16.8827  -42.2459 O.2       5 UNK        -0.5000 
     47 CA          0.5613  -14.8025  -41.9745 C.3       5 UNK         0.1400 
     48 CB         -0.0461  -14.0441  -40.7863 C.3       5 UNK        -0.1800 
     49 N           1.9540  -14.3858  -42.1549 N.am      5 UNK        -0.5000 
     50 C           2.7447  -14.7596  -43.1686 C.2       4 UNK         0.5000 
     51 O           2.3747  -15.5244  -44.0617 O.2       4 UNK        -0.5000 
     52 CA          4.1764  -14.1804  -43.1714 C.3       4 UNK         0.1400 
     53 CB          5.0428  -14.7519  -44.3075 C.3       4 UNK        -0.1800 
     54 N           4.1603  -12.7226  -43.2825 N.am      4 UNK        -0.5000 
     55 C           3.8558  -11.8618  -42.3014 C.2       3 UNK         0.5000 
     56 O           3.6451  -12.2061  -41.1372 O.2       3 UNK        -0.5000 
     57 CA          3.7217  -10.3753  -42.6929 C.3       3 UNK         0.1400 
     58 CB          5.0183   -9.6166  -42.3718 C.3       3 UNK        -0.1800 
     59 N           3.3771  -10.1603  -44.1038 N.am      3 UNK        -0.5000 
     60 C           2.2477  -10.5795  -44.6910 C.2       2 UNK         0.5000 
     61 O           1.3534  -11.1901  -44.0973 O.2       2 UNK        -0.5000 
     62 CA          2.1146  -10.2951  -46.1954 C.3       2 UNK         0.1400 
     63 CB          3.1893  -11.0378  -47.0107 C.3       2 UNK        -0.1800 
     64 N           0.7984  -10.7418  -46.6267 N.am      2 UNK        -0.5000 
     65 C           0.0267  -10.1838  -47.5637 C.2       1 UNK         0.5000 
     66 O           0.3693   -9.2105  -48.2372 O.2       1 UNK        -0.5000 
     67 C          -2.8690  -21.8470  -48.7345 C.2       11 UNK         0.5000 
     68 O          -3.2552  -22.5144  -49.6981 O.2       11 UNK        -0.5000 
     69 N          -3.6760  -21.3169  -47.8076 N.am      12 UNK        -0.5000 
     70 CA         -5.1276  -21.4405  -47.7998 C.3       12 UNK         0.1400 
     71 CB         -5.7278  -20.2391  -47.0506 C.3       12 UNK        -0.1800 
     72 C          -5.6111  -22.7725  -47.1976 C.2       12 UNK         0.5000 
     73 O          -6.2548  -23.5543  -47.8965 O.2       12 UNK        -0.5000 
     74 N          -5.3430  -22.9860  -45.9029 N.am      13 UNK        -0.5000 
     75 CA         -5.9892  -24.0157  -45.0870 C.3       13 UNK         0.1400 
     76 CB         -6.1266  -23.5063  -43.6435 C.3       13 UNK        -0.1800 
     77 C          -5.2536  -25.3628  -45.1087 C.2       13 UNK         0.5000 
     78 O          -5.9135  -26.4026  -45.1102 O.2       13 UNK        -0.5000 
     79 N          -3.9130  -25.3355  -45.1368 N.am      14 UNK        -0.5000 
     80 CA         -3.0806  -26.5442  -45.2292 C.3       14 UNK         0.1400 
     81 CB         -1.7368  -26.3211  -44.5151 C.3       14 UNK        -0.1800 
     82 C          -2.8732  -27.0032  -46.6870 C.2       14 UNK         0.5000 
     83 O          -2.2516  -28.0428  -46.9093 O.2       14 UNK        -0.5000 
     84 N          -3.4051  -26.2261  -47.6422 N.am      15 UNK        -0.5000 
     85 CA         -3.4107  -26.4486  -49.0865 C.3       15 UNK         0.1400 
     86 CB         -4.1771  -27.7416  -49.4399 C.3       15 UNK        -0.1800 
     87 C          -2.0121  -26.3869  -49.7303 C.2       15 UNK         0.5000 
     88 O          -1.7983  -27.0084  -50.7731 O.2       15 UNK        -0.5000 
     89 N          -1.0905  -25.6023  -49.1477 N.am      16 UNK        -0.5000 
     90 CA          0.2725  -25.4176  -49.6669 C.3       16 UNK         0.1400 
     91 CB          1.1488  -24.7221  -48.6132 C.3       16 UNK        -0.1800 
     92 C           0.3251  -24.6760  -51.0215 C.2       16 UNK         0.5000 
     93 O           1.3182  -24.7994  -51.7386 O.2       16 UNK        -0.5000 
     94 N          -0.7570  -23.9654  -51.3647 N.am      17 UNK        -0.5000 
     95 CA         -1.0228  -23.4010  -52.6852 C.3       17 UNK         0.1400 
     96 CB         -0.7873  -21.8802  -52.6605 C.3       17 UNK        -0.1800 
     97 C          -2.4529  -23.7806  -53.1097 C.2       17 UNK         0.5000 
     98 O          -3.1860  -22.9351  -53.6237 O.2       17 UNK        -0.5000 
     99 N          -2.8414  -25.0373  -52.8420 N.am      18 UNK        -0.5000 
    100 CA        -4.1412  -25.6787  -53.0862 C.3       18 UNK         0.1400 
    101 CB        -4.4937  -25.6947  -54.5863 C.3       18 UNK        -0.1800 
    102 C         -5.2960  -25.1076  -52.2396 C.2       18 UNK         0.5000 
    103 O         -5.9342  -25.8565  -51.5016 O.2       18 UNK        -0.5000 
    104 N         -5.5287  -23.7992  -52.3529 N.am      19 UNK        -0.5000 
    105 CA        -6.5285  -23.0138  -51.6339 C.3       19 UNK         0.1400 
    106 CB        -7.9574  -23.4077  -52.0679 C.3       19 UNK        -0.1800 
    107 C         -6.2246  -21.5242  -51.8684 C.2       19 UNK         0.5000 
    108 O         -7.1113  -20.7666  -52.2651 O.2       19 UNK        -0.5000 
    109 N         -4.9504  -21.1493  -51.6738 N.am      20 UNK        -0.5000 
    110 CA        -4.3547  -19.8481  -52.0005 C.3       20 UNK         0.1400 
    111 CB        -4.8627  -18.7516  -51.0432 C.3       20 UNK        -0.1800 
    112 C         -4.5028  -19.4844  -53.4963 C.2       20 UNK         0.5000 
    113 O         -4.8364  -18.3486  -53.8361 O.2       20 UNK        -0.5000 
    114 N         -4.2286  -20.4654  -54.3636 N.am      21 UNK        -0.5000 
    115 CA        -4.2802  -20.3778  -55.8201 C.3       21 UNK         0.1400 
    116 CB        -5.1829  -21.5087  -56.3454 C.3       21 UNK        -0.1800 
    117 C         -2.8449  -20.4539  -56.3717 C.2       21 UNK         0.5000 
    118 O         -2.5015  -21.3739  -57.1158 O.2       21 UNK        -0.5000 
    119 N         -2.0186  -19.4889  -55.9546 N.am      22 UNK        -0.5000 
    120 CA        -0.5918  -19.3675  -56.2992 C.3       22 UNK         0.1400 
    121 C         -0.2983  -18.7996  -57.7206 C.2       22 UNK         0.5000 
    122 N         -1.2878  -18.3309  -58.4715 N.am      22 UNK        -0.7600 
    123 O          0.8494  -18.7998  -58.1575 O.2       22 UNK        -0.5000 
    124 C124        0.1948  -18.6165  -55.1893 C.3       23 UNK        -0.0398 
    125 S125       -0.4385  -16.9357  -54.8361 S.3       23 UNK        -0.2404 
    126 C126       -1.6295  -17.2715  -53.5017 C.3       23 UNK        -0.0205 
    127 H127       -2.5969  -13.5128  -45.0523 H         1 UNK         0.0600 
    128 H128       -3.3532  -12.3546  -43.9612 H         1 UNK         0.0600 
    129 H129       -1.6215  -12.6830  -43.8315 H         1 UNK         0.0600 
    130 H130       -1.6342  -12.7444  -46.9716 H         1 UNK         0.3000 
    131 H131       -2.0770   -9.9851  -47.7392 H         1 UNK         0.0600 
    132 H132       -2.5509  -11.7068  -49.3693 H         1 UNK         0.0800 
    133 H133       -1.2930  -10.6765  -49.9577 H         1 UNK         0.0800 
    134 H134       -2.5671  -13.9475  -49.9033 H         1 UNK         0.0800 
    135 H135       -1.8324  -14.4941  -48.4171 H         1 UNK         0.0800 
    136 H136       -2.2433  -15.1234  -51.9552 H         1 UNK         0.1150 
    137 H137        0.1603  -18.6700  -51.9923 H         1 UNK         0.1150 
    138 H138        0.1776  -16.0946  -48.5623 H         1 UNK         0.1150 
    139 H139        1.3010  -18.1856  -48.4227 H         1 UNK         0.0800 
    140 H140        2.2372  -18.2800  -49.8897 H         1 UNK         0.0800 
    141 H141       -1.5167  -20.0151  -50.0674 H         1 UNK         0.0800 
    142 H142       -1.1564  -19.4231  -48.4725 H         1 UNK         0.0800 
    143 H143       -0.8602  -22.3852  -49.1112 H         1 UNK         0.0600 
    144 H144       -0.4521  -20.9218  -46.7526 H         1 UNK         0.3000 
    145 H145       -1.1925  -23.5050  -44.3703 H         1 UNK         0.0600 
    146 H146        1.1351  -23.8785  -45.1432 H         1 UNK         0.0600 
    147 H147        1.1108  -22.8907  -43.6899 H         1 UNK         0.0600 
    148 H148        1.4022  -22.1457  -45.2599 H         1 UNK         0.0600 
    149 H149       -0.3645  -20.8171  -43.9970 H         1 UNK         0.3000 
    150 H150       -3.6930  -19.4344  -43.7857 H         1 UNK         0.0600 
    151 H151       -1.4723  -19.8837  -41.7224 H         1 UNK         0.0600 
    152 H152       -3.1469  -20.3931  -41.5509 H         1 UNK         0.0600 
    153 H153       -2.7557  -18.6812  -41.6183 H         1 UNK         0.0600 
    154 H154       -1.1768  -18.1642  -43.5406 H         1 UNK         0.3000 
    155 H155       -0.6206  -17.5357  -47.0233 H         1 UNK         0.0600 
    156 H156       -0.3406  -15.2456  -46.0827 H         1 UNK         0.0600 
    157 H157       -1.2168  -15.7226  -44.6290 H         1 UNK         0.0600 
    158 H158       -2.0406  -15.6873  -46.1812 H         1 UNK         0.0600 
    159 H159        1.0106  -16.9594  -44.7681 H         1 UNK         0.3000 
    160 H160        2.7628  -20.0923  -44.6643 H         1 UNK         0.0600 
    161 H161        3.5697  -17.2742  -45.5537 H         1 UNK         0.0600 
    162 H162        3.9274  -18.7821  -46.3751 H         1 UNK         0.0600 
    163 H163        4.6545  -18.4503  -44.8104 H         1 UNK         0.0600 
    164 H164        2.7726  -17.6142  -43.1440 H         1 UNK         0.3000 
    165 H165        0.5598  -18.7802  -40.6033 H         1 UNK         0.0600 
    166 H166        2.5042  -18.3412  -39.1279 H         1 UNK         0.0600 
    167 H167        2.7223  -19.8630  -39.9771 H         1 UNK         0.0600 
    168 H168        3.6060  -18.4349  -40.5024 H         1 UNK         0.0600 
    169 H169        2.1844  -16.4345  -40.8475 H         1 UNK         0.3000 
    170 H170        0.0141  -14.5175  -42.8750 H         1 UNK         0.0600 
    171 H171       -0.0111  -12.9665  -40.9491 H         1 UNK         0.0600 
    172 H172        0.4823  -14.2613  -39.8572 H         1 UNK         0.0600 
    173 H173       -1.0925  -14.3167  -40.6425 H         1 UNK         0.0600 
    174 H174        2.3284  -13.7203  -41.4868 H         1 UNK         0.3000 
    175 H175        4.6439  -14.4571  -42.2242 H         1 UNK         0.0600 
    176 H176        5.1311  -15.8353  -44.2227 H         1 UNK         0.0600 
    177 H177        4.6214  -14.5301  -45.2889 H         1 UNK         0.0600 
    178 H178        6.0532  -14.3438  -44.2765 H         1 UNK         0.0600 
    179 H179        4.2909  -12.3467  -44.2095 H         1 UNK         0.3000 
    180 H180        2.9182   -9.9522  -42.0864 H         1 UNK         0.0600 
    181 H181        5.8555   -9.9796  -42.9694 H         1 UNK         0.0600 
    182 H182        5.2897   -9.7331  -41.3217 H         1 UNK         0.0600 
    183 H183        4.9081   -8.5484  -42.5600 H         1 UNK         0.0600 
    184 H184        4.0602   -9.6642  -44.6583 H         1 UNK         0.3000 
    185 H185        2.2113   -9.2179  -46.3462 H         1 UNK         0.0600 
    186 H186        4.1929  -10.7021  -46.7482 H         1 UNK         0.0600 
    187 H187        3.1459  -12.1151  -46.8440 H         1 UNK         0.0600 
    188 H188        3.0622  -10.8623  -48.0792 H         1 UNK         0.0600 
    189 H189        0.4060  -11.4775  -46.0537 H         1 UNK         0.3000 
    190 H190       -3.2637  -20.7596  -47.0677 H         1 UNK         0.3000 
    191 H191       -5.4889  -21.3945  -48.8285 H         1 UNK         0.0600 
    192 H192       -5.4804  -19.3029  -47.5513 H         1 UNK         0.0600 
    193 H193       -6.8155  -20.3071  -47.0070 H         1 UNK         0.0600 
    194 H194       -5.3589  -20.1714  -46.0263 H         1 UNK         0.0600 
    195 H195       -4.7178  -22.3535  -45.4062 H         1 UNK         0.3000 
    196 H196       -6.9980  -24.1861  -45.4700 H         1 UNK         0.0600 
    197 H197       -6.6701  -24.2238  -43.0275 H         1 UNK         0.0600 
    198 H198       -6.6761  -22.5655  -43.6077 H         1 UNK         0.0600 
    199 H199       -5.1550  -23.3450  -43.1756 H         1 UNK         0.0600 
    200 H200       -3.4384  -24.4431  -45.1649 H         1 UNK         0.3000 
    201 H201       -3.5861  -27.3596  -44.7075 H         1 UNK         0.0600 
    202 H202       -1.2323  -27.2735  -44.3489 H         1 UNK         0.0600 
    203 H203       -1.8725  -25.8533  -43.5399 H         1 UNK         0.0600 
    204 H204       -1.0565  -25.7060  -45.1010 H         1 UNK         0.0600 
    205 H205       -3.8534  -25.3756  -47.3332 H         1 UNK         0.3000 
    206 H206       -3.9665  -25.6104  -49.5086 H         1 UNK         0.0600 
    207 H207       -5.1751  -27.7381  -49.0016 H         1 UNK         0.0600 
    208 H208       -4.3017  -27.8450  -50.5178 H         1 UNK         0.0600 
    209 H209       -3.6576  -28.6335  -49.0897 H         1 UNK         0.0600 
    210 H210       -1.3312  -25.1047  -48.2937 H         1 UNK         0.3000 
    211 H211        0.6906  -26.4126  -49.8337 H         1 UNK         0.0600 
    212 H212        0.8682  -23.6813  -48.4648 H         1 UNK         0.0600 
    213 H213        2.1957  -24.7295  -48.9184 H         1 UNK         0.0600 
    214 H214        1.0884  -25.2281  -47.6495 H         1 UNK         0.0600 
    215 H215       -1.5292  -23.9259  -50.7126 H         1 UNK         0.3000 
    216 H216       -0.3549  -23.8405  -53.4287 H         1 UNK         0.0600 
    217 H217       -0.9657  -21.4370  -53.6409 H         1 UNK         0.0600 
    218 H218        0.2395  -21.6459  -52.3800 H         1 UNK         0.0600 
    219 H219       -1.4491  -21.3901  -51.9496 H         1 UNK         0.0600 
    220 H220       -2.1716  -25.6392  -52.3757 H         1 UNK         0.3000 
    221 H221       -4.0137  -26.7174  -52.7772 H         1 UNK         0.0600 
    222 H222       -4.6440  -24.6922  -54.9863 H         1 UNK         0.0600 
    223 H223       -3.7065  -26.1722  -55.1696 H         1 UNK         0.0600 
    224 H224       -5.4132  -26.2542  -54.7620 H         1 UNK         0.0600 
    225 H225       -4.9053  -23.2749  -52.9613 H         1 UNK         0.3000 
    226 H226       -6.4184  -23.2052  -50.5655 H         1 UNK         0.0600 
    227 H227       -8.1780  -24.4487  -51.8340 H         1 UNK         0.0600 
    228 H228       -8.1016  -23.2676  -53.1398 H         1 UNK         0.0600 
    229 H229       -8.7038  -22.8030  -51.5516 H         1 UNK         0.0600 
    230 H230       -4.3110  -21.8351  -51.2840 H         1 UNK         0.3000 
    231 H231       -3.2843  -19.9506  -51.8258 H         1 UNK         0.0600 
    232 H232       -5.9284  -18.5616  -51.1719 H         1 UNK         0.0600 
    233 H233       -4.3381  -17.8107  -51.2146 H         1 UNK         0.0600 
    234 H234       -4.6931  -19.0299  -50.0032 H         1 UNK         0.0600 
    235 H235       -3.8911  -21.3575  -54.0046 H         1 UNK         0.3000 
    236 H236       -4.7079  -19.4252  -56.1386 H         1 UNK         0.0600 
    237 H237       -4.7944  -22.4914  -56.0761 H         1 UNK         0.0600 
    238 H238       -6.1911  -21.4265  -55.9389 H         1 UNK         0.0600 
    239 H239       -5.2651  -21.4716  -57.4323 H         1 UNK         0.0600 
    240 H240       -2.3921  -18.7517  -55.3760 H         1 UNK         0.3000 
    241 H241       -0.1881  -20.3817  -56.3222 H         1 UNK         0.0600 
    242 H242       -1.0856  -17.9724  -59.3917 H         1 UNK         0.3800 
    243 H243       -2.2344  -18.3246  -58.1284 H         1 UNK         0.3800 
    244 H244        1.2496  -18.5342  -55.4570 H         1 UNK         0.0800 
    245 H245        0.1822  -19.2056  -54.2725 H         1 UNK         0.0800 
    246 H246       -2.5425  -16.7078  -53.7009 H         1 UNK         0.0800 
    247 H247       -1.9137  -18.3218  -53.5035 H         1 UNK         0.0800 
@<TRIPOS>BOND
     1    1    2 1    
     2    1  127 1    
     3    1  128 1    
     4    1  129 1    
     5    2    3 2    
     6    2    4 am   BACKBONE|DICT|INTERRES
     7    4    5 1    
     8    4  130 1    
     9    5    6 1    
    10    5   65 1    
    11    5  131 1    
    12    6    7 1    
    13    6  132 1    
    14    6  133 1    
    15    7    8 1    
    16    8    9 1    
    17    8  134 1    
    18    8  135 1    
    19    9   10 ar   
    20    9   14 ar   
    21   10   11 ar   
    22   10  136 1    
    23   11   12 ar   
    24   11  126 1    
    25   12   13 ar   
    26   12  137 1    
    27   13   14 ar   
    28   13   15 1    
    29   14  138 1    
    30   15   16 1    
    31   15  139 1    
    32   15  140 1    
    33   16   17 1    
    34   17   18 1    
    35   17  141 1    
    36   17  142 1    
    37   18   19 1    
    38   18   67 1    
    39   18  143 1    
    40   19   20 am   BACKBONE|DICT|INTERRES
    41   19  144 1    
    42   20   21 2    
    43   20   22 1    
    44   22   23 1    
    45   22   24 1    
    46   22  145 1    
    47   23  146 1    
    48   23  147 1    
    49   23  148 1    
    50   24   25 am   BACKBONE|DICT|INTERRES
    51   24  149 1    
    52   25   26 2    
    53   25   27 1    
    54   27   28 1    
    55   27   29 1    
    56   27  150 1    
    57   28  151 1    
    58   28  152 1    
    59   28  153 1    
    60   29   30 am   BACKBONE|DICT|INTERRES
    61   29  154 1    
    62   30   31 2    
    63   30   32 1    
    64   32   33 1    
    65   32   34 1    
    66   32  155 1    
    67   33  156 1    
    68   33  157 1    
    69   33  158 1    
    70   34   35 am   BACKBONE|DICT|INTERRES
    71   34  159 1    
    72   35   36 2    
    73   35   37 1    
    74   37   38 1    
    75   37   39 1    
    76   37  160 1    
    77   38  161 1    
    78   38  162 1    
    79   38  163 1    
    80   39   40 am   BACKBONE|DICT|INTERRES
    81   39  164 1    
    82   40   41 2    
    83   40   42 1    
    84   42   43 1    
    85   42   44 1    
    86   42  165 1    
    87   43  166 1    
    88   43  167 1    
    89   43  168 1    
    90   44   45 am   BACKBONE|DICT|INTERRES
    91   44  169 1    
    92   45   46 2    
    93   45   47 1    
    94   47   48 1    
    95   47   49 1    
    96   47  170 1    
    97   48  171 1    
    98   48  172 1    
    99   48  173 1    
   100   49   50 am   BACKBONE|DICT|INTERRES
   101   49  174 1    
   102   50   51 2    
   103   50   52 1    
   104   52   53 1    
   105   52   54 1    
   106   52  175 1    
   107   53  176 1    
   108   53  177 1    
   109   53  178 1    
   110   54   55 am   BACKBONE|DICT|INTERRES
   111   54  179 1    
   112   55   56 2    
   113   55   57 1    
   114   57   58 1    
   115   57   59 1    
   116   57  180 1    
   117   58  181 1    
   118   58  182 1    
   119   58  183 1    
   120   59   60 am   BACKBONE|DICT|INTERRES
   121   59  184 1    
   122   60   61 2    
   123   60   62 1    
   124   62   63 1    
   125   62   64 1    
   126   62  185 1    
   127   63  186 1    
   128   63  187 1    
   129   63  188 1    
   130   64   65 am   BACKBONE|DICT|INTERRES
   131   64  189 1    
   132   65   66 2    
   133   67   68 2    
   134   67   69 am   BACKBONE|DICT|INTERRES
   135   69   70 1    
   136   69  190 1    
   137   70   71 1    
   138   70   72 1    
   139   70  191 1    
   140   71  192 1    
   141   71  193 1    
   142   71  194 1    
   143   72   73 2    
   144   72   74 am   BACKBONE|DICT|INTERRES
   145   74   75 1    
   146   74  195 1    
   147   75   76 1    
   148   75   77 1    
   149   75  196 1    
   150   76  197 1    
   151   76  198 1    
   152   76  199 1    
   153   77   78 2    
   154   77   79 am   BACKBONE|DICT|INTERRES
   155   79   80 1    
   156   79  200 1    
   157   80   81 1    
   158   80   82 1    
   159   80  201 1    
   160   81  202 1    
   161   81  203 1    
   162   81  204 1    
   163   82   83 2    
   164   82   84 am   BACKBONE|DICT|INTERRES
   165   84   85 1    
   166   84  205 1    
   167   85   86 1    
   168   85   87 1    
   169   85  206 1    
   170   86  207 1    
   171   86  208 1    
   172   86  209 1    
   173   87   88 2    
   174   87   89 am   BACKBONE|DICT|INTERRES
   175   89   90 1    
   176   89  210 1    
   177   90   91 1    
   178   90   92 1    
   179   90  211 1    
   180   91  212 1    
   181   91  213 1    
   182   91  214 1    
   183   92   93 2    
   184   92   94 am   BACKBONE|DICT|INTERRES
   185   94   95 1    
   186   94  215 1    
   187   95   96 1    
   188   95   97 1    
   189   95  216 1    
   190   96  217 1    
   191   96  218 1    
   192   96  219 1    
   193   97   98 2    
   194   97   99 am   BACKBONE|DICT|INTERRES
   195   99  100 1    
   196   99  220 1    
   197  100  101 1    
   198  100  102 1    
   199  100  221 1    
   200  101  222 1    
   201  101  223 1    
   202  101  224 1    
   203  102  103 2    
   204  102  104 am   BACKBONE|DICT|INTERRES
   205  104  105 1    
   206  104  225 1    
   207  105  106 1    
   208  105  107 1    
   209  105  226 1    
   210  106  227 1    
   211  106  228 1    
   212  106  229 1    
   213  107  108 2    
   214  107  109 am   BACKBONE|DICT|INTERRES
   215  109  110 1    
   216  109  230 1    
   217  110  111 1    
   218  110  112 1    
   219  110  231 1    
   220  111  232 1    
   221  111  233 1    
   222  111  234 1    
   223  112  113 2    
   224  112  114 am   BACKBONE|DICT|INTERRES
   225  114  115 1    
   226  114  235 1    
   227  115  116 1    
   228  115  117 1    
   229  115  236 1    
   230  116  237 1    
   231  116  238 1    
   232  116  239 1    
   233  117  118 2    
   234  117  119 am   BACKBONE|DICT|INTERRES
   235  119  120 1    
   236  119  240 1    
   237  120  121 1    
   238  120  124 1    
   239  120  241 1    
   240  121  122 am   BACKBONE|DICT|INTERRES
   241  121  123 2    
   242  122  242 1    
   243  122  243 1    
   244  124  125 1    
   245  124  244 1    
   246  124  245 1    
   247  125  126 1    
   248  126  246 1    
   249  126  247 1    
@<TRIPOS>SUBSTRUCTURE
     1 UNK         1 GROUP             0       ****    0 ROOT    
