@<TRIPOS>MOLECULE
3R540
247   249    1
SMALL
USER_CHARGES


@<TRIPOS>ATOM
      1 CA          0.6947  -11.2091  -49.2137 C.3       0 UNK        -0.1800 
      2 C           0.6721  -12.6218  -48.6500 C.2       0 UNK         0.5000 
      3 O          -0.2704  -12.9848  -47.9504 O.2       0 UNK        -0.5000 
      4 N           1.6908  -13.4283  -48.9747 N.am      1 UNK        -0.5000 
      5 CA          1.9028  -14.8049  -48.4970 C.3       1 UNK         0.1400 
      6 C6          3.3118  -15.3251  -48.8815 C.3       23 UNK        -0.0398 
      7 S7          3.6689  -15.2537  -50.6731 S.3       23 UNK        -0.2404 
      8 C8          4.3803  -16.9039  -50.9800 C.3       23 UNK        -0.0205 
      9 C9          3.3776  -18.0331  -50.7799 C.ar      23 UNK        -0.0193 
     10 C10         2.2017  -18.0720  -51.5336 C.ar      23 UNK        -0.1150 
     11 C11         1.2859  -19.1140  -51.3705 C.ar      23 UNK        -0.0193 
     12 C12         1.5586  -20.1321  -50.4519 C.ar      23 UNK        -0.1150 
     13 C13         2.7421  -20.1182  -49.7053 C.ar      23 UNK        -0.0193 
     14 C14         3.6418  -19.0599  -49.8678 C.ar      23 UNK        -0.1150 
     15 C15         3.0865  -21.2720  -48.7703 C.3       23 UNK        -0.0205 
     16 S16         2.7552  -20.8973  -47.0177 S.3       23 UNK        -0.2404 
     17 C17         0.9530  -21.1461  -46.9369 C.3       23 UNK        -0.0398 
     18 CA          0.5595  -22.5896  -46.5386 C.3       11 UNK         0.1400 
     19 N           1.0135  -22.9546  -45.1919 N.am      11 UNK        -0.5000 
     20 C           0.9910  -24.2059  -44.7055 C.2       10 UNK         0.5000 
     21 O           0.6030  -25.1780  -45.3511 O.2       10 UNK        -0.5000 
     22 CA          1.4151  -24.4066  -43.2373 C.3       10 UNK         0.1400 
     23 CB          2.9355  -24.6004  -43.1416 C.3       10 UNK        -0.1800 
     24 N           1.0181  -23.3056  -42.3613 N.am      10 UNK        -0.5000 
     25 C          -0.2286  -22.8388  -42.2004 C.2       9 UNK         0.5000 
     26 O          -1.2209  -23.3611  -42.7056 O.2       9 UNK        -0.5000 
     27 CA         -0.3920  -21.5369  -41.3916 C.3       9 UNK         0.1400 
     28 CB         -0.9377  -21.8428  -39.9892 C.3       9 UNK        -0.1800 
     29 N           0.8419  -20.7530  -41.2672 N.am      9 UNK        -0.5000 
     30 C           1.5368  -20.2287  -42.2865 C.2       8 UNK         0.5000 
     31 O           1.2224  -20.3568  -43.4733 O.2       8 UNK        -0.5000 
     32 CA          2.8526  -19.5299  -41.9011 C.3       8 UNK         0.1400 
     33 CB          3.9919  -20.5594  -41.8295 C.3       8 UNK        -0.1800 
     34 N           3.2357  -18.4751  -42.8360 N.am      8 UNK        -0.5000 
     35 C           2.5442  -17.3502  -43.0491 C.2       7 UNK         0.5000 
     36 O           1.4837  -17.0750  -42.4820 O.2       7 UNK        -0.5000 
     37 CA          3.1642  -16.3750  -44.0640 C.3       7 UNK         0.1400 
     38 CB          2.9233  -16.8393  -45.5064 C.3       7 UNK        -0.1800 
     39 N           2.6418  -15.0202  -43.8920 N.am      7 UNK        -0.5000 
     40 C           3.0729  -14.1706  -42.9491 C.2       6 UNK         0.5000 
     41 O           4.0205  -14.4110  -42.1987 O.2       6 UNK        -0.5000 
     42 CA          2.3426  -12.8208  -42.8170 C.3       6 UNK         0.1400 
     43 CB          3.0982  -11.7264  -43.5870 C.3       6 UNK        -0.1800 
     44 N           0.9607  -12.8570  -43.2903 N.am      6 UNK        -0.5000 
     45 C          -0.0632  -13.4450  -42.6574 C.2       5 UNK         0.5000 
     46 O           0.0346  -14.0112  -41.5684 O.2       5 UNK        -0.5000 
     47 CA         -1.4397  -13.3652  -43.3513 C.3       5 UNK         0.1400 
     48 CB         -1.6082  -12.0838  -44.1959 C.3       5 UNK        -0.1800 
     49 N          -1.7694  -14.5591  -44.1424 N.am      5 UNK        -0.5000 
     50 C          -1.0189  -15.1659  -45.0765 C.2       4 UNK         0.5000 
     51 O           0.1026  -14.7891  -45.4133 O.2       4 UNK        -0.5000 
     52 CA         -1.6202  -16.4141  -45.7507 C.3       4 UNK         0.1400 
     53 CB         -1.1488  -17.6784  -45.0110 C.3       4 UNK        -0.1800 
     54 N          -3.0858  -16.4295  -45.7842 N.am      4 UNK        -0.5000 
     55 C          -3.9738  -15.7063  -46.4918 C.2       3 UNK         0.5000 
     56 O          -5.1740  -15.8369  -46.2585 O.2       3 UNK        -0.5000 
     57 CA         -3.5830  -14.7020  -47.6069 C.3       3 UNK         0.1400 
     58 CB         -3.4144  -13.2785  -47.0646 C.3       3 UNK        -0.1800 
     59 N          -2.4439  -15.0498  -48.4550 N.am      3 UNK        -0.5000 
     60 C          -2.4718  -16.0142  -49.3863 C.2       2 UNK         0.5000 
     61 O          -3.4531  -16.7290  -49.5839 O.2       2 UNK        -0.5000 
     62 CA         -1.2280  -16.2018  -50.2797 C.3       2 UNK         0.1400 
     63 CB         -1.5419  -15.7893  -51.7253 C.3       2 UNK        -0.1800 
     64 N          -0.0687  -15.4332  -49.8377 N.am      2 UNK        -0.5000 
     65 C           0.7928  -15.8115  -48.8860 C.2       1 UNK         0.5000 
     66 O           0.7283  -16.8960  -48.3092 O.2       1 UNK        -0.5000 
     67 C          -0.9611  -22.7837  -46.7014 C.2       11 UNK         0.5000 
     68 O          -1.4104  -23.1946  -47.7729 O.2       11 UNK        -0.5000 
     69 N          -1.7270  -22.4814  -45.6448 N.am      12 UNK        -0.5000 
     70 CA         -3.1771  -22.6576  -45.6070 C.3       12 UNK         0.1400 
     71 CB         -3.7780  -21.7655  -44.5111 C.3       12 UNK        -0.1800 
     72 C          -3.5580  -24.1332  -45.4025 C.2       12 UNK         0.5000 
     73 O          -4.4756  -24.6153  -46.0645 O.2       12 UNK        -0.5000 
     74 N          -2.8176  -24.8384  -44.5346 N.am      13 UNK        -0.5000 
     75 CA         -2.9713  -26.2707  -44.2615 C.3       13 UNK         0.1400 
     76 CB         -2.0683  -26.6656  -43.0842 C.3       13 UNK        -0.1800 
     77 C          -2.6792  -27.1546  -45.4896 C.2       13 UNK         0.5000 
     78 O          -3.3618  -28.1589  -45.6927 O.2       13 UNK        -0.5000 
     79 N          -1.7051  -26.7385  -46.3110 N.am      14 UNK        -0.5000 
     80 CA         -1.3818  -27.3366  -47.6090 C.3       14 UNK         0.1400 
     81 CB          0.0152  -26.8575  -48.0368 C.3       14 UNK        -0.1800 
     82 C          -2.4125  -27.0152  -48.7126 C.2       14 UNK         0.5000 
     83 O          -2.3190  -27.5858  -49.7998 O.2       14 UNK        -0.5000 
     84 N          -3.3500  -26.0968  -48.4303 N.am      15 UNK        -0.5000 
     85 CA         -4.3808  -25.5575  -49.3225 C.3       15 UNK         0.1400 
     86 CB         -5.3636  -26.6573  -49.7747 C.3       15 UNK        -0.1800 
     87 C          -3.8078  -24.7380  -50.4968 C.2       15 UNK         0.5000 
     88 O          -4.4817  -24.5771  -51.5151 O.2       15 UNK        -0.5000 
     89 N          -2.5874  -24.2103  -50.3285 N.am      16 UNK        -0.5000 
     90 CA         -1.9505  -23.2941  -51.2681 C.3       16 UNK         0.1400 
     91 CB         -0.4231  -23.3668  -51.1130 C.3       16 UNK        -0.1800 
     92 C          -2.4913  -21.8775  -51.0352 C.2       16 UNK         0.5000 
     93 O          -3.0995  -21.2990  -51.9321 O.2       16 UNK        -0.5000 
     94 N          -2.3613  -21.3782  -49.7985 N.am      17 UNK        -0.5000 
     95 CA         -2.9223  -20.1009  -49.3458 C.3       17 UNK         0.1400 
     96 CB         -2.0498  -19.5256  -48.2176 C.3       17 UNK        -0.1800 
     97 C          -4.4087  -20.2322  -48.9490 C.2       17 UNK         0.5000 
     98 O          -4.8312  -19.7030  -47.9207 O.2       17 UNK        -0.5000 
     99 N          -5.1779  -20.9540  -49.7730 N.am      18 UNK        -0.5000 
    100 CA        -6.6315  -21.0774  -49.6719 C.3       18 UNK         0.1400 
    101 CB        -7.0618  -22.4042  -50.3159 C.3       18 UNK        -0.1800 
    102 C         -7.3532  -19.8900  -50.3388 C.2       18 UNK         0.5000 
    103 O         -8.5149  -19.6312  -50.0224 O.2       18 UNK        -0.5000 
    104 N         -6.6559  -19.1902  -51.2409 N.am      19 UNK        -0.5000 
    105 CA        -7.1045  -17.9991  -51.9460 C.3       19 UNK         0.1400 
    106 CB        -7.9443  -18.4007  -53.1716 C.3       19 UNK        -0.1800 
    107 C         -5.8649  -17.2016  -52.3690 C.2       19 UNK         0.5000 
    108 O         -4.7852  -17.7814  -52.5208 O.2       19 UNK        -0.5000 
    109 N         -6.0541  -15.8962  -52.6025 N.am      20 UNK        -0.5000 
    110 CA        -5.0081  -14.9330  -52.9677 C.3       20 UNK         0.1400 
    111 CB        -5.6205  -13.5247  -53.0031 C.3       20 UNK        -0.1800 
    112 C         -4.2782  -15.2370  -54.2942 C.2       20 UNK         0.5000 
    113 O         -3.1653  -14.7527  -54.4982 O.2       20 UNK        -0.5000 
    114 N         -4.9056  -16.0411  -55.1619 N.am      21 UNK        -0.5000 
    115 CA        -4.3358  -16.5362  -56.4150 C.3       21 UNK         0.1400 
    116 CB        -5.4874  -17.0053  -57.3189 C.3       21 UNK        -0.1800 
    117 C         -3.3050  -17.6706  -56.2249 C.2       21 UNK         0.5000 
    118 O         -2.6038  -17.9982  -57.1829 O.2       21 UNK        -0.5000 
    119 N         -3.2371  -18.2628  -55.0221 N.am      22 UNK        -0.5000 
    120 CA        -2.4044  -19.4313  -54.6830 C.3       22 UNK         0.1400 
    121 C         -2.8925  -20.7699  -55.3264 C.2       22 UNK         0.5000 
    122 N         -4.1501  -20.8760  -55.7410 N.am      22 UNK        -0.7600 
    123 O         -2.1381  -21.7303  -55.4536 O.2       22 UNK        -0.5000 
    124 C124       -0.8815  -19.1603  -54.8652 C.3       23 UNK        -0.0398 
    125 S125        0.1860  -20.0989  -53.7134 S.3       23 UNK        -0.2404 
    126 C126        0.0058  -19.1270  -52.1890 C.3       23 UNK        -0.0205 
    127 H127        0.6964  -10.4830  -48.4009 H         1 UNK         0.0600 
    128 H128       -0.1907  -11.0356  -49.8252 H         1 UNK         0.0600 
    129 H129        1.5759  -11.0322  -49.8308 H         1 UNK         0.0600 
    130 H130        2.4150  -13.0791  -49.5868 H         1 UNK         0.3000 
    131 H131        1.8718  -14.7498  -47.4078 H         1 UNK         0.0600 
    132 H132        4.0688  -14.7287  -48.3706 H         1 UNK         0.0800 
    133 H133        3.4532  -16.3444  -48.5195 H         1 UNK         0.0800 
    134 H134        4.7466  -16.9413  -52.0067 H         1 UNK         0.0800 
    135 H135        5.2530  -17.0380  -50.3390 H         1 UNK         0.0800 
    136 H136        1.9987  -17.2849  -52.2462 H         1 UNK         0.1150 
    137 H137        0.8561  -20.9421  -50.3329 H         1 UNK         0.1150 
    138 H138        4.5577  -19.0487  -49.2939 H         1 UNK         0.1150 
    139 H139        2.5488  -22.1757  -49.0614 H         1 UNK         0.0800 
    140 H140        4.1458  -21.5099  -48.8764 H         1 UNK         0.0800 
    141 H141        0.5320  -20.8878  -47.9076 H         1 UNK         0.0800 
    142 H142        0.5433  -20.4245  -46.2273 H         1 UNK         0.0800 
    143 H143        1.0381  -23.2736  -47.2430 H         1 UNK         0.0600 
    144 H144        1.3159  -22.1913  -44.5967 H         1 UNK         0.3000 
    145 H145        0.9308  -25.3120  -42.8691 H         1 UNK         0.0600 
    146 H146        3.2417  -24.8263  -42.1200 H         1 UNK         0.0600 
    147 H147        3.2632  -25.4306  -43.7689 H         1 UNK         0.0600 
    148 H148        3.4762  -23.7102  -43.4660 H         1 UNK         0.0600 
    149 H149        1.7649  -22.8088  -41.9007 H         1 UNK         0.3000 
    150 H150       -1.1238  -20.9212  -41.9188 H         1 UNK         0.0600 
    151 H151       -0.2350  -22.4382  -39.4049 H         1 UNK         0.0600 
    152 H152       -1.8729  -22.4018  -40.0468 H         1 UNK         0.0600 
    153 H153       -1.1437  -20.9259  -39.4366 H         1 UNK         0.0600 
    154 H154        1.1838  -20.6160  -40.3267 H         1 UNK         0.3000 
    155 H155        2.7292  -19.0732  -40.9168 H         1 UNK         0.0600 
    156 H156        4.1618  -21.0386  -42.7949 H         1 UNK         0.0600 
    157 H157        3.7689  -21.3460  -41.1076 H         1 UNK         0.0600 
    158 H158        4.9267  -20.0933  -41.5172 H         1 UNK         0.0600 
    159 H159        4.0753  -18.6401  -43.3710 H         1 UNK         0.3000 
    160 H160        4.2435  -16.3605  -43.8968 H         1 UNK         0.0600 
    161 H161        1.8730  -16.7784  -45.7863 H         1 UNK         0.0600 
    162 H162        3.2417  -17.8719  -45.6556 H         1 UNK         0.0600 
    163 H163        3.4945  -16.2237  -46.1978 H         1 UNK         0.0600 
    164 H164        1.8043  -14.7879  -44.4182 H         1 UNK         0.3000 
    165 H165        2.3356  -12.5518  -41.7587 H         1 UNK         0.0600 
    166 H166        2.6339  -10.7504  -43.4437 H         1 UNK         0.0600 
    167 H167        4.1303  -11.6476  -43.2427 H         1 UNK         0.0600 
    168 H168        3.1240  -11.9330  -44.6578 H         1 UNK         0.0600 
    169 H169        0.7854  -12.4591  -44.2016 H         1 UNK         0.3000 
    170 H170       -2.1777  -13.3186  -42.5490 H         1 UNK         0.0600 
    171 H171       -1.3373  -11.1966  -43.6218 H         1 UNK         0.0600 
    172 H172       -0.9912  -12.0961  -45.0952 H         1 UNK         0.0600 
    173 H173       -2.6457  -11.9545  -44.5022 H         1 UNK         0.0600 
    174 H174       -2.6611  -14.9811  -43.9265 H         1 UNK         0.3000 
    175 H175       -1.2365  -16.4787  -46.7633 H         1 UNK         0.0600 
    176 H176       -0.0622  -17.7601  -45.0204 H         1 UNK         0.0600 
    177 H177       -1.4624  -17.6777  -43.9663 H         1 UNK         0.0600 
    178 H178       -1.5391  -18.5835  -45.4751 H         1 UNK         0.0600 
    179 H179       -3.4906  -17.0733  -45.1217 H         1 UNK         0.3000 
    180 H180       -4.4518  -14.6605  -48.2683 H         1 UNK         0.0600 
    181 H181       -2.4651  -13.1631  -46.5513 H         1 UNK         0.0600 
    182 H182       -4.2089  -13.0187  -46.3639 H         1 UNK         0.0600 
    183 H183       -3.4395  -12.5468  -47.8722 H         1 UNK         0.0600 
    184 H184       -1.6074  -14.4850  -48.3442 H         1 UNK         0.3000 
    185 H185       -0.9752  -17.2629  -50.2644 H         1 UNK         0.0600 
    186 H186       -2.3018  -16.4410  -52.1581 H         1 UNK         0.0600 
    187 H187       -1.9093  -14.7639  -51.7786 H         1 UNK         0.0600 
    188 H188       -0.6602  -15.8508  -52.3630 H         1 UNK         0.0600 
    189 H189        0.0576  -14.5212  -50.2512 H         1 UNK         0.3000 
    190 H190       -1.2814  -22.2018  -44.7825 H         1 UNK         0.3000 
    191 H191       -3.5937  -22.3347  -46.5639 H         1 UNK         0.0600 
    192 H192       -3.5450  -20.7154  -44.6894 H         1 UNK         0.0600 
    193 H193       -4.8646  -21.8570  -44.4895 H         1 UNK         0.0600 
    194 H194       -3.4072  -22.0289  -43.5204 H         1 UNK         0.0600 
    195 H195       -2.1181  -24.3450  -43.9845 H         1 UNK         0.3000 
    196 H196       -4.0090  -26.4415  -43.9681 H         1 UNK         0.0600 
    197 H197       -2.2199  -27.7103  -42.8102 H         1 UNK         0.0600 
    198 H198       -2.2809  -26.0622  -42.2014 H         1 UNK         0.0600 
    199 H199       -1.0143  -26.5416  -43.3306 H         1 UNK         0.0600 
    200 H200       -1.1306  -25.9518  -46.0255 H         1 UNK         0.3000 
    201 H201       -1.3530  -28.4219  -47.4941 H         1 UNK         0.0600 
    202 H202        0.3093  -27.2972  -48.9906 H         1 UNK         0.0600 
    203 H203        0.7706  -27.1426  -47.3045 H         1 UNK         0.0600 
    204 H204        0.0501  -25.7730  -48.1500 H         1 UNK         0.0600 
    205 H205       -3.3566  -25.7021  -47.4977 H         1 UNK         0.3000 
    206 H206       -4.9486  -24.8464  -48.7217 H         1 UNK         0.0600 
    207 H207       -5.7487  -27.2161  -48.9217 H         1 UNK         0.0600 
    208 H208       -6.2214  -26.2255  -50.2916 H         1 UNK         0.0600 
    209 H209       -4.8954  -27.3659  -50.4582 H         1 UNK         0.0600 
    210 H210       -2.1281  -24.3310  -49.4338 H         1 UNK         0.3000 
    211 H211       -2.1973  -23.5889  -52.2907 H         1 UNK         0.0600 
    212 H212       -0.0963  -23.1073  -50.1063 H         1 UNK         0.0600 
    213 H213        0.0693  -22.6874  -51.8097 H         1 UNK         0.0600 
    214 H214       -0.0578  -24.3708  -51.3290 H         1 UNK         0.0600 
    215 H215       -1.9530  -21.9744  -49.0841 H         1 UNK         0.3000 
    216 H216       -2.8895  -19.3874  -50.1720 H         1 UNK         0.0600 
    217 H217       -2.4470  -18.5763  -47.8595 H         1 UNK         0.0600 
    218 H218       -1.0351  -19.3311  -48.5639 H         1 UNK         0.0600 
    219 H219       -2.0054  -20.1937  -47.3602 H         1 UNK         0.0600 
    220 H220       -4.7429  -21.3409  -50.6026 H         1 UNK         0.3000 
    221 H221       -6.9225  -21.0975  -48.6195 H         1 UNK         0.0600 
    222 H222       -6.7674  -22.4579  -51.3649 H         1 UNK         0.0600 
    223 H223       -6.6171  -23.2545  -49.7996 H         1 UNK         0.0600 
    224 H224       -8.1445  -22.5288  -50.2706 H         1 UNK         0.0600 
    225 H225       -5.6878  -19.4276  -51.4181 H         1 UNK         0.3000 
    226 H226       -7.7020  -17.3824  -51.2713 H         1 UNK         0.0600 
    227 H227       -8.2862  -17.5223  -53.7201 H         1 UNK         0.0600 
    228 H228       -7.3725  -19.0202  -53.8638 H         1 UNK         0.0600 
    229 H229       -8.8312  -18.9618  -52.8768 H         1 UNK         0.0600 
    230 H230       -6.9802  -15.5128  -52.4783 H         1 UNK         0.3000 
    231 H231       -4.2622  -14.9539  -52.1727 H         1 UNK         0.0600 
    232 H232       -6.4046  -13.4464  -53.7573 H         1 UNK         0.0600 
    233 H233       -4.8640  -12.7743  -53.2370 H         1 UNK         0.0600 
    234 H234       -6.0522  -13.2568  -52.0385 H         1 UNK         0.0600 
    235 H235       -5.8223  -16.3825  -54.9148 H         1 UNK         0.3000 
    236 H236       -3.8239  -15.7113  -56.9151 H         1 UNK         0.0600 
    237 H237       -6.1873  -16.1938  -57.5191 H         1 UNK         0.0600 
    238 H238       -5.1133  -17.3532  -58.2827 H         1 UNK         0.0600 
    239 H239       -6.0451  -17.8267  -56.8675 H         1 UNK         0.0600 
    240 H240       -3.8449  -17.9389  -54.2762 H         1 UNK         0.3000 
    241 H241       -2.5776  -19.5509  -53.6163 H         1 UNK         0.0600 
    242 H242       -4.7915  -20.1074  -55.6380 H         1 UNK         0.3800 
    243 H243       -4.4627  -21.7410  -56.1525 H         1 UNK         0.3800 
    244 H244       -0.5727  -19.3860  -55.8871 H         1 UNK         0.0800 
    245 H245       -0.6661  -18.0997  -54.7286 H         1 UNK         0.0800 
    246 H246       -0.2664  -18.1066  -52.4464 H         1 UNK         0.0800 
    247 H247       -0.8186  -19.5229  -51.5973 H         1 UNK         0.0800 
@<TRIPOS>BOND
     1    1    2 1    
     2    1  127 1    
     3    1  128 1    
     4    1  129 1    
     5    2    3 2    
     6    2    4 am   BACKBONE|DICT|INTERRES
     7    4    5 1    
     8    4  130 1    
     9    5    6 1    
    10    5   65 1    
    11    5  131 1    
    12    6    7 1    
    13    6  132 1    
    14    6  133 1    
    15    7    8 1    
    16    8    9 1    
    17    8  134 1    
    18    8  135 1    
    19    9   10 ar   
    20    9   14 ar   
    21   10   11 ar   
    22   10  136 1    
    23   11   12 ar   
    24   11  126 1    
    25   12   13 ar   
    26   12  137 1    
    27   13   14 ar   
    28   13   15 1    
    29   14  138 1    
    30   15   16 1    
    31   15  139 1    
    32   15  140 1    
    33   16   17 1    
    34   17   18 1    
    35   17  141 1    
    36   17  142 1    
    37   18   19 1    
    38   18   67 1    
    39   18  143 1    
    40   19   20 am   BACKBONE|DICT|INTERRES
    41   19  144 1    
    42   20   21 2    
    43   20   22 1    
    44   22   23 1    
    45   22   24 1    
    46   22  145 1    
    47   23  146 1    
    48   23  147 1    
    49   23  148 1    
    50   24   25 am   BACKBONE|DICT|INTERRES
    51   24  149 1    
    52   25   26 2    
    53   25   27 1    
    54   27   28 1    
    55   27   29 1    
    56   27  150 1    
    57   28  151 1    
    58   28  152 1    
    59   28  153 1    
    60   29   30 am   BACKBONE|DICT|INTERRES
    61   29  154 1    
    62   30   31 2    
    63   30   32 1    
    64   32   33 1    
    65   32   34 1    
    66   32  155 1    
    67   33  156 1    
    68   33  157 1    
    69   33  158 1    
    70   34   35 am   BACKBONE|DICT|INTERRES
    71   34  159 1    
    72   35   36 2    
    73   35   37 1    
    74   37   38 1    
    75   37   39 1    
    76   37  160 1    
    77   38  161 1    
    78   38  162 1    
    79   38  163 1    
    80   39   40 am   BACKBONE|DICT|INTERRES
    81   39  164 1    
    82   40   41 2    
    83   40   42 1    
    84   42   43 1    
    85   42   44 1    
    86   42  165 1    
    87   43  166 1    
    88   43  167 1    
    89   43  168 1    
    90   44   45 am   BACKBONE|DICT|INTERRES
    91   44  169 1    
    92   45   46 2    
    93   45   47 1    
    94   47   48 1    
    95   47   49 1    
    96   47  170 1    
    97   48  171 1    
    98   48  172 1    
    99   48  173 1    
   100   49   50 am   BACKBONE|DICT|INTERRES
   101   49  174 1    
   102   50   51 2    
   103   50   52 1    
   104   52   53 1    
   105   52   54 1    
   106   52  175 1    
   107   53  176 1    
   108   53  177 1    
   109   53  178 1    
   110   54   55 am   BACKBONE|DICT|INTERRES
   111   54  179 1    
   112   55   56 2    
   113   55   57 1    
   114   57   58 1    
   115   57   59 1    
   116   57  180 1    
   117   58  181 1    
   118   58  182 1    
   119   58  183 1    
   120   59   60 am   BACKBONE|DICT|INTERRES
   121   59  184 1    
   122   60   61 2    
   123   60   62 1    
   124   62   63 1    
   125   62   64 1    
   126   62  185 1    
   127   63  186 1    
   128   63  187 1    
   129   63  188 1    
   130   64   65 am   BACKBONE|DICT|INTERRES
   131   64  189 1    
   132   65   66 2    
   133   67   68 2    
   134   67   69 am   BACKBONE|DICT|INTERRES
   135   69   70 1    
   136   69  190 1    
   137   70   71 1    
   138   70   72 1    
   139   70  191 1    
   140   71  192 1    
   141   71  193 1    
   142   71  194 1    
   143   72   73 2    
   144   72   74 am   BACKBONE|DICT|INTERRES
   145   74   75 1    
   146   74  195 1    
   147   75   76 1    
   148   75   77 1    
   149   75  196 1    
   150   76  197 1    
   151   76  198 1    
   152   76  199 1    
   153   77   78 2    
   154   77   79 am   BACKBONE|DICT|INTERRES
   155   79   80 1    
   156   79  200 1    
   157   80   81 1    
   158   80   82 1    
   159   80  201 1    
   160   81  202 1    
   161   81  203 1    
   162   81  204 1    
   163   82   83 2    
   164   82   84 am   BACKBONE|DICT|INTERRES
   165   84   85 1    
   166   84  205 1    
   167   85   86 1    
   168   85   87 1    
   169   85  206 1    
   170   86  207 1    
   171   86  208 1    
   172   86  209 1    
   173   87   88 2    
   174   87   89 am   BACKBONE|DICT|INTERRES
   175   89   90 1    
   176   89  210 1    
   177   90   91 1    
   178   90   92 1    
   179   90  211 1    
   180   91  212 1    
   181   91  213 1    
   182   91  214 1    
   183   92   93 2    
   184   92   94 am   BACKBONE|DICT|INTERRES
   185   94   95 1    
   186   94  215 1    
   187   95   96 1    
   188   95   97 1    
   189   95  216 1    
   190   96  217 1    
   191   96  218 1    
   192   96  219 1    
   193   97   98 2    
   194   97   99 am   BACKBONE|DICT|INTERRES
   195   99  100 1    
   196   99  220 1    
   197  100  101 1    
   198  100  102 1    
   199  100  221 1    
   200  101  222 1    
   201  101  223 1    
   202  101  224 1    
   203  102  103 2    
   204  102  104 am   BACKBONE|DICT|INTERRES
   205  104  105 1    
   206  104  225 1    
   207  105  106 1    
   208  105  107 1    
   209  105  226 1    
   210  106  227 1    
   211  106  228 1    
   212  106  229 1    
   213  107  108 2    
   214  107  109 am   BACKBONE|DICT|INTERRES
   215  109  110 1    
   216  109  230 1    
   217  110  111 1    
   218  110  112 1    
   219  110  231 1    
   220  111  232 1    
   221  111  233 1    
   222  111  234 1    
   223  112  113 2    
   224  112  114 am   BACKBONE|DICT|INTERRES
   225  114  115 1    
   226  114  235 1    
   227  115  116 1    
   228  115  117 1    
   229  115  236 1    
   230  116  237 1    
   231  116  238 1    
   232  116  239 1    
   233  117  118 2    
   234  117  119 am   BACKBONE|DICT|INTERRES
   235  119  120 1    
   236  119  240 1    
   237  120  121 1    
   238  120  124 1    
   239  120  241 1    
   240  121  122 am   BACKBONE|DICT|INTERRES
   241  121  123 2    
   242  122  242 1    
   243  122  243 1    
   244  124  125 1    
   245  124  244 1    
   246  124  245 1    
   247  125  126 1    
   248  126  246 1    
   249  126  247 1    
@<TRIPOS>SUBSTRUCTURE
     1 UNK         1 GROUP             0       ****    0 ROOT    
