@<TRIPOS>MOLECULE
3R540
247   249    1
SMALL
USER_CHARGES


@<TRIPOS>ATOM
      1 CA         -2.9782  -15.5186  -46.2437 C.3       0 UNK        -0.1800 
      2 C          -2.6023  -14.2368  -46.9765 C.2       0 UNK         0.5000 
      3 O          -3.4193  -13.7007  -47.7239 O.2       0 UNK        -0.5000 
      4 N          -1.3723  -13.7494  -46.7815 N.am      1 UNK        -0.5000 
      5 CA         -0.8368  -12.5735  -47.4700 C.3       1 UNK         0.1400 
      6 C6         -0.5656  -12.7879  -48.9893 C.3       23 UNK        -0.0398 
      7 S7          0.4382  -14.2616  -49.4070 S.3       23 UNK        -0.2404 
      8 C8         -0.7946  -15.2671  -50.2815 C.3       23 UNK        -0.0205 
      9 C9         -0.1998  -16.5818  -50.7563 C.ar      23 UNK        -0.0193 
     10 C10         0.3170  -16.6989  -52.0495 C.ar      23 UNK        -0.1150 
     11 C11         0.8279  -17.9192  -52.5037 C.ar      23 UNK        -0.0193 
     12 C12         0.8206  -19.0268  -51.6507 C.ar      23 UNK        -0.1150 
     13 C13         0.3188  -18.9173  -50.3490 C.ar      23 UNK        -0.0193 
     14 C14        -0.1895  -17.6914  -49.9091 C.ar      23 UNK        -0.1150 
     15 C15         0.2394  -20.1266  -49.4305 C.3       23 UNK        -0.0205 
     16 S16         1.7640  -21.1143  -49.3309 S.3       23 UNK        -0.2404 
     17 C17         1.0629  -22.6040  -48.5465 C.3       23 UNK        -0.0398 
     18 CA          2.0255  -23.3326  -47.5780 C.3       11 UNK         0.1400 
     19 N           2.4063  -22.4977  -46.4298 N.am      11 UNK        -0.5000 
     20 C           3.4557  -22.7438  -45.6325 C.2       10 UNK         0.5000 
     21 O           4.2790  -23.6343  -45.8464 O.2       10 UNK        -0.5000 
     22 CA          3.5828  -21.8916  -44.3550 C.3       10 UNK         0.1400 
     23 CB          4.3718  -20.6036  -44.6343 C.3       10 UNK        -0.1800 
     24 N           2.2884  -21.5653  -43.7478 N.am      10 UNK        -0.5000 
     25 C           1.4543  -22.4622  -43.2000 C.2       9 UNK         0.5000 
     26 O           1.7074  -23.6635  -43.1209 O.2       9 UNK        -0.5000 
     27 CA          0.0890  -21.9533  -42.6959 C.3       9 UNK         0.1400 
     28 CB          0.2034  -21.4300  -41.2575 C.3       9 UNK        -0.1800 
     29 N          -0.4977  -20.9224  -43.5537 N.am      9 UNK        -0.5000 
     30 C          -0.8485  -21.1106  -44.8344 C.2       8 UNK         0.5000 
     31 O          -0.7300  -22.1821  -45.4297 O.2       8 UNK        -0.5000 
     32 CA         -1.3289  -19.8680  -45.6036 C.3       8 UNK         0.1400 
     33 CB         -2.8043  -19.5510  -45.3151 C.3       8 UNK        -0.1800 
     34 N          -0.4885  -18.6992  -45.3248 N.am      8 UNK        -0.5000 
     35 C           0.8125  -18.6137  -45.6476 C.2       7 UNK         0.5000 
     36 O           1.4177  -19.4854  -46.2688 O.2       7 UNK        -0.5000 
     37 CA          1.5800  -17.3821  -45.1330 C.3       7 UNK         0.1400 
     38 CB          1.3540  -16.1712  -46.0505 C.3       7 UNK        -0.1800 
     39 N           1.2102  -17.0524  -43.7540 N.am      7 UNK        -0.5000 
     40 C           1.5424  -17.8164  -42.6991 C.2       6 UNK         0.5000 
     41 O           2.2644  -18.8076  -42.7871 O.2       6 UNK        -0.5000 
     42 CA          0.9339  -17.4668  -41.3261 C.3       6 UNK         0.1400 
     43 CB          1.9428  -16.7170  -40.4468 C.3       6 UNK        -0.1800 
     44 N          -0.3132  -16.7093  -41.4279 N.am      6 UNK        -0.5000 
     45 C          -1.4480  -17.2167  -41.9326 C.2       5 UNK         0.5000 
     46 O          -1.5552  -18.3890  -42.2951 O.2       5 UNK        -0.5000 
     47 CA         -2.6453  -16.2619  -42.1158 C.3       5 UNK         0.1400 
     48 CB         -3.6800  -16.4827  -41.0030 C.3       5 UNK        -0.1800 
     49 N          -2.2945  -14.8388  -42.1649 N.am      5 UNK        -0.5000 
     50 C          -1.4809  -14.2653  -43.0614 C.2       4 UNK         0.5000 
     51 O          -0.9043  -14.8922  -43.9552 O.2       4 UNK        -0.5000 
     52 CA         -1.2266  -12.7487  -42.9322 C.3       4 UNK         0.1400 
     53 CB         -1.7605  -12.1149  -41.6280 C.3       4 UNK        -0.1800 
     54 N           0.1962  -12.4558  -43.1160 N.am      4 UNK        -0.5000 
     55 C           1.2147  -12.9450  -42.3902 C.2       3 UNK         0.5000 
     56 O           1.0601  -13.5893  -41.3522 O.2       3 UNK        -0.5000 
     57 CA          2.6307  -12.7174  -42.9512 C.3       3 UNK         0.1400 
     58 CB          3.6280  -13.8094  -42.5237 C.3       3 UNK        -0.1800 
     59 N           2.5845  -12.6668  -44.4114 N.am      3 UNK        -0.5000 
     60 C           3.1461  -11.7236  -45.1719 C.2       2 UNK         0.5000 
     61 O           3.8458  -10.8105  -44.7318 O.2       2 UNK        -0.5000 
     62 CA          2.8674  -11.8016  -46.6852 C.3       2 UNK         0.1400 
     63 CB          3.9939  -12.5709  -47.3922 C.3       2 UNK        -0.1800 
     64 N           1.5812  -12.3960  -47.0738 N.am      2 UNK        -0.5000 
     65 C           0.3596  -12.0001  -46.6892 C.2       1 UNK         0.5000 
     66 O           0.1529  -11.2089  -45.7684 O.2       1 UNK        -0.5000 
     67 C           1.3748  -24.6685  -47.1449 C.2       11 UNK         0.5000 
     68 O           1.2479  -25.5662  -47.9783 O.2       11 UNK        -0.5000 
     69 N           0.9368  -24.7574  -45.8789 N.am      12 UNK        -0.5000 
     70 CA          0.0904  -25.8007  -45.2906 C.3       12 UNK         0.1400 
     71 CB          0.8147  -27.1627  -45.2628 C.3       12 UNK        -0.1800 
     72 C          -1.3004  -25.8528  -45.9590 C.2       12 UNK         0.5000 
     73 O          -1.8378  -26.9361  -46.1980 O.2       12 UNK        -0.5000 
     74 N          -1.8436  -24.6686  -46.2641 N.am      13 UNK        -0.5000 
     75 CA         -3.1177  -24.4613  -46.9406 C.3       13 UNK         0.1400 
     76 CB         -2.8738  -23.5421  -48.1450 C.3       13 UNK        -0.1800 
     77 C          -4.1366  -23.8186  -45.9889 C.2       13 UNK         0.5000 
     78 O          -3.7637  -23.2310  -44.9711 O.2       13 UNK        -0.5000 
     79 N          -5.4168  -23.9249  -46.3599 N.am      14 UNK        -0.5000 
     80 CA         -6.5425  -23.3702  -45.6081 C.3       14 UNK         0.1400 
     81 CB         -7.8038  -24.1785  -45.9535 C.3       14 UNK        -0.1800 
     82 C          -6.7835  -21.8710  -45.8739 C.2       14 UNK         0.5000 
     83 O          -7.4971  -21.2385  -45.0939 O.2       14 UNK        -0.5000 
     84 N          -6.2272  -21.3296  -46.9661 N.am      15 UNK        -0.5000 
     85 CA         -6.4703  -19.9667  -47.4307 C.3       15 UNK         0.1400 
     86 CB         -7.8334  -19.9059  -48.1504 C.3       15 UNK        -0.1800 
     87 C          -5.3354  -19.4895  -48.3494 C.2       15 UNK         0.5000 
     88 O          -4.4738  -20.2826  -48.7439 O.2       15 UNK        -0.5000 
     89 N          -5.3827  -18.1916  -48.6804 N.am      16 UNK        -0.5000 
     90 CA         -4.4818  -17.4806  -49.5897 C.3       16 UNK         0.1400 
     91 CB         -4.9556  -16.0234  -49.6991 C.3       16 UNK        -0.1800 
     92 C          -4.4097  -18.1065  -50.9950 C.2       16 UNK         0.5000 
     93 O          -5.3603  -18.7584  -51.4304 O.2       16 UNK        -0.5000 
     94 N          -3.2699  -17.8931  -51.6669 N.am      17 UNK        -0.5000 
     95 CA         -2.8909  -18.4617  -52.9681 C.3       17 UNK         0.1400 
     96 CB         -3.8381  -17.9885  -54.0902 C.3       17 UNK        -0.1800 
     97 C          -2.7345  -19.9969  -52.9375 C.2       17 UNK         0.5000 
     98 O          -2.8441  -20.6458  -53.9779 O.2       17 UNK        -0.5000 
     99 N          -2.5059  -20.5512  -51.7359 N.am      18 UNK        -0.5000 
    100 CA        -2.5500  -21.9764  -51.3956 C.3       18 UNK         0.1400 
    101 CB        -1.3638  -22.7362  -52.0216 C.3       18 UNK        -0.1800 
    102 C         -3.9259  -22.5760  -51.7437 C.2       18 UNK         0.5000 
    103 O         -4.0156  -23.5606  -52.4789 O.2       18 UNK        -0.5000 
    104 N         -4.9788  -21.8703  -51.3059 N.am      19 UNK        -0.5000 
    105 CA        -6.3979  -21.9833  -51.6709 C.3       19 UNK         0.1400 
    106 CB        -6.9704  -23.3595  -51.2847 C.3       19 UNK        -0.1800 
    107 C         -6.7097  -21.6287  -53.1434 C.2       19 UNK         0.5000 
    108 O         -7.7477  -21.0216  -53.4081 O.2       19 UNK        -0.5000 
    109 N         -5.8024  -21.9926  -54.0546 N.am      20 UNK        -0.5000 
    110 CA        -5.7834  -21.7314  -55.4941 C.3       20 UNK         0.1400 
    111 CB        -7.0370  -22.3063  -56.1865 C.3       20 UNK        -0.1800 
    112 C         -4.5207  -22.3267  -56.1501 C.2       20 UNK         0.5000 
    113 O         -4.1632  -21.9040  -57.2513 O.2       20 UNK        -0.5000 
    114 N         -3.8758  -23.3048  -55.4911 N.am      21 UNK        -0.5000 
    115 CA        -2.7861  -24.1204  -56.0302 C.3       21 UNK         0.1400 
    116 CB        -2.4621  -25.2424  -55.0312 C.3       21 UNK        -0.1800 
    117 C         -1.5042  -23.3613  -56.4254 C.2       21 UNK         0.5000 
    118 O         -0.7542  -23.8777  -57.2559 O.2       21 UNK        -0.5000 
    119 N         -1.2644  -22.1705  -55.8563 N.am      22 UNK        -0.5000 
    120 CA        -0.1466  -21.2932  -56.2489 C.3       22 UNK         0.1400 
    121 C         -0.3892  -20.5299  -57.5900 C.2       22 UNK         0.5000 
    122 N         -1.6000  -20.5056  -58.1390 N.am      22 UNK        -0.7600 
    123 O          0.5481  -19.9809  -58.1635 O.2       22 UNK        -0.5000 
    124 C124        0.3782  -20.4346  -55.0487 C.3       23 UNK        -0.0398 
    125 S125        0.1260  -18.6200  -55.0973 S.3       23 UNK        -0.2404 
    126 C126        1.3833  -18.0324  -53.9159 C.3       23 UNK        -0.0205 
    127 H127       -3.6118  -16.1458  -46.8694 H         1 UNK         0.0600 
    128 H128       -3.5267  -15.2831  -45.3322 H         1 UNK         0.0600 
    129 H129       -2.0982  -16.1029  -45.9784 H         1 UNK         0.0600 
    130 H130       -0.7674  -14.1833  -46.0956 H         1 UNK         0.3000 
    131 H131       -1.6009  -11.7955  -47.4033 H         1 UNK         0.0600 
    132 H132       -0.0775  -11.9097  -49.4157 H         1 UNK         0.0800 
    133 H133       -1.5206  -12.8526  -49.5119 H         1 UNK         0.0800 
    134 H134       -1.6402  -15.4566  -49.6192 H         1 UNK         0.0800 
    135 H135       -1.1854  -14.7045  -51.1310 H         1 UNK         0.0800 
    136 H136        0.3129  -15.8410  -52.7074 H         1 UNK         0.1150 
    137 H137        1.1988  -19.9764  -52.0019 H         1 UNK         0.1150 
    138 H138       -0.5899  -17.6005  -48.9086 H         1 UNK         0.1150 
    139 H139       -0.0133  -19.8066  -48.4237 H         1 UNK         0.0800 
    140 H140       -0.5760  -20.7611  -49.7667 H         1 UNK         0.0800 
    141 H141        0.1469  -22.3369  -48.0164 H         1 UNK         0.0800 
    142 H142        0.7571  -23.2674  -49.3582 H         1 UNK         0.0800 
    143 H143        2.9319  -23.5849  -48.1326 H         1 UNK         0.0600 
    144 H144        1.8091  -21.7050  -46.2237 H         1 UNK         0.3000 
    145 H145        4.1485  -22.4773  -43.6275 H         1 UNK         0.0600 
    146 H146        4.5431  -20.0393  -43.7177 H         1 UNK         0.0600 
    147 H147        3.8509  -19.9535  -45.3365 H         1 UNK         0.0600 
    148 H148        5.3491  -20.8303  -45.0621 H         1 UNK         0.0600 
    149 H149        2.0432  -20.5815  -43.7105 H         1 UNK         0.3000 
    150 H150       -0.6005  -22.8002  -42.6933 H         1 UNK         0.0600 
    151 H151        0.9624  -20.6535  -41.1732 H         1 UNK         0.0600 
    152 H152       -0.7432  -21.0203  -40.9043 H         1 UNK         0.0600 
    153 H153        0.4866  -22.2332  -40.5764 H         1 UNK         0.0600 
    154 H154       -0.6657  -20.0134  -43.1351 H         1 UNK         0.3000 
    155 H155       -1.2566  -20.0983  -46.6652 H         1 UNK         0.0600 
    156 H156       -3.4383  -20.4003  -45.5742 H         1 UNK         0.0600 
    157 H157       -3.1476  -18.7008  -45.9044 H         1 UNK         0.0600 
    158 H158       -2.9787  -19.3253  -44.2637 H         1 UNK         0.0600 
    159 H159       -0.8953  -17.9709  -44.7573 H         1 UNK         0.3000 
    160 H160        2.6458  -17.6201  -45.1521 H         1 UNK         0.0600 
    161 H161        0.3005  -15.9073  -46.1159 H         1 UNK         0.0600 
    162 H162        1.6967  -16.3835  -47.0643 H         1 UNK         0.0600 
    163 H163        1.9034  -15.2992  -45.6980 H         1 UNK         0.0600 
    164 H164        0.5804  -16.2683  -43.6218 H         1 UNK         0.3000 
    165 H165        0.7013  -18.4054  -40.8216 H         1 UNK         0.0600 
    166 H166        1.5155  -16.4658  -39.4760 H         1 UNK         0.0600 
    167 H167        2.8271  -17.3291  -40.2651 H         1 UNK         0.0600 
    168 H168        2.2800  -15.7956  -40.9151 H         1 UNK         0.0600 
    169 H169       -0.2761  -15.7294  -41.1801 H         1 UNK         0.3000 
    170 H170       -3.1109  -16.5175  -43.0697 H         1 UNK         0.0600 
    171 H171       -3.9880  -17.5283  -40.9564 H         1 UNK         0.0600 
    172 H172       -3.2806  -16.2142  -40.0242 H         1 UNK         0.0600 
    173 H173       -4.5783  -15.8894  -41.1750 H         1 UNK         0.0600 
    174 H174       -2.7024  -14.2546  -41.4496 H         1 UNK         0.3000 
    175 H175       -1.7475  -12.2813  -43.7690 H         1 UNK         0.0600 
    176 H176       -1.3364  -12.5802  -40.7375 H         1 UNK         0.0600 
    177 H177       -1.5210  -11.0522  -41.5882 H         1 UNK         0.0600 
    178 H178       -2.8460  -12.1968  -41.5636 H         1 UNK         0.0600 
    179 H179        0.4151  -11.9355  -43.9603 H         1 UNK         0.3000 
    180 H180        2.9689  -11.7622  -42.5450 H         1 UNK         0.0600 
    181 H181        3.7217  -13.8560  -41.4381 H         1 UNK         0.0600 
    182 H182        4.6222  -13.6098  -42.9234 H         1 UNK         0.0600 
    183 H183        3.3188  -14.7940  -42.8767 H         1 UNK         0.0600 
    184 H184        2.0133  -13.3658  -44.8626 H         1 UNK         0.3000 
    185 H185        2.8699  -10.7765  -47.0607 H         1 UNK         0.0600 
    186 H186        4.9700  -12.1457  -47.1544 H         1 UNK         0.0600 
    187 H187        4.0107  -13.6201  -47.0941 H         1 UNK         0.0600 
    188 H188        3.8800  -12.5317  -48.4757 H         1 UNK         0.0600 
    189 H189        1.6244  -13.0734  -47.8252 H         1 UNK         0.3000 
    190 H190        1.1038  -23.9617  -45.2769 H         1 UNK         0.3000 
    191 H191       -0.0842  -25.5022  -44.2562 H         1 UNK         0.0600 
    192 H192        0.2412  -27.8960  -44.6949 H         1 UNK         0.0600 
    193 H193        1.7923  -27.0778  -44.7883 H         1 UNK         0.0600 
    194 H194        0.9607  -27.5690  -46.2638 H         1 UNK         0.0600 
    195 H195       -1.3780  -23.8178  -45.9519 H         1 UNK         0.3000 
    196 H196       -3.5240  -25.4101  -47.2969 H         1 UNK         0.0600 
    197 H197       -2.5055  -22.5625  -47.8353 H         1 UNK         0.0600 
    198 H198       -2.1416  -23.9774  -48.8255 H         1 UNK         0.0600 
    199 H199       -3.7928  -23.3849  -48.7105 H         1 UNK         0.0600 
    200 H200       -5.6465  -24.4233  -47.2075 H         1 UNK         0.3000 
    201 H201       -6.3489  -23.4864  -44.5394 H         1 UNK         0.0600 
    202 H202       -8.6650  -23.8223  -45.3866 H         1 UNK         0.0600 
    203 H203       -7.6744  -25.2341  -45.7137 H         1 UNK         0.0600 
    204 H204       -8.0541  -24.1017  -47.0124 H         1 UNK         0.0600 
    205 H205       -5.5922  -21.8710  -47.5364 H         1 UNK         0.3000 
    206 H206       -6.4870  -19.2964  -46.5686 H         1 UNK         0.0600 
    207 H207       -8.6502  -20.1577  -47.4739 H         1 UNK         0.0600 
    208 H208       -8.0415  -18.9088  -48.5397 H         1 UNK         0.0600 
    209 H209       -7.8735  -20.6009  -48.9889 H         1 UNK         0.0600 
    210 H210       -6.1511  -17.6431  -48.3241 H         1 UNK         0.3000 
    211 H211       -3.4856  -17.5009  -49.1432 H         1 UNK         0.0600 
    212 H212       -5.9179  -15.9523  -50.2082 H         1 UNK         0.0600 
    213 H213       -4.2426  -15.4176  -50.2597 H         1 UNK         0.0600 
    214 H214       -5.0693  -15.5642  -48.7180 H         1 UNK         0.0600 
    215 H215       -2.5533  -17.3301  -51.2318 H         1 UNK         0.3000 
    216 H216       -1.9057  -18.0588  -53.1877 H         1 UNK         0.0600 
    217 H217       -3.9535  -16.9049  -54.0796 H         1 UNK         0.0600 
    218 H218       -4.8288  -18.4357  -54.0027 H         1 UNK         0.0600 
    219 H219       -3.4448  -18.2628  -55.0700 H         1 UNK         0.0600 
    220 H220       -2.4442  -19.9201  -50.9511 H         1 UNK         0.3000 
    221 H221       -2.4513  -22.0329  -50.3142 H         1 UNK         0.0600 
    222 H222       -1.3471  -23.7739  -51.6868 H         1 UNK         0.0600 
    223 H223       -1.4157  -22.7450  -53.1089 H         1 UNK         0.0600 
    224 H224       -0.4119  -22.2873  -51.7386 H         1 UNK         0.0600 
    225 H225       -4.7726  -21.0570  -50.7360 H         1 UNK         0.3000 
    226 H226       -6.9086  -21.2340  -51.0654 H         1 UNK         0.0600 
    227 H227       -6.8017  -23.5736  -50.2293 H         1 UNK         0.0600 
    228 H228       -8.0470  -23.3921  -51.4556 H         1 UNK         0.0600 
    229 H229       -6.5253  -24.1660  -51.8677 H         1 UNK         0.0600 
    230 H230       -4.9751  -22.4467  -53.6844 H         1 UNK         0.3000 
    231 H231       -5.7519  -20.6504  -55.6412 H         1 UNK         0.0600 
    232 H232       -6.9702  -22.2015  -57.2703 H         1 UNK         0.0600 
    233 H233       -7.9449  -21.7891  -55.8789 H         1 UNK         0.0600 
    234 H234       -7.1629  -23.3671  -55.9671 H         1 UNK         0.0600 
    235 H235       -4.1991  -23.5872  -54.5754 H         1 UNK         0.3000 
    236 H236       -3.1642  -24.5876  -56.9418 H         1 UNK         0.0600 
    237 H237       -3.3404  -25.8545  -54.8255 H         1 UNK         0.0600 
    238 H238       -1.6898  -25.9059  -55.4226 H         1 UNK         0.0600 
    239 H239       -2.1021  -24.8455  -54.0822 H         1 UNK         0.0600 
    240 H240       -1.9399  -21.7759  -55.2054 H         1 UNK         0.3000 
    241 H241        0.6825  -21.9621  -56.4892 H         1 UNK         0.0600 
    242 H242       -2.3832  -20.9802  -57.7032 H         1 UNK         0.3800 
    243 H243       -1.7367  -20.0207  -59.0114 H         1 UNK         0.3800 
    244 H244        1.4538  -20.5975  -54.9710 H         1 UNK         0.0800 
    245 H245       -0.0230  -20.8049  -54.1050 H         1 UNK         0.0800 
    246 H246        1.7375  -17.0558  -54.2491 H         1 UNK         0.0800 
    247 H247        2.2581  -18.6838  -53.9273 H         1 UNK         0.0800 
@<TRIPOS>BOND
     1    1    2 1    
     2    1  127 1    
     3    1  128 1    
     4    1  129 1    
     5    2    3 2    
     6    2    4 am   BACKBONE|DICT|INTERRES
     7    4    5 1    
     8    4  130 1    
     9    5    6 1    
    10    5   65 1    
    11    5  131 1    
    12    6    7 1    
    13    6  132 1    
    14    6  133 1    
    15    7    8 1    
    16    8    9 1    
    17    8  134 1    
    18    8  135 1    
    19    9   10 ar   
    20    9   14 ar   
    21   10   11 ar   
    22   10  136 1    
    23   11   12 ar   
    24   11  126 1    
    25   12   13 ar   
    26   12  137 1    
    27   13   14 ar   
    28   13   15 1    
    29   14  138 1    
    30   15   16 1    
    31   15  139 1    
    32   15  140 1    
    33   16   17 1    
    34   17   18 1    
    35   17  141 1    
    36   17  142 1    
    37   18   19 1    
    38   18   67 1    
    39   18  143 1    
    40   19   20 am   BACKBONE|DICT|INTERRES
    41   19  144 1    
    42   20   21 2    
    43   20   22 1    
    44   22   23 1    
    45   22   24 1    
    46   22  145 1    
    47   23  146 1    
    48   23  147 1    
    49   23  148 1    
    50   24   25 am   BACKBONE|DICT|INTERRES
    51   24  149 1    
    52   25   26 2    
    53   25   27 1    
    54   27   28 1    
    55   27   29 1    
    56   27  150 1    
    57   28  151 1    
    58   28  152 1    
    59   28  153 1    
    60   29   30 am   BACKBONE|DICT|INTERRES
    61   29  154 1    
    62   30   31 2    
    63   30   32 1    
    64   32   33 1    
    65   32   34 1    
    66   32  155 1    
    67   33  156 1    
    68   33  157 1    
    69   33  158 1    
    70   34   35 am   BACKBONE|DICT|INTERRES
    71   34  159 1    
    72   35   36 2    
    73   35   37 1    
    74   37   38 1    
    75   37   39 1    
    76   37  160 1    
    77   38  161 1    
    78   38  162 1    
    79   38  163 1    
    80   39   40 am   BACKBONE|DICT|INTERRES
    81   39  164 1    
    82   40   41 2    
    83   40   42 1    
    84   42   43 1    
    85   42   44 1    
    86   42  165 1    
    87   43  166 1    
    88   43  167 1    
    89   43  168 1    
    90   44   45 am   BACKBONE|DICT|INTERRES
    91   44  169 1    
    92   45   46 2    
    93   45   47 1    
    94   47   48 1    
    95   47   49 1    
    96   47  170 1    
    97   48  171 1    
    98   48  172 1    
    99   48  173 1    
   100   49   50 am   BACKBONE|DICT|INTERRES
   101   49  174 1    
   102   50   51 2    
   103   50   52 1    
   104   52   53 1    
   105   52   54 1    
   106   52  175 1    
   107   53  176 1    
   108   53  177 1    
   109   53  178 1    
   110   54   55 am   BACKBONE|DICT|INTERRES
   111   54  179 1    
   112   55   56 2    
   113   55   57 1    
   114   57   58 1    
   115   57   59 1    
   116   57  180 1    
   117   58  181 1    
   118   58  182 1    
   119   58  183 1    
   120   59   60 am   BACKBONE|DICT|INTERRES
   121   59  184 1    
   122   60   61 2    
   123   60   62 1    
   124   62   63 1    
   125   62   64 1    
   126   62  185 1    
   127   63  186 1    
   128   63  187 1    
   129   63  188 1    
   130   64   65 am   BACKBONE|DICT|INTERRES
   131   64  189 1    
   132   65   66 2    
   133   67   68 2    
   134   67   69 am   BACKBONE|DICT|INTERRES
   135   69   70 1    
   136   69  190 1    
   137   70   71 1    
   138   70   72 1    
   139   70  191 1    
   140   71  192 1    
   141   71  193 1    
   142   71  194 1    
   143   72   73 2    
   144   72   74 am   BACKBONE|DICT|INTERRES
   145   74   75 1    
   146   74  195 1    
   147   75   76 1    
   148   75   77 1    
   149   75  196 1    
   150   76  197 1    
   151   76  198 1    
   152   76  199 1    
   153   77   78 2    
   154   77   79 am   BACKBONE|DICT|INTERRES
   155   79   80 1    
   156   79  200 1    
   157   80   81 1    
   158   80   82 1    
   159   80  201 1    
   160   81  202 1    
   161   81  203 1    
   162   81  204 1    
   163   82   83 2    
   164   82   84 am   BACKBONE|DICT|INTERRES
   165   84   85 1    
   166   84  205 1    
   167   85   86 1    
   168   85   87 1    
   169   85  206 1    
   170   86  207 1    
   171   86  208 1    
   172   86  209 1    
   173   87   88 2    
   174   87   89 am   BACKBONE|DICT|INTERRES
   175   89   90 1    
   176   89  210 1    
   177   90   91 1    
   178   90   92 1    
   179   90  211 1    
   180   91  212 1    
   181   91  213 1    
   182   91  214 1    
   183   92   93 2    
   184   92   94 am   BACKBONE|DICT|INTERRES
   185   94   95 1    
   186   94  215 1    
   187   95   96 1    
   188   95   97 1    
   189   95  216 1    
   190   96  217 1    
   191   96  218 1    
   192   96  219 1    
   193   97   98 2    
   194   97   99 am   BACKBONE|DICT|INTERRES
   195   99  100 1    
   196   99  220 1    
   197  100  101 1    
   198  100  102 1    
   199  100  221 1    
   200  101  222 1    
   201  101  223 1    
   202  101  224 1    
   203  102  103 2    
   204  102  104 am   BACKBONE|DICT|INTERRES
   205  104  105 1    
   206  104  225 1    
   207  105  106 1    
   208  105  107 1    
   209  105  226 1    
   210  106  227 1    
   211  106  228 1    
   212  106  229 1    
   213  107  108 2    
   214  107  109 am   BACKBONE|DICT|INTERRES
   215  109  110 1    
   216  109  230 1    
   217  110  111 1    
   218  110  112 1    
   219  110  231 1    
   220  111  232 1    
   221  111  233 1    
   222  111  234 1    
   223  112  113 2    
   224  112  114 am   BACKBONE|DICT|INTERRES
   225  114  115 1    
   226  114  235 1    
   227  115  116 1    
   228  115  117 1    
   229  115  236 1    
   230  116  237 1    
   231  116  238 1    
   232  116  239 1    
   233  117  118 2    
   234  117  119 am   BACKBONE|DICT|INTERRES
   235  119  120 1    
   236  119  240 1    
   237  120  121 1    
   238  120  124 1    
   239  120  241 1    
   240  121  122 am   BACKBONE|DICT|INTERRES
   241  121  123 2    
   242  122  242 1    
   243  122  243 1    
   244  124  125 1    
   245  124  244 1    
   246  124  245 1    
   247  125  126 1    
   248  126  246 1    
   249  126  247 1    
@<TRIPOS>SUBSTRUCTURE
     1 UNK         1 GROUP             0       ****    0 ROOT    
