@<TRIPOS>MOLECULE
3R540
247   249    1
SMALL
USER_CHARGES


@<TRIPOS>ATOM
      1 CA          0.1515  -18.6274  -43.5213 C.3       0 UNK        -0.1800 
      2 C          -1.1913  -17.9878  -43.8355 C.2       0 UNK         0.5000 
      3 O          -2.2238  -18.4912  -43.3928 O.2       0 UNK        -0.5000 
      4 N          -1.1836  -16.8844  -44.5930 N.am      1 UNK        -0.5000 
      5 CA         -2.3665  -16.0763  -44.8966 C.3       1 UNK         0.1400 
      6 C6         -2.0719  -15.0719  -46.0395 C.3       23 UNK        -0.0398 
      7 S7         -3.5845  -14.5217  -46.9040 S.3       23 UNK        -0.2404 
      8 C8         -3.0839  -14.5676  -48.6586 C.3       23 UNK        -0.0205 
      9 C9         -2.6092  -15.9410  -49.1176 C.ar      23 UNK        -0.0193 
     10 C10        -1.3984  -16.0699  -49.8046 C.ar      23 UNK        -0.1150 
     11 C11        -0.9488  -17.3257  -50.2215 C.ar      23 UNK        -0.0193 
     12 C12        -1.7097  -18.4615  -49.9319 C.ar      23 UNK        -0.1150 
     13 C13        -2.9219  -18.3450  -49.2463 C.ar      23 UNK        -0.0193 
     14 C14        -3.3735  -17.0821  -48.8578 C.ar      23 UNK        -0.1150 
     15 C15        -3.7576  -19.5757  -48.9341 C.3       23 UNK        -0.0205 
     16 S16        -3.7606  -19.9785  -47.1593 S.3       23 UNK        -0.2404 
     17 C17        -2.0367  -20.5085  -46.8801 C.3       23 UNK        -0.0398 
     18 CA         -1.8364  -22.0353  -47.0366 C.3       11 UNK         0.1400 
     19 N          -0.4341  -22.3594  -47.3073 N.am      11 UNK        -0.5000 
     20 C           0.0156  -23.5552  -47.7148 C.2       10 UNK         0.5000 
     21 O          -0.7199  -24.5165  -47.9279 O.2       10 UNK        -0.5000 
     22 CA          1.5401  -23.7298  -47.8620 C.3       10 UNK         0.1400 
     23 CB          1.9710  -23.4219  -49.3035 C.3       10 UNK        -0.1800 
     24 N           2.3137  -22.8950  -46.9410 N.am      10 UNK        -0.5000 
     25 C           2.2160  -22.9241  -45.6042 C.2       9 UNK         0.5000 
     26 O           1.5266  -23.7401  -44.9924 O.2       9 UNK        -0.5000 
     27 CA          2.9518  -21.8178  -44.8220 C.3       9 UNK         0.1400 
     28 CB          4.2921  -22.3404  -44.2856 C.3       9 UNK        -0.1800 
     29 N           3.1896  -20.5791  -45.5735 N.am      9 UNK        -0.5000 
     30 C           2.2668  -19.8245  -46.1847 C.2       8 UNK         0.5000 
     31 O           1.0775  -20.1375  -46.2549 O.2       8 UNK        -0.5000 
     32 CA          2.7606  -18.5076  -46.8201 C.3       8 UNK         0.1400 
     33 CB          1.6450  -17.7974  -47.6070 C.3       8 UNK        -0.1800 
     34 N           3.3189  -17.5785  -45.8320 N.am      8 UNK        -0.5000 
     35 C           4.5125  -17.7058  -45.2293 C.2       7 UNK         0.5000 
     36 O           5.2767  -18.6477  -45.4479 O.2       7 UNK        -0.5000 
     37 CA          4.9512  -16.6137  -44.2306 C.3       7 UNK         0.1400 
     38 CB          6.1373  -15.8160  -44.7957 C.3       7 UNK        -0.1800 
     39 N           3.8868  -15.6739  -43.8828 N.am      7 UNK        -0.5000 
     40 C           2.8970  -15.9054  -43.0103 C.2       6 UNK         0.5000 
     41 O           2.8068  -16.9335  -42.3404 O.2       6 UNK        -0.5000 
     42 CA          1.8160  -14.8111  -42.8794 C.3       6 UNK         0.1400 
     43 CB          2.0117  -14.0058  -41.5866 C.3       6 UNK        -0.1800 
     44 N           1.7820  -13.8814  -44.0131 N.am      6 UNK        -0.5000 
     45 C           1.4361  -14.2000  -45.2652 C.2       5 UNK         0.5000 
     46 O           1.1021  -15.3410  -45.5882 O.2       5 UNK        -0.5000 
     47 CA          1.4927  -13.0676  -46.3170 C.3       5 UNK         0.1400 
     48 CB          0.9496  -13.4999  -47.6915 C.3       5 UNK        -0.1800 
     49 N           0.7906  -11.8536  -45.8895 N.am      5 UNK        -0.5000 
     50 C           1.2389  -10.9582  -44.9978 C.2       4 UNK         0.5000 
     51 O           2.3282  -11.0569  -44.4310 O.2       4 UNK        -0.5000 
     52 CA          0.3164   -9.7690  -44.6585 C.3       4 UNK         0.1400 
     53 CB          0.7277   -8.5277  -45.4647 C.3       4 UNK        -0.1800 
     54 N          -1.1117  -10.0255  -44.8763 N.am      4 UNK        -0.5000 
     55 C          -1.8433  -10.9328  -44.2143 C.2       3 UNK         0.5000 
     56 O          -1.3685  -11.6758  -43.3533 O.2       3 UNK        -0.5000 
     57 CA         -3.3419  -11.0171  -44.5864 C.3       3 UNK         0.1400 
     58 CB         -3.5809  -10.8493  -46.1000 C.3       3 UNK        -0.1800 
     59 N          -3.9256  -12.2902  -44.1675 N.am      3 UNK        -0.5000 
     60 C          -4.3584  -12.5898  -42.9341 C.2       2 UNK         0.5000 
     61 O          -4.4395  -11.7705  -42.0176 O.2       2 UNK        -0.5000 
     62 CA         -4.7718  -14.0567  -42.6815 C.3       2 UNK         0.1400 
     63 CB         -6.2997  -14.2051  -42.7457 C.3       2 UNK        -0.1800 
     64 N          -4.1642  -14.9845  -43.6398 N.am      2 UNK        -0.5000 
     65 C          -2.8700  -15.3307  -43.6397 C.2       1 UNK         0.5000 
     66 O          -2.0837  -15.0313  -42.7375 O.2       1 UNK        -0.5000 
     67 C          -2.4034  -22.8188  -45.8322 C.2       11 UNK         0.5000 
     68 O          -3.5932  -23.1271  -45.8246 O.2       11 UNK        -0.5000 
     69 N          -1.5531  -23.1742  -44.8571 N.am      12 UNK        -0.5000 
     70 CA         -1.9451  -24.0043  -43.7164 C.3       12 UNK         0.1400 
     71 CB         -0.8993  -23.8778  -42.5983 C.3       12 UNK        -0.1800 
     72 C          -2.1497  -25.4781  -44.1162 C.2       12 UNK         0.5000 
     73 O          -3.0316  -26.1384  -43.5666 O.2       12 UNK        -0.5000 
     74 N          -1.3462  -25.9598  -45.0744 N.am      13 UNK        -0.5000 
     75 CA         -1.4189  -27.3178  -45.6118 C.3       13 UNK         0.1400 
     76 CB         -0.0670  -27.6837  -46.2448 C.3       13 UNK        -0.1800 
     77 C          -2.5607  -27.4768  -46.6316 C.2       13 UNK         0.5000 
     78 O          -3.3092  -28.4521  -46.5648 O.2       13 UNK        -0.5000 
     79 N          -2.6731  -26.5132  -47.5544 N.am      14 UNK        -0.5000 
     80 CA         -3.6337  -26.5100  -48.6599 C.3       14 UNK         0.1400 
     81 CB         -3.0245  -25.7054  -49.8174 C.3       14 UNK        -0.1800 
     82 C          -5.0106  -25.9303  -48.2830 C.2       14 UNK         0.5000 
     83 O          -5.8923  -25.8779  -49.1427 O.2       14 UNK        -0.5000 
     84 N          -5.1576  -25.4444  -47.0425 N.am      15 UNK        -0.5000 
     85 CA         -6.3203  -24.7947  -46.4169 C.3       15 UNK         0.1400 
     86 CB         -7.5379  -25.7376  -46.3885 C.3       15 UNK        -0.1800 
     87 C          -6.6977  -23.4197  -47.0094 C.2       15 UNK         0.5000 
     88 O          -7.0872  -22.5258  -46.2569 O.2       15 UNK        -0.5000 
     89 N          -6.5723  -23.2749  -48.3314 N.am      16 UNK        -0.5000 
     90 CA         -6.8072  -22.0567  -49.1028 C.3       16 UNK         0.1400 
     91 CB         -8.3108  -21.7271  -49.1620 C.3       16 UNK        -0.1800 
     92 C          -6.2380  -22.1723  -50.5265 C.2       16 UNK         0.5000 
     93 O          -5.8657  -21.1523  -51.1064 O.2       16 UNK        -0.5000 
     94 N          -6.1730  -23.3978  -51.0742 N.am      17 UNK        -0.5000 
     95 CA         -5.8557  -23.6775  -52.4805 C.3       17 UNK         0.1400 
     96 CB         -6.0788  -25.1723  -52.7567 C.3       17 UNK        -0.1800 
     97 C          -4.4560  -23.2337  -52.9529 C.2       17 UNK         0.5000 
     98 O          -4.2562  -23.0668  -54.1568 O.2       17 UNK        -0.5000 
     99 N          -3.5245  -23.0096  -52.0140 N.am      18 UNK        -0.5000 
    100 CA        -2.1850  -22.4791  -52.2836 C.3       18 UNK         0.1400 
    101 CB        -1.3283  -22.5435  -51.0104 C.3       18 UNK        -0.1800 
    102 C         -2.1875  -21.0480  -52.8544 C.2       18 UNK         0.5000 
    103 O         -1.2353  -20.6870  -53.5453 O.2       18 UNK        -0.5000 
    104 N         -3.2600  -20.2774  -52.6055 N.am      19 UNK        -0.5000 
    105 CA        -3.4544  -18.9040  -53.0893 C.3       19 UNK         0.1400 
    106 CB        -4.7662  -18.3493  -52.5131 C.3       19 UNK        -0.1800 
    107 C         -3.4580  -18.7597  -54.6251 C.2       19 UNK         0.5000 
    108 O         -3.2590  -17.6552  -55.1316 O.2       19 UNK        -0.5000 
    109 N         -3.6782  -19.8717  -55.3391 N.am      20 UNK        -0.5000 
    110 CA        -3.6509  -19.9582  -56.7965 C.3       20 UNK         0.1400 
    111 CB        -4.2838  -21.2943  -57.2162 C.3       20 UNK        -0.1800 
    112 C         -2.2430  -19.8138  -57.4122 C.2       20 UNK         0.5000 
    113 O         -2.1548  -19.5854  -58.6200 O.2       20 UNK        -0.5000 
    114 N         -1.1765  -19.9604  -56.6104 N.am      21 UNK        -0.5000 
    115 CA         0.2070  -19.9039  -57.0891 C.3       21 UNK         0.1400 
    116 CB         0.6666  -21.3099  -57.5132 C.3       21 UNK        -0.1800 
    117 C          1.1829  -19.2976  -56.0694 C.2       21 UNK         0.5000 
    118 O          2.0744  -18.5500  -56.4737 O.2       21 UNK        -0.5000 
    119 N          1.0240  -19.6365  -54.7826 N.am      22 UNK        -0.5000 
    120 CA         1.9018  -19.2402  -53.6643 C.3       22 UNK         0.1400 
    121 C          3.3704  -19.7630  -53.7597 C.2       22 UNK         0.5000 
    122 N          3.6504  -20.8039  -54.5348 N.am      22 UNK        -0.7600 
    123 O          4.2675  -19.2470  -53.0986 O.2       22 UNK        -0.5000 
    124 C124        1.8139  -17.7235  -53.3310 C.3       23 UNK        -0.0398 
    125 S125        0.1473  -17.2496  -52.7614 S.3       23 UNK        -0.2404 
    126 C126        0.3672  -17.4583  -50.9685 C.3       23 UNK        -0.0205 
    127 H127        0.9572  -18.1644  -44.0899 H         1 UNK         0.0600 
    128 H128        0.1289  -19.6904  -43.7607 H         1 UNK         0.0600 
    129 H129        0.3790  -18.5210  -42.4608 H         1 UNK         0.0600 
    130 H130       -0.3022  -16.4957  -44.9156 H         1 UNK         0.3000 
    131 H131       -3.1461  -16.7660  -45.2286 H         1 UNK         0.0600 
    132 H132       -1.4086  -15.5410  -46.7665 H         1 UNK         0.0800 
    133 H133       -1.5353  -14.1956  -45.6721 H         1 UNK         0.0800 
    134 H134       -2.3103  -13.8157  -48.8199 H         1 UNK         0.0800 
    135 H135       -3.9342  -14.2700  -49.2733 H         1 UNK         0.0800 
    136 H136       -0.8030  -15.1934  -50.0184 H         1 UNK         0.1150 
    137 H137       -1.3592  -19.4341  -50.2460 H         1 UNK         0.1150 
    138 H138       -4.3132  -16.9914  -48.3315 H         1 UNK         0.1150 
    139 H139       -4.7854  -19.3888  -49.2463 H         1 UNK         0.0800 
    140 H140       -3.4181  -20.4384  -49.5065 H         1 UNK         0.0800 
    141 H141       -1.7249  -20.1762  -45.8887 H         1 UNK         0.0800 
    142 H142       -1.3928  -19.9706  -47.5758 H         1 UNK         0.0800 
    143 H143       -2.4021  -22.3610  -47.9117 H         1 UNK         0.0600 
    144 H144        0.2362  -21.6259  -47.0906 H         1 UNK         0.3000 
    145 H145        1.7747  -24.7737  -47.6444 H         1 UNK         0.0600 
    146 H146        3.0335  -23.6176  -49.4487 H         1 UNK         0.0600 
    147 H147        1.4273  -24.0449  -50.0152 H         1 UNK         0.0600 
    148 H148        1.7813  -22.3804  -49.5669 H         1 UNK         0.0600 
    149 H149        2.9016  -22.1874  -47.3553 H         1 UNK         0.3000 
    150 H150        2.3207  -21.5585  -43.9697 H         1 UNK         0.0600 
    151 H151        4.1516  -23.2458  -43.6934 H         1 UNK         0.0600 
    152 H152        4.7733  -21.6038  -43.6418 H         1 UNK         0.0600 
    153 H153        4.9820  -22.5802  -45.0957 H         1 UNK         0.0600 
    154 H154        4.1337  -20.2049  -45.5410 H         1 UNK         0.3000 
    155 H155        3.5477  -18.7679  -47.5307 H         1 UNK         0.0600 
    156 H156        0.8005  -17.5344  -46.9694 H         1 UNK         0.0600 
    157 H157        1.2599  -18.4450  -48.3940 H         1 UNK         0.0600 
    158 H158        2.0075  -16.8853  -48.0803 H         1 UNK         0.0600 
    159 H159        2.7335  -16.7881  -45.5915 H         1 UNK         0.3000 
    160 H160        5.2829  -17.1197  -43.3216 H         1 UNK         0.0600 
    161 H161        5.8678  -15.2880  -45.7113 H         1 UNK         0.0600 
    162 H162        6.9761  -16.4728  -45.0305 H         1 UNK         0.0600 
    163 H163        6.4965  -15.0800  -44.0761 H         1 UNK         0.0600 
    164 H164        3.8845  -14.7934  -44.3755 H         1 UNK         0.3000 
    165 H165        0.8477  -15.3134  -42.8265 H         1 UNK         0.0600 
    166 H166        2.0127  -14.6600  -40.7138 H         1 UNK         0.0600 
    167 H167        2.9562  -13.4603  -41.5917 H         1 UNK         0.0600 
    168 H168        1.2064  -13.2836  -41.4492 H         1 UNK         0.0600 
    169 H169        2.0485  -12.9190  -43.8305 H         1 UNK         0.3000 
    170 H170        2.5489  -12.8244  -46.4496 H         1 UNK         0.0600 
    171 H171        1.4526  -14.3977  -48.0527 H         1 UNK         0.0600 
    172 H172       -0.1176  -13.7118  -47.6580 H         1 UNK         0.0600 
    173 H173        1.1092  -12.7217  -48.4378 H         1 UNK         0.0600 
    174 H174       -0.1240  -11.7008  -46.2865 H         1 UNK         0.3000 
    175 H175        0.4548   -9.5471  -43.5983 H         1 UNK         0.0600 
    176 H176        0.5849   -8.6779  -46.5356 H         1 UNK         0.0600 
    177 H177        0.1489   -7.6532  -45.1669 H         1 UNK         0.0600 
    178 H178        1.7799   -8.2879  -45.3045 H         1 UNK         0.0600 
    179 H179       -1.5669   -9.4500  -45.5700 H         1 UNK         0.3000 
    180 H180       -3.8555  -10.2056  -44.0670 H         1 UNK         0.0600 
    181 H181       -4.6267  -11.0230  -46.3551 H         1 UNK         0.0600 
    182 H182       -2.9774  -11.5443  -46.6850 H         1 UNK         0.0600 
    183 H183       -3.3404   -9.8396  -46.4337 H         1 UNK         0.0600 
    184 H184       -3.8891  -13.0364  -44.8462 H         1 UNK         0.3000 
    185 H185       -4.4422  -14.3264  -41.6759 H         1 UNK         0.0600 
    186 H186       -6.6073  -15.2247  -42.5131 H         1 UNK         0.0600 
    187 H187       -6.7863  -13.5475  -42.0241 H         1 UNK         0.0600 
    188 H188       -6.6879  -13.9529  -43.7334 H         1 UNK         0.0600 
    189 H189       -4.7464  -15.2720  -44.4141 H         1 UNK         0.3000 
    190 H190       -0.5708  -22.9466  -44.9419 H         1 UNK         0.3000 
    191 H191       -2.8944  -23.6290  -43.3277 H         1 UNK         0.0600 
    192 H192       -1.2234  -24.4116  -41.7042 H         1 UNK         0.0600 
    193 H193       -0.7443  -22.8360  -42.3170 H         1 UNK         0.0600 
    194 H194        0.0639  -24.2943  -42.8926 H         1 UNK         0.0600 
    195 H195       -0.6566  -25.3434  -45.4806 H         1 UNK         0.3000 
    196 H196       -1.6032  -28.0124  -44.7893 H         1 UNK         0.0600 
    197 H197        0.1896  -27.0178  -47.0694 H         1 UNK         0.0600 
    198 H198        0.7376  -27.6316  -45.5111 H         1 UNK         0.0600 
    199 H199       -0.0832  -28.7011  -46.6376 H         1 UNK         0.0600 
    200 H200       -1.9867  -25.7604  -47.5633 H         1 UNK         0.3000 
    201 H201       -3.7903  -27.5352  -49.0011 H         1 UNK         0.0600 
    202 H202       -2.9378  -24.6505  -49.5575 H         1 UNK         0.0600 
    203 H203       -3.6365  -25.7769  -50.7151 H         1 UNK         0.0600 
    204 H204       -2.0305  -26.0706  -50.0763 H         1 UNK         0.0600 
    205 H205       -4.3328  -25.4624  -46.4588 H         1 UNK         0.3000 
    206 H206       -6.0251  -24.6119  -45.3824 H         1 UNK         0.0600 
    207 H207       -7.2910  -26.6855  -45.9103 H         1 UNK         0.0600 
    208 H208       -8.3592  -25.2931  -45.8250 H         1 UNK         0.0600 
    209 H209       -7.9116  -25.9533  -47.3898 H         1 UNK         0.0600 
    210 H210       -6.2518  -24.0929  -48.8395 H         1 UNK         0.3000 
    211 H211       -6.2866  -21.2356  -48.6076 H         1 UNK         0.0600 
    212 H212       -8.4937  -20.8451  -49.7772 H         1 UNK         0.0600 
    213 H213       -8.7153  -21.5148  -48.1726 H         1 UNK         0.0600 
    214 H214       -8.8843  -22.5509  -49.5885 H         1 UNK         0.0600 
    215 H215       -6.4915  -24.1951  -50.5407 H         1 UNK         0.3000 
    216 H216       -6.5731  -23.1190  -53.0853 H         1 UNK         0.0600 
    217 H217       -5.4398  -25.8002  -52.1371 H         1 UNK         0.0600 
    218 H218       -5.8674  -25.4158  -53.7989 H         1 UNK         0.0600 
    219 H219       -7.1130  -25.4575  -52.5632 H         1 UNK         0.0600 
    220 H220       -3.7776  -23.1571  -51.0497 H         1 UNK         0.3000 
    221 H221       -1.7188  -23.1199  -53.0349 H         1 UNK         0.0600 
    222 H222       -1.1654  -23.5738  -50.6967 H         1 UNK         0.0600 
    223 H223       -1.7880  -22.0046  -50.1838 H         1 UNK         0.0600 
    224 H224       -0.3436  -22.1046  -51.1776 H         1 UNK         0.0600 
    225 H225       -4.0248  -20.6668  -52.0656 H         1 UNK         0.3000 
    226 H226       -2.6307  -18.2991  -52.7090 H         1 UNK         0.0600 
    227 H227       -5.6273  -18.9291  -52.8474 H         1 UNK         0.0600 
    228 H228       -4.7601  -18.3590  -51.4251 H         1 UNK         0.0600 
    229 H229       -4.9244  -17.3155  -52.8226 H         1 UNK         0.0600 
    230 H230       -3.8318  -20.7383  -54.8408 H         1 UNK         0.3000 
    231 H231       -4.2655  -19.1489  -57.1960 H         1 UNK         0.0600 
    232 H232       -3.7118  -22.1439  -56.8408 H         1 UNK         0.0600 
    233 H233       -4.3301  -21.3833  -58.3023 H         1 UNK         0.0600 
    234 H234       -5.3030  -21.3848  -56.8400 H         1 UNK         0.0600 
    235 H235       -1.3211  -20.1138  -55.6195 H         1 UNK         0.3000 
    236 H236        0.2566  -19.2553  -57.9666 H         1 UNK         0.0600 
    237 H237        0.0598  -21.6921  -58.3342 H         1 UNK         0.0600 
    238 H238        1.7024  -21.2983  -57.8550 H         1 UNK         0.0600 
    239 H239        0.5980  -22.0199  -56.6883 H         1 UNK         0.0600 
    240 H240        0.2368  -20.2154  -54.5030 H         1 UNK         0.3000 
    241 H241        1.5051  -19.7747  -52.8005 H         1 UNK         0.0600 
    242 H242        4.5979  -21.1439  -54.5846 H         1 UNK         0.3800 
    243 H243        2.9272  -21.2527  -55.0729 H         1 UNK         0.3800 
    244 H244        2.0732  -17.1207  -54.2017 H         1 UNK         0.0800 
    245 H245        2.5282  -17.4445  -52.5549 H         1 UNK         0.0800 
    246 H246        0.8060  -18.4374  -50.7718 H         1 UNK         0.0800 
    247 H247        1.0805  -16.7190  -50.6009 H         1 UNK         0.0800 
@<TRIPOS>BOND
     1    1    2 1    
     2    1  127 1    
     3    1  128 1    
     4    1  129 1    
     5    2    3 2    
     6    2    4 am   BACKBONE|DICT|INTERRES
     7    4    5 1    
     8    4  130 1    
     9    5    6 1    
    10    5   65 1    
    11    5  131 1    
    12    6    7 1    
    13    6  132 1    
    14    6  133 1    
    15    7    8 1    
    16    8    9 1    
    17    8  134 1    
    18    8  135 1    
    19    9   10 ar   
    20    9   14 ar   
    21   10   11 ar   
    22   10  136 1    
    23   11   12 ar   
    24   11  126 1    
    25   12   13 ar   
    26   12  137 1    
    27   13   14 ar   
    28   13   15 1    
    29   14  138 1    
    30   15   16 1    
    31   15  139 1    
    32   15  140 1    
    33   16   17 1    
    34   17   18 1    
    35   17  141 1    
    36   17  142 1    
    37   18   19 1    
    38   18   67 1    
    39   18  143 1    
    40   19   20 am   BACKBONE|DICT|INTERRES
    41   19  144 1    
    42   20   21 2    
    43   20   22 1    
    44   22   23 1    
    45   22   24 1    
    46   22  145 1    
    47   23  146 1    
    48   23  147 1    
    49   23  148 1    
    50   24   25 am   BACKBONE|DICT|INTERRES
    51   24  149 1    
    52   25   26 2    
    53   25   27 1    
    54   27   28 1    
    55   27   29 1    
    56   27  150 1    
    57   28  151 1    
    58   28  152 1    
    59   28  153 1    
    60   29   30 am   BACKBONE|DICT|INTERRES
    61   29  154 1    
    62   30   31 2    
    63   30   32 1    
    64   32   33 1    
    65   32   34 1    
    66   32  155 1    
    67   33  156 1    
    68   33  157 1    
    69   33  158 1    
    70   34   35 am   BACKBONE|DICT|INTERRES
    71   34  159 1    
    72   35   36 2    
    73   35   37 1    
    74   37   38 1    
    75   37   39 1    
    76   37  160 1    
    77   38  161 1    
    78   38  162 1    
    79   38  163 1    
    80   39   40 am   BACKBONE|DICT|INTERRES
    81   39  164 1    
    82   40   41 2    
    83   40   42 1    
    84   42   43 1    
    85   42   44 1    
    86   42  165 1    
    87   43  166 1    
    88   43  167 1    
    89   43  168 1    
    90   44   45 am   BACKBONE|DICT|INTERRES
    91   44  169 1    
    92   45   46 2    
    93   45   47 1    
    94   47   48 1    
    95   47   49 1    
    96   47  170 1    
    97   48  171 1    
    98   48  172 1    
    99   48  173 1    
   100   49   50 am   BACKBONE|DICT|INTERRES
   101   49  174 1    
   102   50   51 2    
   103   50   52 1    
   104   52   53 1    
   105   52   54 1    
   106   52  175 1    
   107   53  176 1    
   108   53  177 1    
   109   53  178 1    
   110   54   55 am   BACKBONE|DICT|INTERRES
   111   54  179 1    
   112   55   56 2    
   113   55   57 1    
   114   57   58 1    
   115   57   59 1    
   116   57  180 1    
   117   58  181 1    
   118   58  182 1    
   119   58  183 1    
   120   59   60 am   BACKBONE|DICT|INTERRES
   121   59  184 1    
   122   60   61 2    
   123   60   62 1    
   124   62   63 1    
   125   62   64 1    
   126   62  185 1    
   127   63  186 1    
   128   63  187 1    
   129   63  188 1    
   130   64   65 am   BACKBONE|DICT|INTERRES
   131   64  189 1    
   132   65   66 2    
   133   67   68 2    
   134   67   69 am   BACKBONE|DICT|INTERRES
   135   69   70 1    
   136   69  190 1    
   137   70   71 1    
   138   70   72 1    
   139   70  191 1    
   140   71  192 1    
   141   71  193 1    
   142   71  194 1    
   143   72   73 2    
   144   72   74 am   BACKBONE|DICT|INTERRES
   145   74   75 1    
   146   74  195 1    
   147   75   76 1    
   148   75   77 1    
   149   75  196 1    
   150   76  197 1    
   151   76  198 1    
   152   76  199 1    
   153   77   78 2    
   154   77   79 am   BACKBONE|DICT|INTERRES
   155   79   80 1    
   156   79  200 1    
   157   80   81 1    
   158   80   82 1    
   159   80  201 1    
   160   81  202 1    
   161   81  203 1    
   162   81  204 1    
   163   82   83 2    
   164   82   84 am   BACKBONE|DICT|INTERRES
   165   84   85 1    
   166   84  205 1    
   167   85   86 1    
   168   85   87 1    
   169   85  206 1    
   170   86  207 1    
   171   86  208 1    
   172   86  209 1    
   173   87   88 2    
   174   87   89 am   BACKBONE|DICT|INTERRES
   175   89   90 1    
   176   89  210 1    
   177   90   91 1    
   178   90   92 1    
   179   90  211 1    
   180   91  212 1    
   181   91  213 1    
   182   91  214 1    
   183   92   93 2    
   184   92   94 am   BACKBONE|DICT|INTERRES
   185   94   95 1    
   186   94  215 1    
   187   95   96 1    
   188   95   97 1    
   189   95  216 1    
   190   96  217 1    
   191   96  218 1    
   192   96  219 1    
   193   97   98 2    
   194   97   99 am   BACKBONE|DICT|INTERRES
   195   99  100 1    
   196   99  220 1    
   197  100  101 1    
   198  100  102 1    
   199  100  221 1    
   200  101  222 1    
   201  101  223 1    
   202  101  224 1    
   203  102  103 2    
   204  102  104 am   BACKBONE|DICT|INTERRES
   205  104  105 1    
   206  104  225 1    
   207  105  106 1    
   208  105  107 1    
   209  105  226 1    
   210  106  227 1    
   211  106  228 1    
   212  106  229 1    
   213  107  108 2    
   214  107  109 am   BACKBONE|DICT|INTERRES
   215  109  110 1    
   216  109  230 1    
   217  110  111 1    
   218  110  112 1    
   219  110  231 1    
   220  111  232 1    
   221  111  233 1    
   222  111  234 1    
   223  112  113 2    
   224  112  114 am   BACKBONE|DICT|INTERRES
   225  114  115 1    
   226  114  235 1    
   227  115  116 1    
   228  115  117 1    
   229  115  236 1    
   230  116  237 1    
   231  116  238 1    
   232  116  239 1    
   233  117  118 2    
   234  117  119 am   BACKBONE|DICT|INTERRES
   235  119  120 1    
   236  119  240 1    
   237  120  121 1    
   238  120  124 1    
   239  120  241 1    
   240  121  122 am   BACKBONE|DICT|INTERRES
   241  121  123 2    
   242  122  242 1    
   243  122  243 1    
   244  124  125 1    
   245  124  244 1    
   246  124  245 1    
   247  125  126 1    
   248  126  246 1    
   249  126  247 1    
@<TRIPOS>SUBSTRUCTURE
     1 UNK         1 GROUP             0       ****    0 ROOT    
