@<TRIPOS>MOLECULE
3R540
247   249    1
SMALL
USER_CHARGES


@<TRIPOS>ATOM
      1 CA          4.2030  -12.9791  -51.2815 C.3       0 UNK        -0.1800 
      2 C           3.7935  -14.2390  -50.5313 C.2       0 UNK         0.5000 
      3 O           4.3886  -15.2966  -50.7405 O.2       0 UNK        -0.5000 
      4 N           2.7770  -14.1302  -49.6677 N.am      1 UNK        -0.5000 
      5 CA          2.2645  -15.2176  -48.8278 C.3       1 UNK         0.1400 
      6 C6          0.9072  -14.8541  -48.1831 C.3       23 UNK        -0.0398 
      7 S7         -0.3992  -14.4489  -49.3935 S.3       23 UNK        -0.2404 
      8 C8         -1.4337  -15.9475  -49.3587 C.3       23 UNK        -0.0205 
      9 C9         -0.8324  -17.0851  -50.1680 C.ar      23 UNK        -0.0193 
     10 C10        -1.2246  -17.2935  -51.4939 C.ar      23 UNK        -0.1150 
     11 C11        -0.7166  -18.3747  -52.2204 C.ar      23 UNK        -0.0193 
     12 C12         0.2002  -19.2403  -51.6183 C.ar      23 UNK        -0.1150 
     13 C13         0.6059  -19.0397  -50.2967 C.ar      23 UNK        -0.0193 
     14 C14         0.0814  -17.9611  -49.5773 C.ar      23 UNK        -0.1150 
     15 C15         1.6025  -19.9937  -49.6525 C.3       23 UNK        -0.0205 
     16 S16         0.9738  -20.6474  -48.0801 S.3       23 UNK        -0.2404 
     17 C17         2.0874  -22.0641  -47.7947 C.3       23 UNK        -0.0398 
     18 CA          1.8107  -22.7794  -46.4505 C.3       11 UNK         0.1400 
     19 N           2.0177  -21.8704  -45.3232 N.am      11 UNK        -0.5000 
     20 C           2.1830  -22.2273  -44.0448 C.2       10 UNK         0.5000 
     21 O           2.2147  -23.3963  -43.6594 O.2       10 UNK        -0.5000 
     22 CA          2.3034  -21.0756  -43.0266 C.3       10 UNK         0.1400 
     23 CB          3.7793  -20.7666  -42.7343 C.3       10 UNK        -0.1800 
     24 N           1.6362  -19.8409  -43.4537 N.am      10 UNK        -0.5000 
     25 C           0.3201  -19.7069  -43.6522 C.2       9 UNK         0.5000 
     26 O          -0.4793  -20.6386  -43.5499 O.2       9 UNK        -0.5000 
     27 CA         -0.1632  -18.3142  -44.0987 C.3       9 UNK         0.1400 
     28 CB         -0.1301  -18.2249  -45.6313 C.3       9 UNK        -0.1800 
     29 N          -1.5125  -17.9932  -43.6309 N.am      9 UNK        -0.5000 
     30 C          -1.9022  -17.9577  -42.3461 C.2       8 UNK         0.5000 
     31 O          -1.1410  -18.1570  -41.3979 O.2       8 UNK        -0.5000 
     32 CA         -3.3791  -17.6269  -42.0461 C.3       8 UNK         0.1400 
     33 CB         -3.4988  -16.2783  -41.3174 C.3       8 UNK        -0.1800 
     34 N          -4.2174  -17.5978  -43.2443 N.am      8 UNK        -0.5000 
     35 C          -4.7116  -18.6849  -43.8536 C.2       7 UNK         0.5000 
     36 O          -4.5863  -19.8254  -43.4086 O.2       7 UNK        -0.5000 
     37 CA         -5.4750  -18.4775  -45.1799 C.3       7 UNK         0.1400 
     38 CB         -6.9745  -18.7519  -44.9859 C.3       7 UNK        -0.1800 
     39 N          -5.3182  -17.1465  -45.7732 N.am      7 UNK        -0.5000 
     40 C          -4.1744  -16.6402  -46.2533 C.2       6 UNK         0.5000 
     41 O          -3.1027  -17.2440  -46.2061 O.2       6 UNK        -0.5000 
     42 CA         -4.2372  -15.2310  -46.8863 C.3       6 UNK         0.1400 
     43 CB         -5.5197  -14.4443  -46.5322 C.3       6 UNK        -0.1800 
     44 N          -3.0558  -14.4114  -46.5969 N.am      6 UNK        -0.5000 
     45 C          -2.5676  -14.0926  -45.3904 C.2       5 UNK         0.5000 
     46 O          -3.0384  -14.4880  -44.3213 O.2       5 UNK        -0.5000 
     47 CA         -1.3996  -13.0904  -45.3928 C.3       5 UNK         0.1400 
     48 CB         -1.9357  -11.6505  -45.3683 C.3       5 UNK        -0.1800 
     49 N          -0.5029  -13.2749  -44.2531 N.am      5 UNK        -0.5000 
     50 C           0.4249  -14.2337  -44.1716 C.2       4 UNK         0.5000 
     51 O           0.6305  -15.0662  -45.0551 O.2       4 UNK        -0.5000 
     52 CA          1.2823  -14.2509  -42.9001 C.3       4 UNK         0.1400 
     53 CB          0.5177  -14.8580  -41.7119 C.3       4 UNK        -0.1800 
     54 N           2.4891  -15.0286  -43.1597 N.am      4 UNK        -0.5000 
     55 C           3.6776  -14.8565  -42.5784 C.2       3 UNK         0.5000 
     56 O           3.8850  -14.0081  -41.7094 O.2       3 UNK        -0.5000 
     57 CA          4.8472  -15.7565  -43.0325 C.3       3 UNK         0.1400 
     58 CB          5.0259  -16.9435  -42.0653 C.3       3 UNK        -0.1800 
     59 N           4.8106  -16.2146  -44.4315 N.am      3 UNK        -0.5000 
     60 C           3.9775  -17.0920  -45.0050 C.2       2 UNK         0.5000 
     61 O           3.0119  -17.5958  -44.4322 O.2       2 UNK        -0.5000 
     62 CA          4.2860  -17.4924  -46.4595 C.3       2 UNK         0.1400 
     63 CB          4.2669  -19.0214  -46.6213 C.3       2 UNK        -0.1800 
     64 N           3.3396  -16.9085  -47.4083 N.am      2 UNK        -0.5000 
     65 C           3.2895  -15.6121  -47.7398 C.2       1 UNK         0.5000 
     66 O           4.0108  -14.7490  -47.2317 O.2       1 UNK        -0.5000 
     67 C           0.4171  -23.4513  -46.4434 C.2       11 UNK         0.5000 
     68 O           0.2548  -24.4903  -47.0845 O.2       11 UNK        -0.5000 
     69 N          -0.5589  -22.8744  -45.7196 N.am      12 UNK        -0.5000 
     70 CA         -1.9525  -23.3310  -45.6768 C.3       12 UNK         0.1400 
     71 CB         -2.8152  -22.3015  -44.9344 C.3       12 UNK        -0.1800 
     72 C          -2.1352  -24.7365  -45.0720 C.2       12 UNK         0.5000 
     73 O          -3.1479  -25.3814  -45.3431 O.2       12 UNK        -0.5000 
     74 N          -1.1305  -25.2218  -44.3281 N.am      13 UNK        -0.5000 
     75 CA         -1.0187  -26.6048  -43.8569 C.3       13 UNK         0.1400 
     76 CB          0.1974  -26.7115  -42.9246 C.3       13 UNK        -0.1800 
     77 C          -0.9155  -27.6395  -45.0003 C.2       13 UNK         0.5000 
     78 O          -1.2906  -28.7953  -44.8020 O.2       13 UNK        -0.5000 
     79 N          -0.4396  -27.2027  -46.1747 N.am      14 UNK        -0.5000 
     80 CA         -0.3814  -27.9711  -47.4189 C.3       14 UNK         0.1400 
     81 CB          1.0587  -27.9100  -47.9581 C.3       14 UNK        -0.1800 
     82 C          -1.3938  -27.4331  -48.4536 C.2       14 UNK         0.5000 
     83 O          -1.2516  -27.7155  -49.6449 O.2       14 UNK        -0.5000 
     84 N          -2.3826  -26.6512  -47.9910 N.am      15 UNK        -0.5000 
     85 CA         -3.3880  -25.8886  -48.7379 C.3       15 UNK         0.1400 
     86 CB         -4.2863  -26.7954  -49.6021 C.3       15 UNK        -0.1800 
     87 C          -2.7749  -24.7333  -49.5484 C.2       15 UNK         0.5000 
     88 O          -3.0746  -23.5734  -49.2655 O.2       15 UNK        -0.5000 
     89 N          -1.9389  -25.0718  -50.5409 N.am      16 UNK        -0.5000 
     90 CA         -1.1089  -24.1921  -51.3790 C.3       16 UNK         0.1400 
     91 CB          0.0085  -23.5740  -50.5161 C.3       16 UNK        -0.1800 
     92 C          -1.8666  -23.1050  -52.1769 C.2       16 UNK         0.5000 
     93 O          -1.2282  -22.1985  -52.7120 O.2       16 UNK        -0.5000 
     94 N          -3.2045  -23.1999  -52.2257 N.am      17 UNK        -0.5000 
     95 CA         -4.1533  -22.1774  -52.6829 C.3       17 UNK         0.1400 
     96 CB         -4.0110  -21.9209  -54.1986 C.3       17 UNK        -0.1800 
     97 C          -4.0865  -20.8772  -51.8475 C.2       17 UNK         0.5000 
     98 O          -4.4230  -19.8112  -52.3606 O.2       17 UNK        -0.5000 
     99 N          -3.6673  -20.9848  -50.5750 N.am      18 UNK        -0.5000 
    100 CA        -3.3651  -19.8618  -49.6813 C.3       18 UNK         0.1400 
    101 CB        -2.8168  -20.4061  -48.3538 C.3       18 UNK        -0.1800 
    102 C         -4.5501  -18.9161  -49.4195 C.2       18 UNK         0.5000 
    103 O         -4.3562  -17.7103  -49.2784 O.2       18 UNK        -0.5000 
    104 N         -5.7623  -19.4810  -49.3778 N.am      19 UNK        -0.5000 
    105 CA        -7.0138  -18.7596  -49.1506 C.3       19 UNK         0.1400 
    106 CB        -8.0740  -19.7729  -48.6885 C.3       19 UNK        -0.1800 
    107 C         -7.5178  -17.9622  -50.3738 C.2       19 UNK         0.5000 
    108 O         -8.5209  -17.2579  -50.2467 O.2       19 UNK        -0.5000 
    109 N         -6.8564  -18.0933  -51.5303 N.am      20 UNK        -0.5000 
    110 CA        -7.2376  -17.4717  -52.7954 C.3       20 UNK         0.1400 
    111 CB        -8.0301  -18.5008  -53.6276 C.3       20 UNK        -0.1800 
    112 C         -5.9890  -16.9446  -53.5270 C.2       20 UNK         0.5000 
    113 O         -4.9377  -16.7560  -52.9105 O.2       20 UNK        -0.5000 
    114 N         -6.1303  -16.6948  -54.8343 N.am      21 UNK        -0.5000 
    115 CA        -5.0212  -16.4107  -55.7419 C.3       21 UNK         0.1400 
    116 CB        -5.5725  -15.7357  -57.0075 C.3       21 UNK        -0.1800 
    117 C         -4.2789  -17.7111  -56.1007 C.2       21 UNK         0.5000 
    118 O         -4.8949  -18.7791  -56.1421 O.2       21 UNK        -0.5000 
    119 N         -2.9767  -17.5923  -56.3779 N.am      22 UNK        -0.5000 
    120 CA        -2.0867  -18.7257  -56.6844 C.3       22 UNK         0.1400 
    121 C         -2.2722  -19.3481  -58.1009 C.2       22 UNK         0.5000 
    122 N         -3.0358  -18.7441  -59.0033 N.am      22 UNK        -0.7600 
    123 O         -1.7132  -20.4036  -58.3856 O.2       22 UNK        -0.5000 
    124 C124       -0.5957  -18.3690  -56.4400 C.3       23 UNK        -0.0398 
    125 S125       -0.2011  -17.6193  -54.8183 S.3       23 UNK        -0.2404 
    126 C126       -1.1691  -18.6227  -53.6487 C.3       23 UNK        -0.0205 
    127 H127        3.5851  -12.1240  -51.0062 H         1 UNK         0.0600 
    128 H128        4.1083  -13.1347  -52.3562 H         1 UNK         0.0600 
    129 H129        5.2418  -12.7326  -51.0615 H         1 UNK         0.0600 
    130 H130        2.3323  -13.2336  -49.5360 H         1 UNK         0.3000 
    131 H131        2.1162  -16.0812  -49.4784 H         1 UNK         0.0600 
    132 H132        0.5565  -15.6684  -47.5492 H         1 UNK         0.0800 
    133 H133        1.0312  -13.9928  -47.5252 H         1 UNK         0.0800 
    134 H134       -1.6012  -16.2699  -48.3300 H         1 UNK         0.0800 
    135 H135       -2.4185  -15.6996  -49.7575 H         1 UNK         0.0800 
    136 H136       -1.9432  -16.6298  -51.9548 H         1 UNK         0.1150 
    137 H137        0.5884  -20.0786  -52.1798 H         1 UNK         0.1150 
    138 H138        0.3700  -17.8161  -48.5473 H         1 UNK         0.1150 
    139 H139        1.8179  -20.8275  -50.3223 H         1 UNK         0.0800 
    140 H140        2.5462  -19.4746  -49.4824 H         1 UNK         0.0800 
    141 H141        3.1177  -21.7067  -47.8167 H         1 UNK         0.0800 
    142 H142        1.9989  -22.7644  -48.6260 H         1 UNK         0.0800 
    143 H143        2.5405  -23.5862  -46.3552 H         1 UNK         0.0600 
    144 H144        1.9732  -20.8856  -45.5382 H         1 UNK         0.3000 
    145 H145        1.8306  -21.4085  -42.1005 H         1 UNK         0.0600 
    146 H146        3.8760  -20.0365  -41.9310 H         1 UNK         0.0600 
    147 H147        4.3141  -21.6643  -42.4212 H         1 UNK         0.0600 
    148 H148        4.2887  -20.3683  -43.6124 H         1 UNK         0.0600 
    149 H149        2.2312  -19.0339  -43.6353 H         1 UNK         0.3000 
    150 H150        0.5075  -17.5598  -43.6860 H         1 UNK         0.0600 
    151 H151        0.8811  -18.3705  -46.0105 H         1 UNK         0.0600 
    152 H152       -0.4655  -17.2495  -45.9799 H         1 UNK         0.0600 
    153 H153       -0.7700  -18.9790  -46.0903 H         1 UNK         0.0600 
    154 H154       -2.1970  -17.8056  -44.3543 H         1 UNK         0.3000 
    155 H155       -3.7542  -18.4024  -41.3751 H         1 UNK         0.0600 
    156 H156       -3.0807  -15.4622  -41.9061 H         1 UNK         0.0600 
    157 H157       -2.9625  -16.2998  -40.3679 H         1 UNK         0.0600 
    158 H158       -4.5387  -16.0372  -41.0965 H         1 UNK         0.0600 
    159 H159       -4.3342  -16.6973  -43.6885 H         1 UNK         0.3000 
    160 H160       -5.0829  -19.2056  -45.8936 H         1 UNK         0.0600 
    161 H161       -7.4186  -18.0611  -44.2682 H         1 UNK         0.0600 
    162 H162       -7.1424  -19.7637  -44.6146 H         1 UNK         0.0600 
    163 H163       -7.5214  -18.6576  -45.9235 H         1 UNK         0.0600 
    164 H164       -6.1512  -16.5787  -45.8232 H         1 UNK         0.3000 
    165 H165       -4.2377  -15.3864  -47.9653 H         1 UNK         0.0600 
    166 H166       -5.5060  -13.4534  -46.9864 H         1 UNK         0.0600 
    167 H167       -6.4132  -14.9469  -46.9043 H         1 UNK         0.0600 
    168 H168       -5.6308  -14.3105  -45.4553 H         1 UNK         0.0600 
    169 H169       -2.5819  -14.0457  -47.4102 H         1 UNK         0.3000 
    170 H170       -0.8280  -13.2239  -46.3125 H         1 UNK         0.0600 
    171 H171       -2.5872  -11.4599  -46.2222 H         1 UNK         0.0600 
    172 H172       -2.5137  -11.4517  -44.4648 H         1 UNK         0.0600 
    173 H173       -1.1228  -10.9255  -45.4140 H         1 UNK         0.0600 
    174 H174       -0.6441  -12.6558  -43.4686 H         1 UNK         0.3000 
    175 H175        1.5567  -13.2196  -42.6685 H         1 UNK         0.0600 
    176 H176        0.2784  -15.9056  -41.8882 H         1 UNK         0.0600 
    177 H177        1.1046  -14.8015  -40.7952 H         1 UNK         0.0600 
    178 H178       -0.4202  -14.3318  -41.5308 H         1 UNK         0.0600 
    179 H179        2.3939  -15.7374  -43.8812 H         1 UNK         0.3000 
    180 H180        5.7461  -15.1425  -42.9581 H         1 UNK         0.0600 
    181 H181        5.8728  -17.5666  -42.3526 H         1 UNK         0.0600 
    182 H182        4.1384  -17.5755  -42.0301 H         1 UNK         0.0600 
    183 H183        5.2107  -16.5916  -41.0496 H         1 UNK         0.0600 
    184 H184        5.5245  -15.8078  -45.0202 H         1 UNK         0.3000 
    185 H185        5.2886  -17.1436  -46.7158 H         1 UNK         0.0600 
    186 H186        4.5480  -19.3162  -47.6324 H         1 UNK         0.0600 
    187 H187        4.9717  -19.4959  -45.9375 H         1 UNK         0.0600 
    188 H188        3.2804  -19.4349  -46.4141 H         1 UNK         0.0600 
    189 H189        2.7001  -17.5539  -47.8452 H         1 UNK         0.3000 
    190 H190       -0.3467  -22.0454  -45.1766 H         1 UNK         0.3000 
    191 H191       -2.3048  -23.3767  -46.7083 H         1 UNK         0.0600 
    192 H192       -3.8736  -22.5544  -45.0062 H         1 UNK         0.0600 
    193 H193       -2.6923  -21.3017  -45.3519 H         1 UNK         0.0600 
    194 H194       -2.5636  -22.2546  -43.8745 H         1 UNK         0.0600 
    195 H195       -0.3353  -24.6218  -44.1583 H         1 UNK         0.3000 
    196 H196       -1.9171  -26.8376  -43.2819 H         1 UNK         0.0600 
    197 H197        1.1238  -26.4586  -43.4424 H         1 UNK         0.0600 
    198 H198        0.0988  -26.0430  -42.0691 H         1 UNK         0.0600 
    199 H199        0.3041  -27.7245  -42.5341 H         1 UNK         0.0600 
    200 H200       -0.1697  -26.2269  -46.2648 H         1 UNK         0.3000 
    201 H201       -0.6352  -29.0171  -47.2378 H         1 UNK         0.0600 
    202 H202        1.3456  -26.8903  -48.2188 H         1 UNK         0.0600 
    203 H203        1.1723  -28.5237  -48.8525 H         1 UNK         0.0600 
    204 H204        1.7710  -28.2802  -47.2206 H         1 UNK         0.0600 
    205 H205       -2.4060  -26.4862  -46.9918 H         1 UNK         0.3000 
    206 H206       -4.0295  -25.4313  -47.9830 H         1 UNK         0.0600 
    207 H207       -4.7629  -27.5654  -48.9954 H         1 UNK         0.0600 
    208 H208       -5.0814  -26.2158  -50.0725 H         1 UNK         0.0600 
    209 H209       -3.7349  -27.2941  -50.3990 H         1 UNK         0.0600 
    210 H210       -1.7489  -26.0650  -50.6377 H         1 UNK         0.3000 
    211 H211       -0.6381  -24.8373  -52.1216 H         1 UNK         0.0600 
    212 H212        0.7283  -23.0288  -51.1272 H         1 UNK         0.0600 
    213 H213        0.5596  -24.3445  -49.9765 H         1 UNK         0.0600 
    214 H214       -0.3941  -22.8752  -49.7819 H         1 UNK         0.0600 
    215 H215       -3.6160  -23.9906  -51.7515 H         1 UNK         0.3000 
    216 H216       -5.1483  -22.5907  -52.5130 H         1 UNK         0.0600 
    217 H217       -3.0721  -21.4229  -54.4402 H         1 UNK         0.0600 
    218 H218       -4.8166  -21.2830  -54.5647 H         1 UNK         0.0600 
    219 H219       -4.0533  -22.8520  -54.7634 H         1 UNK         0.0600 
    220 H220       -3.4310  -21.9068  -50.2182 H         1 UNK         0.3000 
    221 H221       -2.5795  -19.2798  -50.1584 H         1 UNK         0.0600 
    222 H222       -1.9392  -21.0311  -48.5169 H         1 UNK         0.0600 
    223 H223       -3.5591  -21.0064  -47.8269 H         1 UNK         0.0600 
    224 H224       -2.5185  -19.5918  -47.6924 H         1 UNK         0.0600 
    225 H225       -5.8304  -20.4763  -49.5314 H         1 UNK         0.3000 
    226 H226       -6.8546  -18.0420  -48.3431 H         1 UNK         0.0600 
    227 H227       -8.2976  -20.5025  -49.4678 H         1 UNK         0.0600 
    228 H228       -7.7431  -20.3178  -47.8041 H         1 UNK         0.0600 
    229 H229       -9.0081  -19.2734  -48.4286 H         1 UNK         0.0600 
    230 H230       -5.9871  -18.6176  -51.5573 H         1 UNK         0.3000 
    231 H231       -7.8742  -16.6045  -52.6095 H         1 UNK         0.0600 
    232 H232       -7.3976  -19.3351  -53.9351 H         1 UNK         0.0600 
    233 H233       -8.4526  -18.0531  -54.5273 H         1 UNK         0.0600 
    234 H234       -8.8648  -18.9092  -53.0575 H         1 UNK         0.0600 
    235 H235       -7.0155  -16.9049  -55.2710 H         1 UNK         0.3000 
    236 H236       -4.3251  -15.7248  -55.2538 H         1 UNK         0.0600 
    237 H237       -6.2669  -16.3856  -57.5417 H         1 UNK         0.0600 
    238 H238       -6.0972  -14.8115  -56.7645 H         1 UNK         0.0600 
    239 H239       -4.7669  -15.4787  -57.6964 H         1 UNK         0.0600 
    240 H240       -2.5382  -16.6837  -56.3375 H         1 UNK         0.3000 
    241 H241       -2.3454  -19.5300  -55.9939 H         1 UNK         0.0600 
    242 H242       -3.1507  -19.1590  -59.9149 H         1 UNK         0.3800 
    243 H243       -3.5062  -17.8816  -58.7820 H         1 UNK         0.3800 
    244 H244       -0.2477  -17.6773  -57.2091 H         1 UNK         0.0800 
    245 H245        0.0226  -19.2628  -56.5414 H         1 UNK         0.0800 
    246 H246       -2.2310  -18.3882  -53.7403 H         1 UNK         0.0800 
    247 H247       -1.0617  -19.6805  -53.8942 H         1 UNK         0.0800 
@<TRIPOS>BOND
     1    1    2 1    
     2    1  127 1    
     3    1  128 1    
     4    1  129 1    
     5    2    3 2    
     6    2    4 am   BACKBONE|DICT|INTERRES
     7    4    5 1    
     8    4  130 1    
     9    5    6 1    
    10    5   65 1    
    11    5  131 1    
    12    6    7 1    
    13    6  132 1    
    14    6  133 1    
    15    7    8 1    
    16    8    9 1    
    17    8  134 1    
    18    8  135 1    
    19    9   10 ar   
    20    9   14 ar   
    21   10   11 ar   
    22   10  136 1    
    23   11   12 ar   
    24   11  126 1    
    25   12   13 ar   
    26   12  137 1    
    27   13   14 ar   
    28   13   15 1    
    29   14  138 1    
    30   15   16 1    
    31   15  139 1    
    32   15  140 1    
    33   16   17 1    
    34   17   18 1    
    35   17  141 1    
    36   17  142 1    
    37   18   19 1    
    38   18   67 1    
    39   18  143 1    
    40   19   20 am   BACKBONE|DICT|INTERRES
    41   19  144 1    
    42   20   21 2    
    43   20   22 1    
    44   22   23 1    
    45   22   24 1    
    46   22  145 1    
    47   23  146 1    
    48   23  147 1    
    49   23  148 1    
    50   24   25 am   BACKBONE|DICT|INTERRES
    51   24  149 1    
    52   25   26 2    
    53   25   27 1    
    54   27   28 1    
    55   27   29 1    
    56   27  150 1    
    57   28  151 1    
    58   28  152 1    
    59   28  153 1    
    60   29   30 am   BACKBONE|DICT|INTERRES
    61   29  154 1    
    62   30   31 2    
    63   30   32 1    
    64   32   33 1    
    65   32   34 1    
    66   32  155 1    
    67   33  156 1    
    68   33  157 1    
    69   33  158 1    
    70   34   35 am   BACKBONE|DICT|INTERRES
    71   34  159 1    
    72   35   36 2    
    73   35   37 1    
    74   37   38 1    
    75   37   39 1    
    76   37  160 1    
    77   38  161 1    
    78   38  162 1    
    79   38  163 1    
    80   39   40 am   BACKBONE|DICT|INTERRES
    81   39  164 1    
    82   40   41 2    
    83   40   42 1    
    84   42   43 1    
    85   42   44 1    
    86   42  165 1    
    87   43  166 1    
    88   43  167 1    
    89   43  168 1    
    90   44   45 am   BACKBONE|DICT|INTERRES
    91   44  169 1    
    92   45   46 2    
    93   45   47 1    
    94   47   48 1    
    95   47   49 1    
    96   47  170 1    
    97   48  171 1    
    98   48  172 1    
    99   48  173 1    
   100   49   50 am   BACKBONE|DICT|INTERRES
   101   49  174 1    
   102   50   51 2    
   103   50   52 1    
   104   52   53 1    
   105   52   54 1    
   106   52  175 1    
   107   53  176 1    
   108   53  177 1    
   109   53  178 1    
   110   54   55 am   BACKBONE|DICT|INTERRES
   111   54  179 1    
   112   55   56 2    
   113   55   57 1    
   114   57   58 1    
   115   57   59 1    
   116   57  180 1    
   117   58  181 1    
   118   58  182 1    
   119   58  183 1    
   120   59   60 am   BACKBONE|DICT|INTERRES
   121   59  184 1    
   122   60   61 2    
   123   60   62 1    
   124   62   63 1    
   125   62   64 1    
   126   62  185 1    
   127   63  186 1    
   128   63  187 1    
   129   63  188 1    
   130   64   65 am   BACKBONE|DICT|INTERRES
   131   64  189 1    
   132   65   66 2    
   133   67   68 2    
   134   67   69 am   BACKBONE|DICT|INTERRES
   135   69   70 1    
   136   69  190 1    
   137   70   71 1    
   138   70   72 1    
   139   70  191 1    
   140   71  192 1    
   141   71  193 1    
   142   71  194 1    
   143   72   73 2    
   144   72   74 am   BACKBONE|DICT|INTERRES
   145   74   75 1    
   146   74  195 1    
   147   75   76 1    
   148   75   77 1    
   149   75  196 1    
   150   76  197 1    
   151   76  198 1    
   152   76  199 1    
   153   77   78 2    
   154   77   79 am   BACKBONE|DICT|INTERRES
   155   79   80 1    
   156   79  200 1    
   157   80   81 1    
   158   80   82 1    
   159   80  201 1    
   160   81  202 1    
   161   81  203 1    
   162   81  204 1    
   163   82   83 2    
   164   82   84 am   BACKBONE|DICT|INTERRES
   165   84   85 1    
   166   84  205 1    
   167   85   86 1    
   168   85   87 1    
   169   85  206 1    
   170   86  207 1    
   171   86  208 1    
   172   86  209 1    
   173   87   88 2    
   174   87   89 am   BACKBONE|DICT|INTERRES
   175   89   90 1    
   176   89  210 1    
   177   90   91 1    
   178   90   92 1    
   179   90  211 1    
   180   91  212 1    
   181   91  213 1    
   182   91  214 1    
   183   92   93 2    
   184   92   94 am   BACKBONE|DICT|INTERRES
   185   94   95 1    
   186   94  215 1    
   187   95   96 1    
   188   95   97 1    
   189   95  216 1    
   190   96  217 1    
   191   96  218 1    
   192   96  219 1    
   193   97   98 2    
   194   97   99 am   BACKBONE|DICT|INTERRES
   195   99  100 1    
   196   99  220 1    
   197  100  101 1    
   198  100  102 1    
   199  100  221 1    
   200  101  222 1    
   201  101  223 1    
   202  101  224 1    
   203  102  103 2    
   204  102  104 am   BACKBONE|DICT|INTERRES
   205  104  105 1    
   206  104  225 1    
   207  105  106 1    
   208  105  107 1    
   209  105  226 1    
   210  106  227 1    
   211  106  228 1    
   212  106  229 1    
   213  107  108 2    
   214  107  109 am   BACKBONE|DICT|INTERRES
   215  109  110 1    
   216  109  230 1    
   217  110  111 1    
   218  110  112 1    
   219  110  231 1    
   220  111  232 1    
   221  111  233 1    
   222  111  234 1    
   223  112  113 2    
   224  112  114 am   BACKBONE|DICT|INTERRES
   225  114  115 1    
   226  114  235 1    
   227  115  116 1    
   228  115  117 1    
   229  115  236 1    
   230  116  237 1    
   231  116  238 1    
   232  116  239 1    
   233  117  118 2    
   234  117  119 am   BACKBONE|DICT|INTERRES
   235  119  120 1    
   236  119  240 1    
   237  120  121 1    
   238  120  124 1    
   239  120  241 1    
   240  121  122 am   BACKBONE|DICT|INTERRES
   241  121  123 2    
   242  122  242 1    
   243  122  243 1    
   244  124  125 1    
   245  124  244 1    
   246  124  245 1    
   247  125  126 1    
   248  126  246 1    
   249  126  247 1    
@<TRIPOS>SUBSTRUCTURE
     1 UNK         1 GROUP             0       ****    0 ROOT    
