@<TRIPOS>MOLECULE
3R540
247   249    1
SMALL
USER_CHARGES


@<TRIPOS>ATOM
      1 CA          0.8388  -11.9068  -48.2173 C.3       0 UNK        -0.1800 
      2 C           0.7662  -13.4131  -48.0165 C.2       0 UNK         0.5000 
      3 O           0.8394  -13.8840  -46.8838 O.2       0 UNK        -0.5000 
      4 N           0.5996  -14.1727  -49.1064 N.am      1 UNK        -0.5000 
      5 CA          0.5559  -15.6438  -49.1240 C.3       1 UNK         0.1400 
      6 C6          0.5547  -16.1939  -50.5715 C.3       23 UNK        -0.0398 
      7 S7          2.0495  -15.6957  -51.5000 S.3       23 UNK        -0.2404 
      8 C8          2.0046  -16.8012  -52.9540 C.3       23 UNK        -0.0205 
      9 C9          1.9157  -18.2714  -52.5696 C.ar      23 UNK        -0.0193 
     10 C10         0.8462  -19.0508  -53.0192 C.ar      23 UNK        -0.1150 
     11 C11         0.7061  -20.3753  -52.5963 C.ar      23 UNK        -0.0193 
     12 C12         1.6423  -20.9166  -51.7114 C.ar      23 UNK        -0.1150 
     13 C13         2.7226  -20.1504  -51.2651 C.ar      23 UNK        -0.0193 
     14 C14         2.8691  -18.8379  -51.7191 C.ar      23 UNK        -0.1150 
     15 C15         3.6849  -20.7126  -50.2300 C.3       23 UNK        -0.0205 
     16 S16         3.5562  -19.8577  -48.6193 S.3       23 UNK        -0.2404 
     17 C17         1.7504  -19.7589  -48.3548 C.3       23 UNK        -0.0398 
     18 CA          1.1224  -21.1137  -47.9558 C.3       11 UNK         0.1400 
     19 N           1.6075  -21.5793  -46.6561 N.am      11 UNK        -0.5000 
     20 C           1.7407  -22.8634  -46.3023 C.2       10 UNK         0.5000 
     21 O           1.5426  -23.8083  -47.0657 O.2       10 UNK        -0.5000 
     22 CA          2.1698  -23.1468  -44.8476 C.3       10 UNK         0.1400 
     23 CB          3.6870  -23.3763  -44.7717 C.3       10 UNK        -0.1800 
     24 N           1.8044  -22.0805  -43.9118 N.am      10 UNK        -0.5000 
     25 C           0.5477  -21.7723  -43.5639 C.2       9 UNK         0.5000 
     26 O          -0.4420  -22.3752  -43.9728 O.2       9 UNK        -0.5000 
     27 CA          0.3577  -20.5407  -42.6618 C.3       9 UNK         0.1400 
     28 CB          0.4261  -20.9299  -41.1785 C.3       9 UNK        -0.1800 
     29 N           1.3134  -19.4618  -42.9215 N.am      9 UNK        -0.5000 
     30 C           1.4757  -18.8219  -44.0890 C.2       8 UNK         0.5000 
     31 O           0.8709  -19.1450  -45.1102 O.2       8 UNK        -0.5000 
     32 CA          2.4628  -17.6338  -44.1200 C.3       8 UNK         0.1400 
     33 CB          2.0355  -16.5611  -45.1372 C.3       8 UNK        -0.1800 
     34 N           2.6293  -17.0264  -42.7927 N.am      8 UNK        -0.5000 
     35 C           3.5202  -17.4427  -41.8790 C.2       7 UNK         0.5000 
     36 O           4.3428  -18.3307  -42.1062 O.2       7 UNK        -0.5000 
     37 CA          3.4307  -16.8528  -40.4569 C.3       7 UNK         0.1400 
     38 CB          4.8056  -16.7354  -39.7649 C.3       7 UNK        -0.1800 
     39 N           2.6659  -15.6076  -40.3646 N.am      7 UNK        -0.5000 
     40 C           3.0203  -14.3835  -40.7842 C.2       6 UNK         0.5000 
     41 O           4.0832  -14.1375  -41.3554 O.2       6 UNK        -0.5000 
     42 CA          2.0171  -13.2399  -40.5193 C.3       6 UNK         0.1400 
     43 CB          1.9126  -12.2905  -41.7250 C.3       6 UNK        -0.1800 
     44 N           0.6833  -13.7561  -40.2002 N.am      6 UNK        -0.5000 
     45 C           0.1809  -13.9078  -38.9663 C.2       5 UNK         0.5000 
     46 O           0.7685  -13.5526  -37.9445 O.2       5 UNK        -0.5000 
     47 CA         -1.1974  -14.5929  -38.8402 C.3       5 UNK         0.1400 
     48 CB         -2.2975  -13.5432  -38.6207 C.3       5 UNK        -0.1800 
     49 N          -1.5590  -15.4186  -39.9956 N.am      5 UNK        -0.5000 
     50 C          -0.9496  -16.5557  -40.3615 C.2       4 UNK         0.5000 
     51 O          -0.0240  -17.0694  -39.7333 O.2       4 UNK        -0.5000 
     52 CA         -1.3975  -17.1742  -41.7019 C.3       4 UNK         0.1400 
     53 CB         -2.5488  -18.1672  -41.4922 C.3       4 UNK        -0.1800 
     54 N          -1.7859  -16.1781  -42.7062 N.am      4 UNK        -0.5000 
     55 C          -0.9912  -15.1983  -43.1542 C.2       3 UNK         0.5000 
     56 O           0.1822  -15.0690  -42.7985 O.2       3 UNK        -0.5000 
     57 CA         -1.6300  -14.1889  -44.1234 C.3       3 UNK         0.1400 
     58 CB         -0.8557  -12.8613  -44.1830 C.3       3 UNK        -0.1800 
     59 N          -1.7608  -14.7301  -45.4745 N.am      3 UNK        -0.5000 
     60 C          -2.7500  -15.5415  -45.8759 C.2       2 UNK         0.5000 
     61 O          -3.5800  -16.0246  -45.1040 O.2       2 UNK        -0.5000 
     62 CA         -2.8883  -15.8173  -47.3866 C.3       2 UNK         0.1400 
     63 CB         -4.0736  -15.0149  -47.9455 C.3       2 UNK        -0.1800 
     64 N          -1.6990  -15.4533  -48.1538 N.am      2 UNK        -0.5000 
     65 C          -0.6262  -16.2363  -48.3217 C.2       1 UNK         0.5000 
     66 O          -0.5431  -17.3780  -47.8736 O.2       1 UNK        -0.5000 
     67 C          -0.4146  -21.0153  -47.9590 C.2       11 UNK         0.5000 
     68 O          -1.0360  -21.2949  -48.9840 O.2       11 UNK        -0.5000 
     69 N          -0.9988  -20.6188  -46.8199 N.am      12 UNK        -0.5000 
     70 CA         -2.4396  -20.4842  -46.6352 C.3       12 UNK         0.1400 
     71 CB         -2.7139  -19.6559  -45.3710 C.3       12 UNK        -0.1800 
     72 C          -3.1619  -21.8435  -46.5743 C.2       12 UNK         0.5000 
     73 O          -4.2211  -21.9921  -47.1871 O.2       12 UNK        -0.5000 
     74 N          -2.5868  -22.8053  -45.8389 N.am      13 UNK        -0.5000 
     75 CA         -3.1025  -24.1667  -45.6866 C.3       13 UNK         0.1400 
     76 CB         -2.2804  -24.9040  -44.6189 C.3       13 UNK        -0.1800 
     77 C          -3.0833  -24.9540  -47.0088 C.2       13 UNK         0.5000 
     78 O          -2.1920  -24.7468  -47.8346 O.2       13 UNK        -0.5000 
     79 N          -4.0754  -25.8401  -47.1814 N.am      14 UNK        -0.5000 
     80 CA         -4.3416  -26.7239  -48.3304 C.3       14 UNK         0.1400 
     81 CB         -3.1720  -27.6958  -48.5767 C.3       14 UNK        -0.1800 
     82 C          -4.7404  -25.9937  -49.6308 C.2       14 UNK         0.5000 
     83 O          -5.6170  -26.4728  -50.3499 O.2       14 UNK        -0.5000 
     84 N          -4.1250  -24.8363  -49.8917 N.am      15 UNK        -0.5000 
     85 CA         -4.3853  -23.9487  -51.0235 C.3       15 UNK         0.1400 
     86 CB         -3.1182  -23.1254  -51.2837 C.3       15 UNK        -0.1800 
     87 C          -5.6035  -23.0244  -50.8194 C.2       15 UNK         0.5000 
     88 O          -5.8889  -22.2202  -51.7074 O.2       15 UNK        -0.5000 
     89 N          -6.2812  -23.1437  -49.6665 N.am      16 UNK        -0.5000 
     90 CA         -7.5015  -22.4380  -49.2617 C.3       16 UNK         0.1400 
     91 CB         -8.6830  -22.8276  -50.1752 C.3       16 UNK        -0.1800 
     92 C          -7.2885  -20.9162  -49.1663 C.2       16 UNK         0.5000 
     93 O          -7.9284  -20.1515  -49.8875 O.2       16 UNK        -0.5000 
     94 N          -6.3523  -20.5137  -48.2955 N.am      17 UNK        -0.5000 
     95 CA         -5.8727  -19.1413  -48.0934 C.3       17 UNK         0.1400 
     96 CB         -6.9938  -18.2131  -47.5809 C.3       17 UNK        -0.1800 
     97 C          -5.1514  -18.6059  -49.3458 C.2       17 UNK         0.5000 
     98 O          -5.3346  -17.4503  -49.7253 O.2       17 UNK        -0.5000 
     99 N          -4.3620  -19.4893  -49.9755 N.am      18 UNK        -0.5000 
    100 CA        -3.5831  -19.2792  -51.2004 C.3       18 UNK         0.1400 
    101 CB        -2.4737  -18.2318  -50.9757 C.3       18 UNK        -0.1800 
    102 C         -4.4298  -18.9956  -52.4626 C.2       18 UNK         0.5000 
    103 O         -3.8727  -18.5810  -53.4800 O.2       18 UNK        -0.5000 
    104 N         -5.7435  -19.2666  -52.4098 N.am      19 UNK        -0.5000 
    105 CA        -6.6958  -19.0928  -53.5117 C.3       19 UNK         0.1400 
    106 CB        -8.1217  -19.3297  -52.9963 C.3       19 UNK        -0.1800 
    107 C         -6.4098  -19.9952  -54.7266 C.2       19 UNK         0.5000 
    108 O         -6.7674  -19.6311  -55.8473 O.2       19 UNK        -0.5000 
    109 N         -5.7344  -21.1300  -54.4941 N.am      20 UNK        -0.5000 
    110 CA        -5.2133  -22.0272  -55.5285 C.3       20 UNK         0.1400 
    111 CB        -4.7572  -23.3376  -54.8684 C.3       20 UNK        -0.1800 
    112 C         -4.0656  -21.4204  -56.3681 C.2       20 UNK         0.5000 
    113 O         -3.6955  -22.0125  -57.3824 O.2       20 UNK        -0.5000 
    114 N         -3.5069  -20.2791  -55.9328 N.am      21 UNK        -0.5000 
    115 CA        -2.4632  -19.4511  -56.5547 C.3       21 UNK         0.1400 
    116 CB        -2.8859  -18.9729  -57.9567 C.3       21 UNK        -0.1800 
    117 C         -1.0548  -20.0756  -56.5805 C.2       21 UNK         0.5000 
    118 O         -0.0772  -19.3362  -56.4674 O.2       21 UNK        -0.5000 
    119 N         -0.9719  -21.4058  -56.7002 N.am      22 UNK        -0.5000 
    120 CA         0.2561  -22.2205  -56.6732 C.3       22 UNK         0.1400 
    121 C          1.2091  -22.0081  -57.8913 C.2       22 UNK         0.5000 
    122 N          0.7547  -21.4229  -58.9930 N.am      22 UNK        -0.7600 
    123 O          2.3695  -22.4098  -57.8583 O.2       22 UNK        -0.5000 
    124 C124        0.9998  -22.1445  -55.3092 C.3       23 UNK        -0.0398 
    125 S125       -0.0136  -22.7423  -53.9090 S.3       23 UNK        -0.2404 
    126 C126       -0.4861  -21.2010  -53.0559 C.3       23 UNK        -0.0205 
    127 H127        1.7961  -11.5279  -47.8597 H         1 UNK         0.0600 
    128 H128        0.0451  -11.4156  -47.6545 H         1 UNK         0.0600 
    129 H129        0.7337  -11.6317  -49.2671 H         1 UNK         0.0600 
    130 H130        0.5604  -13.7295  -50.0134 H         1 UNK         0.3000 
    131 H131        1.4649  -15.9973  -48.6322 H         1 UNK         0.0600 
    132 H132        0.5024  -17.2831  -50.5489 H         1 UNK         0.0800 
    133 H133       -0.3271  -15.8544  -51.1176 H         1 UNK         0.0800 
    134 H134        2.9054  -16.6437  -53.5483 H         1 UNK         0.0800 
    135 H135        1.1630  -16.5138  -53.5863 H         1 UNK         0.0800 
    136 H136        0.1083  -18.6191  -53.6810 H         1 UNK         0.1150 
    137 H137        1.5136  -21.9296  -51.3566 H         1 UNK         0.1150 
    138 H138        3.6899  -18.2353  -51.3557 H         1 UNK         0.1150 
    139 H139        3.5089  -21.7787  -50.0786 H         1 UNK         0.0800 
    140 H140        4.7068  -20.6215  -50.6004 H         1 UNK         0.0800 
    141 H141        1.2715  -19.3508  -49.2453 H         1 UNK         0.0800 
    142 H142        1.5743  -19.0149  -47.5785 H         1 UNK         0.0800 
    143 H143        1.3911  -21.8457  -48.7199 H         1 UNK         0.0600 
    144 H144        1.7489  -20.8607  -45.9582 H         1 UNK         0.3000 
    145 H145        1.6676  -24.0632  -44.5300 H         1 UNK         0.0600 
    146 H146        4.2436  -22.4847  -45.0635 H         1 UNK         0.0600 
    147 H147        3.9951  -23.6510  -43.7627 H         1 UNK         0.0600 
    148 H148        3.9932  -24.1859  -45.4354 H         1 UNK         0.0600 
    149 H149        2.5583  -21.5238  -43.5366 H         1 UNK         0.3000 
    150 H150       -0.6395  -20.1461  -42.8603 H         1 UNK         0.0600 
    151 H151       -0.2978  -21.7122  -40.9465 H         1 UNK         0.0600 
    152 H152        0.1994  -20.0785  -40.5361 H         1 UNK         0.0600 
    153 H153        1.4136  -21.3036  -40.9053 H         1 UNK         0.0600 
    154 H154        1.8733  -19.1597  -42.1389 H         1 UNK         0.3000 
    155 H155        3.4227  -18.0293  -44.4575 H         1 UNK         0.0600 
    156 H156        2.1178  -16.9387  -46.1569 H         1 UNK         0.0600 
    157 H157        2.6615  -15.6712  -45.0703 H         1 UNK         0.0600 
    158 H158        1.0000  -16.2543  -44.9980 H         1 UNK         0.0600 
    159 H159        1.9647  -16.3009  -42.5470 H         1 UNK         0.3000 
    160 H160        2.8527  -17.5797  -39.8845 H         1 UNK         0.0600 
    161 H161        4.7096  -16.3167  -38.7631 H         1 UNK         0.0600 
    162 H162        5.4943  -16.1063  -40.3291 H         1 UNK         0.0600 
    163 H163        5.2751  -17.7142  -39.6607 H         1 UNK         0.0600 
    164 H164        1.7526  -15.7072  -39.9393 H         1 UNK         0.3000 
    165 H165        2.4038  -12.6643  -39.6761 H         1 UNK         0.0600 
    166 H166        1.6714  -12.8303  -42.6402 H         1 UNK         0.0600 
    167 H167        1.1478  -11.5299  -41.5678 H         1 UNK         0.0600 
    168 H168        2.8560  -11.7705  -41.8950 H         1 UNK         0.0600 
    169 H169        0.1699  -14.1291  -40.9905 H         1 UNK         0.3000 
    170 H170       -1.1607  -15.2406  -37.9618 H         1 UNK         0.0600 
    171 H171       -2.3931  -12.8753  -39.4778 H         1 UNK         0.0600 
    172 H172       -3.2657  -14.0149  -38.4515 H         1 UNK         0.0600 
    173 H173       -2.0815  -12.9268  -37.7469 H         1 UNK         0.0600 
    174 H174       -2.3059  -15.0716  -40.5792 H         1 UNK         0.3000 
    175 H175       -0.5446  -17.7186  -42.1032 H         1 UNK         0.0600 
    176 H176       -3.4423  -17.6722  -41.1099 H         1 UNK         0.0600 
    177 H177       -2.8150  -18.6651  -42.4245 H         1 UNK         0.0600 
    178 H178       -2.2706  -18.9432  -40.7777 H         1 UNK         0.0600 
    179 H179       -2.7157  -16.2548  -43.1017 H         1 UNK         0.3000 
    180 H180       -2.6269  -13.9565  -43.7424 H         1 UNK         0.0600 
    181 H181        0.1683  -13.0031  -44.5279 H         1 UNK         0.0600 
    182 H182       -0.8082  -12.3954  -43.1982 H         1 UNK         0.0600 
    183 H183       -1.3386  -12.1514  -44.8545 H         1 UNK         0.0600 
    184 H184       -1.0521  -14.4420  -46.1397 H         1 UNK         0.3000 
    185 H185       -3.0942  -16.8817  -47.5199 H         1 UNK         0.0600 
    186 H186       -4.1854  -15.1680  -49.0187 H         1 UNK         0.0600 
    187 H187       -5.0091  -15.3193  -47.4751 H         1 UNK         0.0600 
    188 H188       -3.9530  -13.9444  -47.7742 H         1 UNK         0.0600 
    189 H189       -1.6822  -14.5263  -48.5531 H         1 UNK         0.3000 
    190 H190       -0.4066  -20.3126  -46.0554 H         1 UNK         0.3000 
    191 H191       -2.8293  -19.9315  -47.4916 H         1 UNK         0.0600 
    192 H192       -2.3671  -20.1688  -44.4744 H         1 UNK         0.0600 
    193 H193       -2.2138  -18.6878  -45.4170 H         1 UNK         0.0600 
    194 H194       -3.7806  -19.4670  -45.2469 H         1 UNK         0.0600 
    195 H195       -1.7213  -22.5992  -45.3474 H         1 UNK         0.3000 
    196 H196       -4.1351  -24.0924  -45.3393 H         1 UNK         0.0600 
    197 H197       -2.3400  -24.3968  -43.6558 H         1 UNK         0.0600 
    198 H198       -1.2279  -24.9683  -44.8991 H         1 UNK         0.0600 
    199 H199       -2.6452  -25.9214  -44.4726 H         1 UNK         0.0600 
    200 H200       -4.7589  -25.9145  -46.4403 H         1 UNK         0.3000 
    201 H201       -5.2048  -27.3252  -48.0403 H         1 UNK         0.0600 
    202 H202       -3.4279  -28.4223  -49.3490 H         1 UNK         0.0600 
    203 H203       -2.9266  -28.2546  -47.6736 H         1 UNK         0.0600 
    204 H204       -2.2711  -27.1777  -48.9063 H         1 UNK         0.0600 
    205 H205       -3.3889  -24.5520  -49.2491 H         1 UNK         0.3000 
    206 H206       -4.5862  -24.5556  -51.9084 H         1 UNK         0.0600 
    207 H207       -3.2458  -22.4644  -52.1400 H         1 UNK         0.0600 
    208 H208       -2.2644  -23.7689  -51.4970 H         1 UNK         0.0600 
    209 H209       -2.8644  -22.5083  -50.4221 H         1 UNK         0.0600 
    210 H210       -5.9171  -23.8031  -48.9947 H         1 UNK         0.3000 
    211 H211       -7.7408  -22.7812  -48.2542 H         1 UNK         0.0600 
    212 H212       -8.8340  -23.9070  -50.1836 H         1 UNK         0.0600 
    213 H213       -9.6106  -22.3720  -49.8270 H         1 UNK         0.0600 
    214 H214       -8.5282  -22.5041  -51.2049 H         1 UNK         0.0600 
    215 H215       -5.8216  -21.2261  -47.7981 H         1 UNK         0.3000 
    216 H216       -5.1203  -19.1926  -47.3072 H         1 UNK         0.0600 
    217 H217       -6.5894  -17.2452  -47.2836 H         1 UNK         0.0600 
    218 H218       -7.7520  -18.0269  -48.3418 H         1 UNK         0.0600 
    219 H219       -7.4897  -18.6383  -46.7085 H         1 UNK         0.0600 
    220 H220       -4.3142  -20.4219  -49.5900 H         1 UNK         0.3000 
    221 H221       -3.0831  -20.2260  -51.3961 H         1 UNK         0.0600 
    222 H222       -2.8803  -17.2377  -50.7895 H         1 UNK         0.0600 
    223 H223       -1.8492  -18.5061  -50.1254 H         1 UNK         0.0600 
    224 H224       -1.8181  -18.1594  -51.8439 H         1 UNK         0.0600 
    225 H225       -6.1219  -19.6516  -51.5544 H         1 UNK         0.3000 
    226 H226       -6.6223  -18.0574  -53.8500 H         1 UNK         0.0600 
    227 H227       -8.3670  -18.6438  -52.1852 H         1 UNK         0.0600 
    228 H228       -8.8565  -19.1734  -53.7871 H         1 UNK         0.0600 
    229 H229       -8.2480  -20.3480  -52.6263 H         1 UNK         0.0600 
    230 H230       -5.5631  -21.3908  -53.5278 H         1 UNK         0.3000 
    231 H231       -6.0310  -22.2574  -56.2143 H         1 UNK         0.0600 
    232 H232       -4.4822  -24.0775  -55.6210 H         1 UNK         0.0600 
    233 H233       -5.5499  -23.7737  -54.2602 H         1 UNK         0.0600 
    234 H234       -3.8860  -23.1842  -54.2325 H         1 UNK         0.0600 
    235 H235       -3.8617  -19.8936  -55.0642 H         1 UNK         0.3000 
    236 H236       -2.3891  -18.5659  -55.9210 H         1 UNK         0.0600 
    237 H237       -3.8536  -18.4720  -57.9261 H         1 UNK         0.0600 
    238 H238       -2.1637  -18.2606  -58.3575 H         1 UNK         0.0600 
    239 H239       -2.9563  -19.7970  -58.6669 H         1 UNK         0.0600 
    240 H240       -1.8397  -21.9092  -56.8533 H         1 UNK         0.3000 
    241 H241       -0.0868  -23.2493  -56.7876 H         1 UNK         0.0600 
    242 H242        1.3710  -21.2990  -59.7809 H         1 UNK         0.3800 
    243 H243       -0.1980  -21.0996  -59.0439 H         1 UNK         0.3800 
    244 H244        1.8920  -22.7720  -55.3282 H         1 UNK         0.0800 
    245 H245        1.3586  -21.1327  -55.1212 H         1 UNK         0.0800 
    246 H246       -1.1453  -20.6188  -53.7002 H         1 UNK         0.0800 
    247 H247       -1.0695  -21.4575  -52.1728 H         1 UNK         0.0800 
@<TRIPOS>BOND
     1    1    2 1    
     2    1  127 1    
     3    1  128 1    
     4    1  129 1    
     5    2    3 2    
     6    2    4 am   BACKBONE|DICT|INTERRES
     7    4    5 1    
     8    4  130 1    
     9    5    6 1    
    10    5   65 1    
    11    5  131 1    
    12    6    7 1    
    13    6  132 1    
    14    6  133 1    
    15    7    8 1    
    16    8    9 1    
    17    8  134 1    
    18    8  135 1    
    19    9   10 ar   
    20    9   14 ar   
    21   10   11 ar   
    22   10  136 1    
    23   11   12 ar   
    24   11  126 1    
    25   12   13 ar   
    26   12  137 1    
    27   13   14 ar   
    28   13   15 1    
    29   14  138 1    
    30   15   16 1    
    31   15  139 1    
    32   15  140 1    
    33   16   17 1    
    34   17   18 1    
    35   17  141 1    
    36   17  142 1    
    37   18   19 1    
    38   18   67 1    
    39   18  143 1    
    40   19   20 am   BACKBONE|DICT|INTERRES
    41   19  144 1    
    42   20   21 2    
    43   20   22 1    
    44   22   23 1    
    45   22   24 1    
    46   22  145 1    
    47   23  146 1    
    48   23  147 1    
    49   23  148 1    
    50   24   25 am   BACKBONE|DICT|INTERRES
    51   24  149 1    
    52   25   26 2    
    53   25   27 1    
    54   27   28 1    
    55   27   29 1    
    56   27  150 1    
    57   28  151 1    
    58   28  152 1    
    59   28  153 1    
    60   29   30 am   BACKBONE|DICT|INTERRES
    61   29  154 1    
    62   30   31 2    
    63   30   32 1    
    64   32   33 1    
    65   32   34 1    
    66   32  155 1    
    67   33  156 1    
    68   33  157 1    
    69   33  158 1    
    70   34   35 am   BACKBONE|DICT|INTERRES
    71   34  159 1    
    72   35   36 2    
    73   35   37 1    
    74   37   38 1    
    75   37   39 1    
    76   37  160 1    
    77   38  161 1    
    78   38  162 1    
    79   38  163 1    
    80   39   40 am   BACKBONE|DICT|INTERRES
    81   39  164 1    
    82   40   41 2    
    83   40   42 1    
    84   42   43 1    
    85   42   44 1    
    86   42  165 1    
    87   43  166 1    
    88   43  167 1    
    89   43  168 1    
    90   44   45 am   BACKBONE|DICT|INTERRES
    91   44  169 1    
    92   45   46 2    
    93   45   47 1    
    94   47   48 1    
    95   47   49 1    
    96   47  170 1    
    97   48  171 1    
    98   48  172 1    
    99   48  173 1    
   100   49   50 am   BACKBONE|DICT|INTERRES
   101   49  174 1    
   102   50   51 2    
   103   50   52 1    
   104   52   53 1    
   105   52   54 1    
   106   52  175 1    
   107   53  176 1    
   108   53  177 1    
   109   53  178 1    
   110   54   55 am   BACKBONE|DICT|INTERRES
   111   54  179 1    
   112   55   56 2    
   113   55   57 1    
   114   57   58 1    
   115   57   59 1    
   116   57  180 1    
   117   58  181 1    
   118   58  182 1    
   119   58  183 1    
   120   59   60 am   BACKBONE|DICT|INTERRES
   121   59  184 1    
   122   60   61 2    
   123   60   62 1    
   124   62   63 1    
   125   62   64 1    
   126   62  185 1    
   127   63  186 1    
   128   63  187 1    
   129   63  188 1    
   130   64   65 am   BACKBONE|DICT|INTERRES
   131   64  189 1    
   132   65   66 2    
   133   67   68 2    
   134   67   69 am   BACKBONE|DICT|INTERRES
   135   69   70 1    
   136   69  190 1    
   137   70   71 1    
   138   70   72 1    
   139   70  191 1    
   140   71  192 1    
   141   71  193 1    
   142   71  194 1    
   143   72   73 2    
   144   72   74 am   BACKBONE|DICT|INTERRES
   145   74   75 1    
   146   74  195 1    
   147   75   76 1    
   148   75   77 1    
   149   75  196 1    
   150   76  197 1    
   151   76  198 1    
   152   76  199 1    
   153   77   78 2    
   154   77   79 am   BACKBONE|DICT|INTERRES
   155   79   80 1    
   156   79  200 1    
   157   80   81 1    
   158   80   82 1    
   159   80  201 1    
   160   81  202 1    
   161   81  203 1    
   162   81  204 1    
   163   82   83 2    
   164   82   84 am   BACKBONE|DICT|INTERRES
   165   84   85 1    
   166   84  205 1    
   167   85   86 1    
   168   85   87 1    
   169   85  206 1    
   170   86  207 1    
   171   86  208 1    
   172   86  209 1    
   173   87   88 2    
   174   87   89 am   BACKBONE|DICT|INTERRES
   175   89   90 1    
   176   89  210 1    
   177   90   91 1    
   178   90   92 1    
   179   90  211 1    
   180   91  212 1    
   181   91  213 1    
   182   91  214 1    
   183   92   93 2    
   184   92   94 am   BACKBONE|DICT|INTERRES
   185   94   95 1    
   186   94  215 1    
   187   95   96 1    
   188   95   97 1    
   189   95  216 1    
   190   96  217 1    
   191   96  218 1    
   192   96  219 1    
   193   97   98 2    
   194   97   99 am   BACKBONE|DICT|INTERRES
   195   99  100 1    
   196   99  220 1    
   197  100  101 1    
   198  100  102 1    
   199  100  221 1    
   200  101  222 1    
   201  101  223 1    
   202  101  224 1    
   203  102  103 2    
   204  102  104 am   BACKBONE|DICT|INTERRES
   205  104  105 1    
   206  104  225 1    
   207  105  106 1    
   208  105  107 1    
   209  105  226 1    
   210  106  227 1    
   211  106  228 1    
   212  106  229 1    
   213  107  108 2    
   214  107  109 am   BACKBONE|DICT|INTERRES
   215  109  110 1    
   216  109  230 1    
   217  110  111 1    
   218  110  112 1    
   219  110  231 1    
   220  111  232 1    
   221  111  233 1    
   222  111  234 1    
   223  112  113 2    
   224  112  114 am   BACKBONE|DICT|INTERRES
   225  114  115 1    
   226  114  235 1    
   227  115  116 1    
   228  115  117 1    
   229  115  236 1    
   230  116  237 1    
   231  116  238 1    
   232  116  239 1    
   233  117  118 2    
   234  117  119 am   BACKBONE|DICT|INTERRES
   235  119  120 1    
   236  119  240 1    
   237  120  121 1    
   238  120  124 1    
   239  120  241 1    
   240  121  122 am   BACKBONE|DICT|INTERRES
   241  121  123 2    
   242  122  242 1    
   243  122  243 1    
   244  124  125 1    
   245  124  244 1    
   246  124  245 1    
   247  125  126 1    
   248  126  246 1    
   249  126  247 1    
@<TRIPOS>SUBSTRUCTURE
     1 UNK         1 GROUP             0       ****    0 ROOT    
