@<TRIPOS>MOLECULE
3R540
247   249    1
SMALL
USER_CHARGES


@<TRIPOS>ATOM
      1 CA          7.7167  -14.1793  -43.3714 C.3       0 UNK        -0.1800 
      2 C           6.6128  -15.0915  -43.8872 C.2       0 UNK         0.5000 
      3 O           6.4175  -16.1791  -43.3477 O.2       0 UNK        -0.5000 
      4 N           5.8998  -14.6565  -44.9334 N.am      1 UNK        -0.5000 
      5 CA          4.7765  -15.3811  -45.5363 C.3       1 UNK         0.1400 
      6 C6          4.5738  -14.9404  -47.0117 C.3       23 UNK        -0.0398 
      7 S7          3.1941  -15.7690  -47.8781 S.3       23 UNK        -0.2404 
      8 C8          4.0107  -16.4626  -49.3428 C.3       23 UNK        -0.0205 
      9 C9          3.0243  -17.2728  -50.1686 C.ar      23 UNK        -0.0193 
     10 C10         2.0628  -16.6259  -50.9499 C.ar      23 UNK        -0.1150 
     11 C11         1.1518  -17.3635  -51.7119 C.ar      23 UNK        -0.0193 
     12 C12         1.2047  -18.7611  -51.6817 C.ar      23 UNK        -0.1150 
     13 C13         2.1567  -19.4204  -50.9002 C.ar      23 UNK        -0.0193 
     14 C14         3.0709  -18.6688  -50.1553 C.ar      23 UNK        -0.1150 
     15 C15         2.2205  -20.9417  -50.8933 C.3       23 UNK        -0.0205 
     16 S16         2.1348  -21.6400  -49.2147 S.3       23 UNK        -0.2404 
     17 C17         0.4074  -21.2918  -48.7416 C.3       23 UNK        -0.0398 
     18 CA         -0.0528  -22.2492  -47.6211 C.3       11 UNK         0.1400 
     19 N           0.7358  -22.0880  -46.3956 N.am      11 UNK        -0.5000 
     20 C           0.8707  -23.0241  -45.4488 C.2       10 UNK         0.5000 
     21 O           0.3106  -24.1184  -45.5089 O.2       10 UNK        -0.5000 
     22 CA          1.7069  -22.6640  -44.2043 C.3       10 UNK         0.1400 
     23 CB          2.5358  -23.8547  -43.6816 C.3       10 UNK        -0.1800 
     24 N           2.5302  -21.4615  -44.3734 N.am      10 UNK        -0.5000 
     25 C           3.6069  -21.2924  -45.1578 C.2       9 UNK         0.5000 
     26 O           4.1068  -22.1855  -45.8413 O.2       9 UNK        -0.5000 
     27 CA          4.2203  -19.8759  -45.2091 C.3       9 UNK         0.1400 
     28 CB          3.9112  -19.2221  -46.5645 C.3       9 UNK        -0.1800 
     29 N           3.7446  -19.0014  -44.1336 N.am      9 UNK        -0.5000 
     30 C           4.1030  -19.1112  -42.8455 C.2       8 UNK         0.5000 
     31 O           5.0014  -19.8538  -42.4486 O.2       8 UNK        -0.5000 
     32 CA          3.2568  -18.3330  -41.8192 C.3       8 UNK         0.1400 
     33 CB          3.9301  -17.0286  -41.3718 C.3       8 UNK        -0.1800 
     34 N           1.9051  -18.0547  -42.3142 N.am      8 UNK        -0.5000 
     35 C           0.9214  -18.9643  -42.3227 C.2       7 UNK         0.5000 
     36 O           1.0621  -20.1202  -41.9257 O.2       7 UNK        -0.5000 
     37 CA         -0.4368  -18.5341  -42.8927 C.3       7 UNK         0.1400 
     38 CB         -1.2820  -17.8334  -41.8193 C.3       7 UNK        -0.1800 
     39 N          -0.3272  -17.6654  -44.0596 N.am      7 UNK        -0.5000 
     40 C          -0.0147  -18.0709  -45.2986 C.2       6 UNK         0.5000 
     41 O           0.3064  -19.2295  -45.5777 O.2       6 UNK        -0.5000 
     42 CA         -0.1250  -16.9864  -46.3929 C.3       6 UNK         0.1400 
     43 CB         -0.1531  -17.5441  -47.8272 C.3       6 UNK        -0.1800 
     44 N          -1.2484  -16.0758  -46.1380 N.am      6 UNK        -0.5000 
     45 C          -2.5589  -16.3684  -46.1368 C.2       5 UNK         0.5000 
     46 O          -3.0232  -17.4384  -46.5247 O.2       5 UNK        -0.5000 
     47 CA         -3.5215  -15.3055  -45.5743 C.3       5 UNK         0.1400 
     48 CB         -3.8953  -15.6445  -44.1220 C.3       5 UNK        -0.1800 
     49 N          -2.9517  -13.9576  -45.6122 N.am      5 UNK        -0.5000 
     50 C          -3.5539  -12.8787  -46.1314 C.2       4 UNK         0.5000 
     51 O          -4.7066  -12.8749  -46.5653 O.2       4 UNK        -0.5000 
     52 CA         -2.7163  -11.5828  -46.2008 C.3       4 UNK         0.1400 
     53 CB         -2.9457  -10.7247  -44.9475 C.3       4 UNK        -0.1800 
     54 N          -1.2817  -11.8412  -46.3471 N.am      4 UNK        -0.5000 
     55 C          -0.7234  -12.4609  -47.3955 C.2       3 UNK         0.5000 
     56 O          -1.3371  -12.7225  -48.4303 O.2       3 UNK        -0.5000 
     57 CA          0.7491  -12.9015  -47.2704 C.3       3 UNK         0.1400 
     58 CB          1.6337  -12.1118  -48.2484 C.3       3 UNK        -0.1800 
     59 N           1.3562  -12.8339  -45.9337 N.am      3 UNK        -0.5000 
     60 C           0.9495  -13.4495  -44.8126 C.2       2 UNK         0.5000 
     61 O          -0.1402  -14.0130  -44.6924 O.2       2 UNK        -0.5000 
     62 CA          1.9855  -13.4851  -43.6690 C.3       2 UNK         0.1400 
     63 CB          1.4985  -14.2648  -42.4291 C.3       2 UNK        -0.1800 
     64 N           3.2684  -13.9991  -44.1709 N.am      2 UNK        -0.5000 
     65 C           3.4842  -15.2130  -44.7062 C.2       1 UNK         0.5000 
     66 O           2.7093  -16.1653  -44.5900 O.2       1 UNK        -0.5000 
     67 C          -1.5644  -22.1345  -47.3392 C.2       11 UNK         0.5000 
     68 O          -2.3626  -22.6743  -48.1071 O.2       11 UNK        -0.5000 
     69 N          -1.9331  -21.4896  -46.2221 N.am      12 UNK        -0.5000 
     70 CA         -3.2811  -21.5262  -45.6540 C.3       12 UNK         0.1400 
     71 CB         -3.4136  -20.4522  -44.5640 C.3       12 UNK        -0.1800 
     72 C          -3.6153  -22.9143  -45.0771 C.2       12 UNK         0.5000 
     73 O          -4.7040  -23.4292  -45.3268 O.2       12 UNK        -0.5000 
     74 N          -2.6605  -23.5056  -44.3426 N.am      13 UNK        -0.5000 
     75 CA         -2.7818  -24.8240  -43.7127 C.3       13 UNK         0.1400 
     76 CB         -1.6502  -25.0110  -42.6902 C.3       13 UNK        -0.1800 
     77 C          -2.7925  -25.9710  -44.7391 C.2       13 UNK         0.5000 
     78 O          -3.5512  -26.9270  -44.5779 O.2       13 UNK        -0.5000 
     79 N          -1.9885  -25.8278  -45.8019 N.am      14 UNK        -0.5000 
     80 CA         -1.9667  -26.7126  -46.9702 C.3       14 UNK         0.1400 
     81 CB         -0.6816  -26.4430  -47.7683 C.3       14 UNK        -0.1800 
     82 C          -3.2030  -26.5565  -47.8823 C.2       14 UNK         0.5000 
     83 O          -3.3871  -27.3705  -48.7872 O.2       14 UNK        -0.5000 
     84 N          -4.0078  -25.5104  -47.6404 N.am      15 UNK        -0.5000 
     85 CA         -5.2334  -25.1214  -48.3428 C.3       15 UNK         0.1400 
     86 CB         -6.3038  -26.2292  -48.2652 C.3       15 UNK        -0.1800 
     87 C          -5.0060  -24.6167  -49.7813 C.2       15 UNK         0.5000 
     88 O          -5.9726  -24.4706  -50.5275 O.2       15 UNK        -0.5000 
     89 N          -3.7559  -24.2973  -50.1394 N.am      16 UNK        -0.5000 
     90 CA         -3.3868  -23.7016  -51.4231 C.3       16 UNK         0.1400 
     91 CB         -1.8613  -23.7579  -51.5947 C.3       16 UNK        -0.1800 
     92 C          -3.9005  -22.2577  -51.5387 C.2       16 UNK         0.5000 
     93 O          -4.4732  -21.8870  -52.5638 O.2       16 UNK        -0.5000 
     94 N          -3.7390  -21.4821  -50.4585 N.am      17 UNK        -0.5000 
     95 CA         -4.2544  -20.1165  -50.3623 C.3       17 UNK         0.1400 
     96 CB         -3.5864  -19.3984  -49.1844 C.3       17 UNK        -0.1800 
     97 C          -5.7905  -20.0822  -50.2468 C.2       17 UNK         0.5000 
     98 O          -6.4149  -19.1662  -50.7804 O.2       17 UNK        -0.5000 
     99 N          -6.3766  -21.1072  -49.6084 N.am      18 UNK        -0.5000 
    100 CA        -7.8258  -21.3094  -49.5086 C.3       18 UNK         0.1400 
    101 CB        -8.1255  -22.3882  -48.4570 C.3       18 UNK        -0.1800 
    102 C         -8.4635  -21.6706  -50.8650 C.2       18 UNK         0.5000 
    103 O         -9.5600  -21.2002  -51.1674 O.2       18 UNK        -0.5000 
    104 N         -7.7402  -22.4540  -51.6778 N.am      19 UNK        -0.5000 
    105 CA        -8.0723  -22.7823  -53.0673 C.3       19 UNK         0.1400 
    106 CB        -7.2881  -24.0389  -53.4797 C.3       19 UNK        -0.1800 
    107 C         -7.8046  -21.6259  -54.0559 C.2       19 UNK         0.5000 
    108 O         -8.1151  -21.7664  -55.2395 O.2       19 UNK        -0.5000 
    109 N         -7.2407  -20.5149  -53.5598 N.am      20 UNK        -0.5000 
    110 CA        -6.9042  -19.2820  -54.2710 C.3       20 UNK         0.1400 
    111 CB        -8.1659  -18.6033  -54.8449 C.3       20 UNK        -0.1800 
    112 C         -5.7814  -19.4635  -55.3105 C.2       20 UNK         0.5000 
    113 O         -5.7945  -18.7999  -56.3498 O.2       20 UNK        -0.5000 
    114 N         -4.7856  -20.3074  -54.9922 N.am      21 UNK        -0.5000 
    115 CA        -3.5711  -20.5045  -55.7972 C.3       21 UNK         0.1400 
    116 CB        -2.7338  -21.6437  -55.1961 C.3       21 UNK        -0.1800 
    117 C         -2.7146  -19.2278  -55.9391 C.2       21 UNK         0.5000 
    118 O         -1.9520  -19.1092  -56.8988 O.2       21 UNK        -0.5000 
    119 N         -2.8852  -18.2883  -55.0000 N.am      22 UNK        -0.5000 
    120 CA        -2.3412  -16.9240  -55.0433 C.3       22 UNK         0.1400 
    121 C         -2.9848  -16.0029  -56.1246 C.2       22 UNK         0.5000 
    122 N         -4.0914  -16.3731  -56.7605 N.am      22 UNK        -0.7600 
    123 O         -2.4624  -14.9255  -56.3965 O.2       22 UNK        -0.5000 
    124 C124       -2.3985  -16.2401  -53.6510 C.3       23 UNK        -0.0398 
    125 S125       -1.5632  -17.1932  -52.3378 S.3       23 UNK        -0.2404 
    126 C126        0.1528  -16.6469  -52.6085 C.3       23 UNK        -0.0205 
    127 H127        8.6799  -14.6860  -43.4306 H         1 UNK         0.0600 
    128 H128        7.7825  -13.2554  -43.9464 H         1 UNK         0.0600 
    129 H129        7.5307  -13.9190  -42.3294 H         1 UNK         0.0600 
    130 H130        6.1314  -13.7648  -45.3479 H         1 UNK         0.3000 
    131 H131        5.0219  -16.4438  -45.5349 H         1 UNK         0.0600 
    132 H132        4.3964  -13.8654  -47.0649 H         1 UNK         0.0800 
    133 H133        5.4955  -15.1149  -47.5684 H         1 UNK         0.0800 
    134 H134        4.4225  -15.6546  -49.9492 H         1 UNK         0.0800 
    135 H135        4.8521  -17.0836  -49.0314 H         1 UNK         0.0800 
    136 H136        2.0318  -15.5455  -50.9659 H         1 UNK         0.1150 
    137 H137        0.5077  -19.3332  -52.2779 H         1 UNK         0.1150 
    138 H138        3.8181  -19.1754  -49.5628 H         1 UNK         0.1150 
    139 H139        3.1605  -21.2508  -51.3519 H         1 UNK         0.0800 
    140 H140        1.4250  -21.3734  -51.5028 H         1 UNK         0.0800 
    141 H141       -0.2269  -21.3918  -49.6238 H         1 UNK         0.0800 
    142 H142        0.3329  -20.2551  -48.4194 H         1 UNK         0.0800 
    143 H143        0.1077  -23.2651  -47.9861 H         1 UNK         0.0600 
    144 H144        1.1617  -21.1815  -46.2500 H         1 UNK         0.3000 
    145 H145        0.9810  -22.4155  -43.4294 H         1 UNK         0.0600 
    146 H146        3.1183  -23.5745  -42.8040 H         1 UNK         0.0600 
    147 H147        1.8889  -24.6825  -43.3892 H         1 UNK         0.0600 
    148 H148        3.2241  -24.2351  -44.4364 H         1 UNK         0.0600 
    149 H149        2.2125  -20.6587  -43.8474 H         1 UNK         0.3000 
    150 H150        5.3030  -19.9845  -45.1196 H         1 UNK         0.0600 
    151 H151        4.1962  -19.8805  -47.3854 H         1 UNK         0.0600 
    152 H152        4.4677  -18.2970  -46.6952 H         1 UNK         0.0600 
    153 H153        2.8501  -18.9979  -46.6787 H         1 UNK         0.0600 
    154 H154        3.0374  -18.3179  -44.3761 H         1 UNK         0.3000 
    155 H155        3.1760  -18.9674  -40.9336 H         1 UNK         0.0600 
    156 H156        3.9975  -16.3059  -42.1809 H         1 UNK         0.0600 
    157 H157        4.9439  -17.2149  -41.0153 H         1 UNK         0.0600 
    158 H158        3.3783  -16.5624  -40.5557 H         1 UNK         0.0600 
    159 H159        1.7535  -17.1527  -42.7461 H         1 UNK         0.3000 
    160 H160       -0.9596  -19.4425  -43.1933 H         1 UNK         0.0600 
    161 H161       -0.8409  -16.8838  -41.5133 H         1 UNK         0.0600 
    162 H162       -1.3764  -18.4550  -40.9279 H         1 UNK         0.0600 
    163 H163       -2.2907  -17.6354  -42.1819 H         1 UNK         0.0600 
    164 H164       -0.5629  -16.6931  -43.9264 H         1 UNK         0.3000 
    165 H165        0.7716  -16.3756  -46.3047 H         1 UNK         0.0600 
    166 H166       -0.2948  -16.7494  -48.5598 H         1 UNK         0.0600 
    167 H167       -0.9502  -18.2735  -47.9612 H         1 UNK         0.0600 
    168 H168        0.7921  -18.0319  -48.0657 H         1 UNK         0.0600 
    169 H169       -0.9623  -15.1862  -45.7403 H         1 UNK         0.3000 
    170 H170       -4.4260  -15.3533  -46.1841 H         1 UNK         0.0600 
    171 H171       -4.2971  -16.6558  -44.0440 H         1 UNK         0.0600 
    172 H172       -3.0305  -15.5806  -43.4606 H         1 UNK         0.0600 
    173 H173       -4.6563  -14.9621  -43.7436 H         1 UNK         0.0600 
    174 H174       -2.0084  -13.8509  -45.2546 H         1 UNK         0.3000 
    175 H175       -3.0499  -11.0167  -47.0730 H         1 UNK         0.0600 
    176 H176       -2.6107  -11.2352  -44.0436 H         1 UNK         0.0600 
    177 H177       -2.4132   -9.7759  -45.0155 H         1 UNK         0.0600 
    178 H178       -4.0043  -10.4940  -44.8212 H         1 UNK         0.0600 
    179 H179       -0.7040  -11.6688  -45.5378 H         1 UNK         0.3000 
    180 H180        0.7726  -13.9504  -47.5720 H         1 UNK         0.0600 
    181 H181        1.6915  -11.0578  -47.9745 H         1 UNK         0.0600 
    182 H182        1.2435  -12.1662  -49.2657 H         1 UNK         0.0600 
    183 H183        2.6477  -12.5102  -48.2755 H         1 UNK         0.0600 
    184 H184        2.2550  -12.3766  -45.9033 H         1 UNK         0.3000 
    185 H185        2.1557  -12.4517  -43.3639 H         1 UNK         0.0600 
    186 H186        1.2015  -15.2838  -42.6712 H         1 UNK         0.0600 
    187 H187        2.2727  -14.3120  -41.6636 H         1 UNK         0.0600 
    188 H188        0.6307  -13.7765  -41.9845 H         1 UNK         0.0600 
    189 H189        4.0012  -13.3113  -44.2686 H         1 UNK         0.3000 
    190 H190       -1.2188  -21.0056  -45.6942 H         1 UNK         0.3000 
    191 H191       -3.9994  -21.3056  -46.4451 H         1 UNK         0.0600 
    192 H192       -4.4512  -20.3542  -44.2430 H         1 UNK         0.0600 
    193 H193       -3.0912  -19.4762  -44.9230 H         1 UNK         0.0600 
    194 H194       -2.8234  -20.6958  -43.6808 H         1 UNK         0.0600 
    195 H195       -1.7816  -23.0286  -44.2179 H         1 UNK         0.3000 
    196 H196       -3.7315  -24.8533  -43.1742 H         1 UNK         0.0600 
    197 H197       -0.6682  -24.9955  -43.1627 H         1 UNK         0.0600 
    198 H198       -1.6702  -24.2288  -41.9311 H         1 UNK         0.0600 
    199 H199       -1.7480  -25.9666  -42.1736 H         1 UNK         0.0600 
    200 H200       -1.3199  -25.0619  -45.8013 H         1 UNK         0.3000 
    201 H201       -1.9437  -27.7461  -46.6188 H         1 UNK         0.0600 
    202 H202       -0.6783  -25.4395  -48.1928 H         1 UNK         0.0600 
    203 H203       -0.5790  -27.1474  -48.5947 H         1 UNK         0.0600 
    204 H204        0.2044  -26.5465  -47.1415 H         1 UNK         0.0600 
    205 H205       -3.7557  -24.9052  -46.8706 H         1 UNK         0.3000 
    206 H206       -5.6197  -24.2630  -47.7926 H         1 UNK         0.0600 
    207 H207       -6.4565  -26.5576  -47.2371 H         1 UNK         0.0600 
    208 H208       -7.2654  -25.8725  -48.6359 H         1 UNK         0.0600 
    209 H209       -6.0316  -27.1007  -48.8607 H         1 UNK         0.0600 
    210 H210       -3.0326  -24.3523  -49.4351 H         1 UNK         0.3000 
    211 H211       -3.8453  -24.2872  -52.2228 H         1 UNK         0.0600 
    212 H212       -1.5579  -23.3146  -52.5441 H         1 UNK         0.0600 
    213 H213       -1.5041  -24.7878  -51.5882 H         1 UNK         0.0600 
    214 H214       -1.3435  -23.2211  -50.7997 H         1 UNK         0.0600 
    215 H215       -3.2752  -21.8684  -49.6417 H         1 UNK         0.3000 
    216 H216       -3.9791  -19.5837  -51.2754 H         1 UNK         0.0600 
    217 H217       -3.8371  -19.8589  -48.2301 H         1 UNK         0.0600 
    218 H218       -3.8985  -18.3544  -49.1356 H         1 UNK         0.0600 
    219 H219       -2.5020  -19.4074  -49.2883 H         1 UNK         0.0600 
    220 H220       -5.7869  -21.8250  -49.2177 H         1 UNK         0.3000 
    221 H221       -8.2727  -20.3726  -49.1688 H         1 UNK         0.0600 
    222 H222       -7.6748  -22.1425  -47.4951 H         1 UNK         0.0600 
    223 H223       -7.7565  -23.3663  -48.7636 H         1 UNK         0.0600 
    224 H224       -9.2002  -22.4836  -48.2974 H         1 UNK         0.0600 
    225 H225       -6.8879  -22.8724  -51.3201 H         1 UNK         0.3000 
    226 H226       -9.1378  -23.0136  -53.1222 H         1 UNK         0.0600 
    227 H227       -6.2115  -23.8702  -53.4416 H         1 UNK         0.0600 
    228 H228       -7.5187  -24.8795  -52.8250 H         1 UNK         0.0600 
    229 H229       -7.5372  -24.3442  -54.4966 H         1 UNK         0.0600 
    230 H230       -7.0124  -20.5150  -52.5750 H         1 UNK         0.3000 
    231 H231       -6.4961  -18.6088  -53.5161 H         1 UNK         0.0600 
    232 H232       -8.5970  -19.1734  -55.6681 H         1 UNK         0.0600 
    233 H233       -7.9346  -17.6078  -55.2254 H         1 UNK         0.0600 
    234 H234       -8.9327  -18.4858  -54.0791 H         1 UNK         0.0600 
    235 H235       -4.8353  -20.8312  -54.1213 H         1 UNK         0.3000 
    236 H236       -3.8847  -20.8025  -56.7996 H         1 UNK         0.0600 
    237 H237       -2.3533  -21.3823  -54.2082 H         1 UNK         0.0600 
    238 H238       -3.3183  -22.5592  -55.1018 H         1 UNK         0.0600 
    239 H239       -1.8737  -21.8703  -55.8273 H         1 UNK         0.0600 
    240 H240       -3.5106  -18.4912  -54.2358 H         1 UNK         0.3000 
    241 H241       -1.2907  -17.0116  -55.3250 H         1 UNK         0.0600 
    242 H242       -4.4831  -15.7600  -57.4577 H         1 UNK         0.3800 
    243 H243       -4.5488  -17.2577  -56.5665 H         1 UNK         0.3800 
    244 H244       -3.4365  -16.0939  -53.3477 H         1 UNK         0.0800 
    245 H245       -1.9556  -15.2431  -53.6905 H         1 UNK         0.0800 
    246 H246        0.4336  -16.8294  -53.6462 H         1 UNK         0.0800 
    247 H247        0.2052  -15.5677  -52.4558 H         1 UNK         0.0800 
@<TRIPOS>BOND
     1    1    2 1    
     2    1  127 1    
     3    1  128 1    
     4    1  129 1    
     5    2    3 2    
     6    2    4 am   BACKBONE|DICT|INTERRES
     7    4    5 1    
     8    4  130 1    
     9    5    6 1    
    10    5   65 1    
    11    5  131 1    
    12    6    7 1    
    13    6  132 1    
    14    6  133 1    
    15    7    8 1    
    16    8    9 1    
    17    8  134 1    
    18    8  135 1    
    19    9   10 ar   
    20    9   14 ar   
    21   10   11 ar   
    22   10  136 1    
    23   11   12 ar   
    24   11  126 1    
    25   12   13 ar   
    26   12  137 1    
    27   13   14 ar   
    28   13   15 1    
    29   14  138 1    
    30   15   16 1    
    31   15  139 1    
    32   15  140 1    
    33   16   17 1    
    34   17   18 1    
    35   17  141 1    
    36   17  142 1    
    37   18   19 1    
    38   18   67 1    
    39   18  143 1    
    40   19   20 am   BACKBONE|DICT|INTERRES
    41   19  144 1    
    42   20   21 2    
    43   20   22 1    
    44   22   23 1    
    45   22   24 1    
    46   22  145 1    
    47   23  146 1    
    48   23  147 1    
    49   23  148 1    
    50   24   25 am   BACKBONE|DICT|INTERRES
    51   24  149 1    
    52   25   26 2    
    53   25   27 1    
    54   27   28 1    
    55   27   29 1    
    56   27  150 1    
    57   28  151 1    
    58   28  152 1    
    59   28  153 1    
    60   29   30 am   BACKBONE|DICT|INTERRES
    61   29  154 1    
    62   30   31 2    
    63   30   32 1    
    64   32   33 1    
    65   32   34 1    
    66   32  155 1    
    67   33  156 1    
    68   33  157 1    
    69   33  158 1    
    70   34   35 am   BACKBONE|DICT|INTERRES
    71   34  159 1    
    72   35   36 2    
    73   35   37 1    
    74   37   38 1    
    75   37   39 1    
    76   37  160 1    
    77   38  161 1    
    78   38  162 1    
    79   38  163 1    
    80   39   40 am   BACKBONE|DICT|INTERRES
    81   39  164 1    
    82   40   41 2    
    83   40   42 1    
    84   42   43 1    
    85   42   44 1    
    86   42  165 1    
    87   43  166 1    
    88   43  167 1    
    89   43  168 1    
    90   44   45 am   BACKBONE|DICT|INTERRES
    91   44  169 1    
    92   45   46 2    
    93   45   47 1    
    94   47   48 1    
    95   47   49 1    
    96   47  170 1    
    97   48  171 1    
    98   48  172 1    
    99   48  173 1    
   100   49   50 am   BACKBONE|DICT|INTERRES
   101   49  174 1    
   102   50   51 2    
   103   50   52 1    
   104   52   53 1    
   105   52   54 1    
   106   52  175 1    
   107   53  176 1    
   108   53  177 1    
   109   53  178 1    
   110   54   55 am   BACKBONE|DICT|INTERRES
   111   54  179 1    
   112   55   56 2    
   113   55   57 1    
   114   57   58 1    
   115   57   59 1    
   116   57  180 1    
   117   58  181 1    
   118   58  182 1    
   119   58  183 1    
   120   59   60 am   BACKBONE|DICT|INTERRES
   121   59  184 1    
   122   60   61 2    
   123   60   62 1    
   124   62   63 1    
   125   62   64 1    
   126   62  185 1    
   127   63  186 1    
   128   63  187 1    
   129   63  188 1    
   130   64   65 am   BACKBONE|DICT|INTERRES
   131   64  189 1    
   132   65   66 2    
   133   67   68 2    
   134   67   69 am   BACKBONE|DICT|INTERRES
   135   69   70 1    
   136   69  190 1    
   137   70   71 1    
   138   70   72 1    
   139   70  191 1    
   140   71  192 1    
   141   71  193 1    
   142   71  194 1    
   143   72   73 2    
   144   72   74 am   BACKBONE|DICT|INTERRES
   145   74   75 1    
   146   74  195 1    
   147   75   76 1    
   148   75   77 1    
   149   75  196 1    
   150   76  197 1    
   151   76  198 1    
   152   76  199 1    
   153   77   78 2    
   154   77   79 am   BACKBONE|DICT|INTERRES
   155   79   80 1    
   156   79  200 1    
   157   80   81 1    
   158   80   82 1    
   159   80  201 1    
   160   81  202 1    
   161   81  203 1    
   162   81  204 1    
   163   82   83 2    
   164   82   84 am   BACKBONE|DICT|INTERRES
   165   84   85 1    
   166   84  205 1    
   167   85   86 1    
   168   85   87 1    
   169   85  206 1    
   170   86  207 1    
   171   86  208 1    
   172   86  209 1    
   173   87   88 2    
   174   87   89 am   BACKBONE|DICT|INTERRES
   175   89   90 1    
   176   89  210 1    
   177   90   91 1    
   178   90   92 1    
   179   90  211 1    
   180   91  212 1    
   181   91  213 1    
   182   91  214 1    
   183   92   93 2    
   184   92   94 am   BACKBONE|DICT|INTERRES
   185   94   95 1    
   186   94  215 1    
   187   95   96 1    
   188   95   97 1    
   189   95  216 1    
   190   96  217 1    
   191   96  218 1    
   192   96  219 1    
   193   97   98 2    
   194   97   99 am   BACKBONE|DICT|INTERRES
   195   99  100 1    
   196   99  220 1    
   197  100  101 1    
   198  100  102 1    
   199  100  221 1    
   200  101  222 1    
   201  101  223 1    
   202  101  224 1    
   203  102  103 2    
   204  102  104 am   BACKBONE|DICT|INTERRES
   205  104  105 1    
   206  104  225 1    
   207  105  106 1    
   208  105  107 1    
   209  105  226 1    
   210  106  227 1    
   211  106  228 1    
   212  106  229 1    
   213  107  108 2    
   214  107  109 am   BACKBONE|DICT|INTERRES
   215  109  110 1    
   216  109  230 1    
   217  110  111 1    
   218  110  112 1    
   219  110  231 1    
   220  111  232 1    
   221  111  233 1    
   222  111  234 1    
   223  112  113 2    
   224  112  114 am   BACKBONE|DICT|INTERRES
   225  114  115 1    
   226  114  235 1    
   227  115  116 1    
   228  115  117 1    
   229  115  236 1    
   230  116  237 1    
   231  116  238 1    
   232  116  239 1    
   233  117  118 2    
   234  117  119 am   BACKBONE|DICT|INTERRES
   235  119  120 1    
   236  119  240 1    
   237  120  121 1    
   238  120  124 1    
   239  120  241 1    
   240  121  122 am   BACKBONE|DICT|INTERRES
   241  121  123 2    
   242  122  242 1    
   243  122  243 1    
   244  124  125 1    
   245  124  244 1    
   246  124  245 1    
   247  125  126 1    
   248  126  246 1    
   249  126  247 1    
@<TRIPOS>SUBSTRUCTURE
     1 UNK         1 GROUP             0       ****    0 ROOT    
