@<TRIPOS>MOLECULE
3R540
247   249    1
SMALL
USER_CHARGES


@<TRIPOS>ATOM
      1 CA         -0.9789  -12.9571  -49.1980 C.3       0 UNK        -0.1800 
      2 C          -1.6289  -11.6793  -49.7279 C.2       0 UNK         0.5000 
      3 O          -0.9435  -10.8623  -50.3390 O.2       0 UNK        -0.5000 
      4 N          -2.9363  -11.4583  -49.5281 N.am      1 UNK        -0.5000 
      5 CA         -3.8706  -12.3264  -48.7960 C.3       1 UNK         0.1400 
      6 C6         -5.3423  -12.1153  -49.2284 C.3       23 UNK        -0.0398 
      7 S7         -5.5889  -12.2759  -51.0308 S.3       23 UNK        -0.2404 
      8 C8         -6.0200  -14.0371  -51.2009 C.3       23 UNK        -0.0205 
      9 C9         -4.8376  -14.9524  -50.9144 C.ar      23 UNK        -0.0193 
     10 C10        -3.7557  -14.9993  -51.7982 C.ar      23 UNK        -0.1150 
     11 C11        -2.6819  -15.8594  -51.5568 C.ar      23 UNK        -0.0193 
     12 C12        -2.6906  -16.6707  -50.4199 C.ar      23 UNK        -0.1150 
     13 C13        -3.7644  -16.6351  -49.5230 C.ar      23 UNK        -0.0193 
     14 C14        -4.8347  -15.7719  -49.7810 C.ar      23 UNK        -0.1150 
     15 C15        -3.8384  -17.5625  -48.3123 C.3       23 UNK        -0.0205 
     16 S16        -2.2271  -18.0481  -47.6007 S.3       23 UNK        -0.2404 
     17 C17        -2.7827  -19.3034  -46.4034 C.3       23 UNK        -0.0398 
     18 CA         -2.4301  -20.7496  -46.8358 C.3       11 UNK         0.1400 
     19 N          -1.0166  -21.0814  -46.6177 N.am      11 UNK        -0.5000 
     20 C          -0.4413  -22.2579  -46.9132 C.2       10 UNK         0.5000 
     21 O          -1.0230  -23.1822  -47.4776 O.2       10 UNK        -0.5000 
     22 CA          1.0033  -22.4751  -46.4290 C.3       10 UNK         0.1400 
     23 CB          2.0138  -21.7835  -47.3565 C.3       10 UNK        -0.1800 
     24 N           1.1959  -22.0364  -45.0453 N.am      10 UNK        -0.5000 
     25 C           0.5678  -22.5726  -43.9875 C.2       9 UNK         0.5000 
     26 O          -0.1878  -23.5406  -44.0599 O.2       9 UNK        -0.5000 
     27 CA          0.7668  -21.8793  -42.6284 C.3       9 UNK         0.1400 
     28 CB          2.0691  -22.3347  -41.9532 C.3       9 UNK        -0.1800 
     29 N           0.7463  -20.4221  -42.7525 N.am      9 UNK        -0.5000 
     30 C          -0.3476  -19.7105  -43.0610 C.2       8 UNK         0.5000 
     31 O          -1.4649  -20.2058  -43.2102 O.2       8 UNK        -0.5000 
     32 CA         -0.1497  -18.2006  -43.2903 C.3       8 UNK         0.1400 
     33 CB         -0.2576  -17.4299  -41.9671 C.3       8 UNK        -0.1800 
     34 N           1.1263  -17.8877  -43.9356 N.am      8 UNK        -0.5000 
     35 C           1.4657  -18.2783  -45.1722 C.2       7 UNK         0.5000 
     36 O           0.7178  -18.9169  -45.9094 O.2       7 UNK        -0.5000 
     37 CA          2.8972  -17.9553  -45.6366 C.3       7 UNK         0.1400 
     38 CB          3.0109  -16.5026  -46.1220 C.3       7 UNK        -0.1800 
     39 N           3.8885  -18.2053  -44.5889 N.am      7 UNK        -0.5000 
     40 C           4.1625  -19.4075  -44.0667 C.2       6 UNK         0.5000 
     41 O           3.6301  -20.4457  -44.4586 O.2       6 UNK        -0.5000 
     42 CA          5.1423  -19.4711  -42.8763 C.3       6 UNK         0.1400 
     43 CB          6.6040  -19.5650  -43.3535 C.3       6 UNK        -0.1800 
     44 N           4.9472  -18.4017  -41.8846 N.am      6 UNK        -0.5000 
     45 C           5.1871  -17.0902  -42.0132 C.2       5 UNK         0.5000 
     46 O           5.7163  -16.5776  -43.0026 O.2       5 UNK        -0.5000 
     47 CA          4.7055  -16.1940  -40.8540 C.3       5 UNK         0.1400 
     48 CB          5.8607  -15.8975  -39.8862 C.3       5 UNK        -0.1800 
     49 N           4.1406  -14.9273  -41.3289 N.am      5 UNK        -0.5000 
     50 C           3.1292  -14.8130  -42.2014 C.2       4 UNK         0.5000 
     51 O           2.5006  -15.7824  -42.6340 O.2       4 UNK        -0.5000 
     52 CA          2.7857  -13.3856  -42.6776 C.3       4 UNK         0.1400 
     53 CB          4.0455  -12.6033  -43.0946 C.3       4 UNK        -0.1800 
     54 N           1.8739  -13.4155  -43.8209 N.am      4 UNK        -0.5000 
     55 C           0.5390  -13.4435  -43.7504 C.2       3 UNK         0.5000 
     56 O          -0.1034  -13.3893  -42.6986 O.2       3 UNK        -0.5000 
     57 CA         -0.1958  -13.5729  -45.0983 C.3       3 UNK         0.1400 
     58 CB         -0.6025  -15.0280  -45.3667 C.3       3 UNK        -0.1800 
     59 N          -1.3907  -12.7393  -45.1788 N.am      3 UNK        -0.5000 
     60 C          -1.4122  -11.4021  -45.1726 C.2       2 UNK         0.5000 
     61 O          -0.4070  -10.6985  -45.0554 O.2       2 UNK        -0.5000 
     62 CA         -2.7894  -10.7615  -45.4369 C.3       2 UNK         0.1400 
     63 CB         -2.7966   -9.2411  -45.1977 C.3       2 UNK        -0.1800 
     64 N          -3.1923  -11.0249  -46.8189 N.am      2 UNK        -0.5000 
     65 C          -3.7291  -12.1686  -47.2680 C.2       1 UNK         0.5000 
     66 O          -4.0589  -13.0969  -46.5291 O.2       1 UNK        -0.5000 
     67 C          -3.3712  -21.7515  -46.1382 C.2       11 UNK         0.5000 
     68 O          -4.2870  -22.2615  -46.7849 O.2       11 UNK        -0.5000 
     69 N          -3.1198  -22.0281  -44.8506 N.am      12 UNK        -0.5000 
     70 CA         -3.8939  -22.9685  -44.0399 C.3       12 UNK         0.1400 
     71 CB         -3.4450  -22.8789  -42.5736 C.3       12 UNK        -0.1800 
     72 C          -3.8115  -24.4173  -44.5532 C.2       12 UNK         0.5000 
     73 O          -4.8447  -25.0787  -44.6579 O.2       12 UNK        -0.5000 
     74 N          -2.5971  -24.8720  -44.8927 N.am      13 UNK        -0.5000 
     75 CA         -2.3273  -26.2041  -45.4384 C.3       13 UNK         0.1400 
     76 CB         -0.8098  -26.4380  -45.4874 C.3       13 UNK        -0.1800 
     77 C          -2.9527  -26.4230  -46.8280 C.2       13 UNK         0.5000 
     78 O          -3.4798  -27.5031  -47.0967 O.2       13 UNK        -0.5000 
     79 N          -2.8984  -25.3886  -47.6758 N.am      14 UNK        -0.5000 
     80 CA         -3.4759  -25.3777  -49.0186 C.3       14 UNK         0.1400 
     81 CB         -2.8529  -24.2127  -49.7988 C.3       14 UNK        -0.1800 
     82 C          -5.0071  -25.2260  -49.0324 C.2       14 UNK         0.5000 
     83 O          -5.6194  -25.4844  -50.0674 O.2       14 UNK        -0.5000 
     84 N          -5.5866  -24.7402  -47.9242 N.am      15 UNK        -0.5000 
     85 CA         -6.9658  -24.2537  -47.7953 C.3       15 UNK         0.1400 
     86 CB         -7.9818  -25.4061  -47.9350 C.3       15 UNK        -0.1800 
     87 C          -7.2380  -23.0714  -48.7535 C.2       15 UNK         0.5000 
     88 O          -8.2899  -23.0072  -49.3915 O.2       15 UNK        -0.5000 
     89 N          -6.2433  -22.1762  -48.8474 N.am      16 UNK        -0.5000 
     90 CA         -6.1624  -20.9879  -49.7014 C.3       16 UNK         0.1400 
     91 CB         -7.2226  -19.9453  -49.2927 C.3       16 UNK        -0.1800 
     92 C          -6.1558  -21.2719  -51.2216 C.2       16 UNK         0.5000 
     93 O          -6.4035  -20.3535  -52.0045 O.2       16 UNK        -0.5000 
     94 N          -5.8450  -22.5115  -51.6316 N.am      17 UNK        -0.5000 
     95 CA         -5.6476  -22.8881  -53.0322 C.3       17 UNK         0.1400 
     96 CB         -5.6591  -24.4184  -53.1647 C.3       17 UNK        -0.1800 
     97 C          -4.3232  -22.3043  -53.5509 C.2       17 UNK         0.5000 
     98 O          -3.2599  -22.6967  -53.0648 O.2       17 UNK        -0.5000 
     99 N          -4.4060  -21.3723  -54.5100 N.am      18 UNK        -0.5000 
    100 CA        -3.2969  -20.5455  -55.0037 C.3       18 UNK         0.1400 
    101 CB        -3.8162  -19.6045  -56.1000 C.3       18 UNK        -0.1800 
    102 C         -2.0614  -21.3184  -55.5016 C.2       18 UNK         0.5000 
    103 O         -0.9440  -20.8160  -55.3754 O.2       18 UNK        -0.5000 
    104 N         -2.2730  -22.5435  -55.9999 N.am      19 UNK        -0.5000 
    105 CA        -1.2295  -23.4737  -56.4363 C.3       19 UNK         0.1400 
    106 CB        -1.8986  -24.7252  -57.0251 C.3       19 UNK        -0.1800 
    107 C         -0.2266  -23.8707  -55.3315 C.2       19 UNK         0.5000 
    108 O          0.9052  -24.2303  -55.6586 O.2       19 UNK        -0.5000 
    109 N         -0.6470  -23.7916  -54.0614 N.am      20 UNK        -0.5000 
    110 CA         0.1884  -24.0552  -52.8899 C.3       20 UNK         0.1400 
    111 CB        -0.3245  -25.3190  -52.1822 C.3       20 UNK        -0.1800 
    112 C          0.2425  -22.8518  -51.9308 C.2       20 UNK         0.5000 
    113 O          1.2734  -22.6500  -51.2884 O.2       20 UNK        -0.5000 
    114 N         -0.8421  -22.0672  -51.8479 N.am      21 UNK        -0.5000 
    115 CA        -0.9415  -20.8856  -50.9893 C.3       21 UNK         0.1400 
    116 CB        -2.4171  -20.4788  -50.8524 C.3       21 UNK        -0.1800 
    117 C         -0.1146  -19.6930  -51.5023 C.2       21 UNK         0.5000 
    118 O          0.4129  -18.9367  -50.6866 O.2       21 UNK        -0.5000 
    119 N         -0.0278  -19.5396  -52.8301 N.am      22 UNK        -0.5000 
    120 CA         0.6784  -18.4371  -53.5024 C.3       22 UNK         0.1400 
    121 C          1.9181  -18.9552  -54.2751 C.2       22 UNK         0.5000 
    122 N          1.7967  -20.0397  -55.0317 N.am      22 UNK        -0.7600 
    123 O          2.9969  -18.3759  -54.1848 O.2       22 UNK        -0.5000 
    124 C124       -0.2371  -17.6086  -54.4498 C.3       23 UNK        -0.0398 
    125 S125       -1.8928  -17.2305  -53.7818 S.3       23 UNK        -0.2404 
    126 C126       -1.5306  -15.9543  -52.5422 C.3       23 UNK        -0.0205 
    127 H127        0.0872  -12.9657  -49.4252 H         1 UNK         0.0600 
    128 H128       -1.4220  -13.8384  -49.6614 H         1 UNK         0.0600 
    129 H129       -1.0856  -13.0364  -48.1173 H         1 UNK         0.0600 
    130 H130       -3.3489  -10.6267  -49.9260 H         1 UNK         0.3000 
    131 H131       -3.6150  -13.3619  -49.0179 H         1 UNK         0.0600 
    132 H132       -5.6852  -11.1211  -48.9366 H         1 UNK         0.0800 
    133 H133       -5.9979  -12.8227  -48.7170 H         1 UNK         0.0800 
    134 H134       -6.3643  -14.2157  -52.2205 H         1 UNK         0.0800 
    135 H135       -6.8646  -14.2705  -50.5508 H         1 UNK         0.0800 
    136 H136       -3.7586  -14.3776  -52.6826 H         1 UNK         0.1150 
    137 H137       -1.8652  -17.3478  -50.2547 H         1 UNK         0.1150 
    138 H138       -5.6770  -15.7483  -49.1037 H         1 UNK         0.1150 
    139 H139       -4.4270  -17.0897  -47.5243 H         1 UNK         0.0800 
    140 H140       -4.3794  -18.4599  -48.6118 H         1 UNK         0.0800 
    141 H141       -3.8589  -19.1844  -46.2613 H         1 UNK         0.0800 
    142 H142       -2.3381  -19.0737  -45.4364 H         1 UNK         0.0800 
    143 H143       -2.6183  -20.8459  -47.9065 H         1 UNK         0.0600 
    144 H144       -0.4378  -20.3483  -46.2131 H         1 UNK         0.3000 
    145 H145        1.2033  -23.5481  -46.4616 H         1 UNK         0.0600 
    146 H146        3.0379  -21.9660  -47.0304 H         1 UNK         0.0600 
    147 H147        1.9231  -22.1605  -48.3763 H         1 UNK         0.0600 
    148 H148        1.8628  -20.7057  -47.3962 H         1 UNK         0.0600 
    149 H149        1.8414  -21.2684  -44.8947 H         1 UNK         0.3000 
    150 H150       -0.0630  -22.1726  -41.9818 H         1 UNK         0.0600 
    151 H151        2.0612  -23.4129  -41.7891 H         1 UNK         0.0600 
    152 H152        2.1973  -21.8596  -40.9805 H         1 UNK         0.0600 
    153 H153        2.9459  -22.1062  -42.5578 H         1 UNK         0.0600 
    154 H154        1.6306  -19.9417  -42.6889 H         1 UNK         0.3000 
    155 H155       -0.9497  -17.8565  -43.9478 H         1 UNK         0.0600 
    156 H156        0.5525  -17.6875  -41.2838 H         1 UNK         0.0600 
    157 H157       -1.1994  -17.6476  -41.4619 H         1 UNK         0.0600 
    158 H158       -0.2217  -16.3534  -42.1366 H         1 UNK         0.0600 
    159 H159        1.7664  -17.2917  -43.4142 H         1 UNK         0.3000 
    160 H160        3.1268  -18.6119  -46.4783 H         1 UNK         0.0600 
    161 H161        2.8360  -15.7922  -45.3149 H         1 UNK         0.0600 
    162 H162        2.2836  -16.2959  -46.9084 H         1 UNK         0.0600 
    163 H163        4.0002  -16.3025  -46.5335 H         1 UNK         0.0600 
    164 H164        4.3739  -17.4019  -44.2027 H         1 UNK         0.3000 
    165 H165        4.9204  -20.3985  -42.3459 H         1 UNK         0.0600 
    166 H166        6.8987  -18.7032  -43.9524 H         1 UNK         0.0600 
    167 H167        7.2905  -19.6396  -42.5102 H         1 UNK         0.0600 
    168 H168        6.7508  -20.4513  -43.9719 H         1 UNK         0.0600 
    169 H169        4.5013  -18.7066  -41.0303 H         1 UNK         0.3000 
    170 H170        3.9185  -16.7183  -40.3081 H         1 UNK         0.0600 
    171 H171        6.6642  -15.3465  -40.3770 H         1 UNK         0.0600 
    172 H172        5.5214  -15.3094  -39.0333 H         1 UNK         0.0600 
    173 H173        6.2886  -16.8207  -39.4933 H         1 UNK         0.0600 
    174 H174        4.6239  -14.0904  -41.0389 H         1 UNK         0.3000 
    175 H175        2.3110  -12.8615  -41.8457 H         1 UNK         0.0600 
    176 H176        4.6178  -13.1378  -43.8544 H         1 UNK         0.0600 
    177 H177        3.7844  -11.6255  -43.5004 H         1 UNK         0.0600 
    178 H178        4.7074  -12.4254  -42.2467 H         1 UNK         0.0600 
    179 H179        2.3129  -13.4964  -44.7257 H         1 UNK         0.3000 
    180 H180        0.4776  -13.2546  -45.8971 H         1 UNK         0.0600 
    181 H181       -1.1018  -15.1333  -46.3305 H         1 UNK         0.0600 
    182 H182       -1.2742  -15.4080  -44.5961 H         1 UNK         0.0600 
    183 H183        0.2735  -15.6718  -45.3877 H         1 UNK         0.0600 
    184 H184       -2.2708  -13.2234  -45.3082 H         1 UNK         0.3000 
    185 H185       -3.5096  -11.2132  -44.7512 H         1 UNK         0.0600 
    186 H186       -3.7926   -8.8245  -45.3486 H         1 UNK         0.0600 
    187 H187       -2.4982   -9.0061  -44.1752 H         1 UNK         0.0600 
    188 H188       -2.1116   -8.7211  -45.8687 H         1 UNK         0.0600 
    189 H189       -2.9135  -10.3352  -47.5021 H         1 UNK         0.3000 
    190 H190       -2.3670  -21.5373  -44.3776 H         1 UNK         0.3000 
    191 H191       -4.9405  -22.6610  -44.0898 H         1 UNK         0.0600 
    192 H192       -4.0263  -23.5544  -41.9449 H         1 UNK         0.0600 
    193 H193       -3.5811  -21.8711  -42.1811 H         1 UNK         0.0600 
    194 H194       -2.3940  -23.1434  -42.4560 H         1 UNK         0.0600 
    195 H195       -1.7884  -24.2739  -44.7392 H         1 UNK         0.3000 
    196 H196       -2.7632  -26.9390  -44.7585 H         1 UNK         0.0600 
    197 H197       -0.3113  -25.7050  -46.1230 H         1 UNK         0.0600 
    198 H198       -0.3690  -26.3715  -44.4926 H         1 UNK         0.0600 
    199 H199       -0.5779  -27.4284  -45.8810 H         1 UNK         0.0600 
    200 H200       -2.3874  -24.5533  -47.4011 H         1 UNK         0.3000 
    201 H201       -3.2223  -26.3126  -49.5224 H         1 UNK         0.0600 
    202 H202       -3.2209  -24.1782  -50.8239 H         1 UNK         0.0600 
    203 H203       -3.0889  -23.2574  -49.3304 H         1 UNK         0.0600 
    204 H204       -1.7679  -24.2993  -49.8403 H         1 UNK         0.0600 
    205 H205       -4.9819  -24.5339  -47.1394 H         1 UNK         0.3000 
    206 H206       -7.0545  -23.8553  -46.7835 H         1 UNK         0.0600 
    207 H207       -7.7495  -26.2198  -47.2480 H         1 UNK         0.0600 
    208 H208       -8.9911  -25.0639  -47.7038 H         1 UNK         0.0600 
    209 H209       -8.0006  -25.8146  -48.9455 H         1 UNK         0.0600 
    210 H210       -5.4488  -22.3146  -48.2254 H         1 UNK         0.3000 
    211 H211       -5.1867  -20.5512  -49.4886 H         1 UNK         0.0600 
    212 H212       -7.0618  -18.9978  -49.8086 H         1 UNK         0.0600 
    213 H213       -7.1806  -19.7393  -48.2231 H         1 UNK         0.0600 
    214 H214       -8.2321  -20.2806  -49.5316 H         1 UNK         0.0600 
    215 H215       -5.6676  -23.2286  -50.9422 H         1 UNK         0.3000 
    216 H216       -6.4765  -22.4914  -53.6221 H         1 UNK         0.0600 
    217 H217       -4.8373  -24.8804  -52.6165 H         1 UNK         0.0600 
    218 H218       -5.5644  -24.7194  -54.2086 H         1 UNK         0.0600 
    219 H219       -6.5906  -24.8400  -52.7865 H         1 UNK         0.0600 
    220 H220       -5.3241  -21.1120  -54.8403 H         1 UNK         0.3000 
    221 H221       -2.9655  -19.9340  -54.1643 H         1 UNK         0.0600 
    222 H222       -4.6050  -18.9549  -55.7203 H         1 UNK         0.0600 
    223 H223       -4.2140  -20.1585  -56.9510 H         1 UNK         0.0600 
    224 H224       -3.0189  -18.9582  -56.4702 H         1 UNK         0.0600 
    225 H225       -3.2242  -22.8774  -56.0466 H         1 UNK         0.3000 
    226 H226       -0.6613  -22.9824  -57.2287 H         1 UNK         0.0600 
    227 H227       -2.5069  -25.2421  -56.2816 H         1 UNK         0.0600 
    228 H228       -2.5409  -24.4706  -57.8683 H         1 UNK         0.0600 
    229 H229       -1.1529  -25.4333  -57.3891 H         1 UNK         0.0600 
    230 H230       -1.5964  -23.4826  -53.8825 H         1 UNK         0.3000 
    231 H231        1.2208  -24.2432  -53.1918 H         1 UNK         0.0600 
    232 H232       -1.3974  -25.2705  -52.0005 H         1 UNK         0.0600 
    233 H233        0.1729  -25.4690  -51.2230 H         1 UNK         0.0600 
    234 H234       -0.1357  -26.2050  -52.7883 H         1 UNK         0.0600 
    235 H235       -1.6856  -22.3186  -52.3583 H         1 UNK         0.3000 
    236 H236       -0.5713  -21.1531  -49.9969 H         1 UNK         0.0600 
    237 H237       -2.8300  -20.1242  -51.7966 H         1 UNK         0.0600 
    238 H238       -3.0305  -21.3108  -50.5135 H         1 UNK         0.0600 
    239 H239       -2.5316  -19.6744  -50.1277 H         1 UNK         0.0600 
    240 H240       -0.4555  -20.2218  -53.4420 H         1 UNK         0.3000 
    241 H241        1.0597  -17.7430  -52.7518 H         1 UNK         0.0600 
    242 H242        2.5971  -20.3889  -55.5339 H         1 UNK         0.3800 
    243 H243        0.8854  -20.4679  -55.1705 H         1 UNK         0.3800 
    244 H244       -0.4010  -18.1442  -55.3865 H         1 UNK         0.0800 
    245 H245        0.2527  -16.6729  -54.7243 H         1 UNK         0.0800 
    246 H246       -0.6111  -16.1977  -52.0084 H         1 UNK         0.0800 
    247 H247       -1.3641  -14.9959  -53.0361 H         1 UNK         0.0800 
@<TRIPOS>BOND
     1    1    2 1    
     2    1  127 1    
     3    1  128 1    
     4    1  129 1    
     5    2    3 2    
     6    2    4 am   BACKBONE|DICT|INTERRES
     7    4    5 1    
     8    4  130 1    
     9    5    6 1    
    10    5   65 1    
    11    5  131 1    
    12    6    7 1    
    13    6  132 1    
    14    6  133 1    
    15    7    8 1    
    16    8    9 1    
    17    8  134 1    
    18    8  135 1    
    19    9   10 ar   
    20    9   14 ar   
    21   10   11 ar   
    22   10  136 1    
    23   11   12 ar   
    24   11  126 1    
    25   12   13 ar   
    26   12  137 1    
    27   13   14 ar   
    28   13   15 1    
    29   14  138 1    
    30   15   16 1    
    31   15  139 1    
    32   15  140 1    
    33   16   17 1    
    34   17   18 1    
    35   17  141 1    
    36   17  142 1    
    37   18   19 1    
    38   18   67 1    
    39   18  143 1    
    40   19   20 am   BACKBONE|DICT|INTERRES
    41   19  144 1    
    42   20   21 2    
    43   20   22 1    
    44   22   23 1    
    45   22   24 1    
    46   22  145 1    
    47   23  146 1    
    48   23  147 1    
    49   23  148 1    
    50   24   25 am   BACKBONE|DICT|INTERRES
    51   24  149 1    
    52   25   26 2    
    53   25   27 1    
    54   27   28 1    
    55   27   29 1    
    56   27  150 1    
    57   28  151 1    
    58   28  152 1    
    59   28  153 1    
    60   29   30 am   BACKBONE|DICT|INTERRES
    61   29  154 1    
    62   30   31 2    
    63   30   32 1    
    64   32   33 1    
    65   32   34 1    
    66   32  155 1    
    67   33  156 1    
    68   33  157 1    
    69   33  158 1    
    70   34   35 am   BACKBONE|DICT|INTERRES
    71   34  159 1    
    72   35   36 2    
    73   35   37 1    
    74   37   38 1    
    75   37   39 1    
    76   37  160 1    
    77   38  161 1    
    78   38  162 1    
    79   38  163 1    
    80   39   40 am   BACKBONE|DICT|INTERRES
    81   39  164 1    
    82   40   41 2    
    83   40   42 1    
    84   42   43 1    
    85   42   44 1    
    86   42  165 1    
    87   43  166 1    
    88   43  167 1    
    89   43  168 1    
    90   44   45 am   BACKBONE|DICT|INTERRES
    91   44  169 1    
    92   45   46 2    
    93   45   47 1    
    94   47   48 1    
    95   47   49 1    
    96   47  170 1    
    97   48  171 1    
    98   48  172 1    
    99   48  173 1    
   100   49   50 am   BACKBONE|DICT|INTERRES
   101   49  174 1    
   102   50   51 2    
   103   50   52 1    
   104   52   53 1    
   105   52   54 1    
   106   52  175 1    
   107   53  176 1    
   108   53  177 1    
   109   53  178 1    
   110   54   55 am   BACKBONE|DICT|INTERRES
   111   54  179 1    
   112   55   56 2    
   113   55   57 1    
   114   57   58 1    
   115   57   59 1    
   116   57  180 1    
   117   58  181 1    
   118   58  182 1    
   119   58  183 1    
   120   59   60 am   BACKBONE|DICT|INTERRES
   121   59  184 1    
   122   60   61 2    
   123   60   62 1    
   124   62   63 1    
   125   62   64 1    
   126   62  185 1    
   127   63  186 1    
   128   63  187 1    
   129   63  188 1    
   130   64   65 am   BACKBONE|DICT|INTERRES
   131   64  189 1    
   132   65   66 2    
   133   67   68 2    
   134   67   69 am   BACKBONE|DICT|INTERRES
   135   69   70 1    
   136   69  190 1    
   137   70   71 1    
   138   70   72 1    
   139   70  191 1    
   140   71  192 1    
   141   71  193 1    
   142   71  194 1    
   143   72   73 2    
   144   72   74 am   BACKBONE|DICT|INTERRES
   145   74   75 1    
   146   74  195 1    
   147   75   76 1    
   148   75   77 1    
   149   75  196 1    
   150   76  197 1    
   151   76  198 1    
   152   76  199 1    
   153   77   78 2    
   154   77   79 am   BACKBONE|DICT|INTERRES
   155   79   80 1    
   156   79  200 1    
   157   80   81 1    
   158   80   82 1    
   159   80  201 1    
   160   81  202 1    
   161   81  203 1    
   162   81  204 1    
   163   82   83 2    
   164   82   84 am   BACKBONE|DICT|INTERRES
   165   84   85 1    
   166   84  205 1    
   167   85   86 1    
   168   85   87 1    
   169   85  206 1    
   170   86  207 1    
   171   86  208 1    
   172   86  209 1    
   173   87   88 2    
   174   87   89 am   BACKBONE|DICT|INTERRES
   175   89   90 1    
   176   89  210 1    
   177   90   91 1    
   178   90   92 1    
   179   90  211 1    
   180   91  212 1    
   181   91  213 1    
   182   91  214 1    
   183   92   93 2    
   184   92   94 am   BACKBONE|DICT|INTERRES
   185   94   95 1    
   186   94  215 1    
   187   95   96 1    
   188   95   97 1    
   189   95  216 1    
   190   96  217 1    
   191   96  218 1    
   192   96  219 1    
   193   97   98 2    
   194   97   99 am   BACKBONE|DICT|INTERRES
   195   99  100 1    
   196   99  220 1    
   197  100  101 1    
   198  100  102 1    
   199  100  221 1    
   200  101  222 1    
   201  101  223 1    
   202  101  224 1    
   203  102  103 2    
   204  102  104 am   BACKBONE|DICT|INTERRES
   205  104  105 1    
   206  104  225 1    
   207  105  106 1    
   208  105  107 1    
   209  105  226 1    
   210  106  227 1    
   211  106  228 1    
   212  106  229 1    
   213  107  108 2    
   214  107  109 am   BACKBONE|DICT|INTERRES
   215  109  110 1    
   216  109  230 1    
   217  110  111 1    
   218  110  112 1    
   219  110  231 1    
   220  111  232 1    
   221  111  233 1    
   222  111  234 1    
   223  112  113 2    
   224  112  114 am   BACKBONE|DICT|INTERRES
   225  114  115 1    
   226  114  235 1    
   227  115  116 1    
   228  115  117 1    
   229  115  236 1    
   230  116  237 1    
   231  116  238 1    
   232  116  239 1    
   233  117  118 2    
   234  117  119 am   BACKBONE|DICT|INTERRES
   235  119  120 1    
   236  119  240 1    
   237  120  121 1    
   238  120  124 1    
   239  120  241 1    
   240  121  122 am   BACKBONE|DICT|INTERRES
   241  121  123 2    
   242  122  242 1    
   243  122  243 1    
   244  124  125 1    
   245  124  244 1    
   246  124  245 1    
   247  125  126 1    
   248  126  246 1    
   249  126  247 1    
@<TRIPOS>SUBSTRUCTURE
     1 UNK         1 GROUP             0       ****    0 ROOT    
