@<TRIPOS>MOLECULE
3R540
247   249    1
SMALL
USER_CHARGES


@<TRIPOS>ATOM
      1 CA          6.4876  -11.1791  -51.3206 C.3       0 UNK        -0.1800 
      2 C           5.1112  -11.6554  -50.8820 C.2       0 UNK         0.5000 
      3 O           4.6801  -11.3433  -49.7733 O.2       0 UNK        -0.5000 
      4 N           4.4062  -12.3913  -51.7515 N.am      1 UNK        -0.5000 
      5 CA          3.0751  -12.9630  -51.5014 C.3       1 UNK         0.1400 
      6 C6          2.6682  -13.9192  -52.6526 C.3       23 UNK        -0.0398 
      7 S7          1.2005  -14.9389  -52.2937 S.3       23 UNK        -0.2404 
      8 C8          1.9160  -16.2699  -51.2780 C.3       23 UNK        -0.0205 
      9 C9          0.8815  -16.8113  -50.3055 C.ar      23 UNK        -0.0193 
     10 C10         0.4530  -16.0109  -49.2437 C.ar      23 UNK        -0.1150 
     11 C11        -0.5274  -16.4631  -48.3589 C.ar      23 UNK        -0.0193 
     12 C12        -1.0667  -17.7392  -48.5358 C.ar      23 UNK        -0.1150 
     13 C13        -0.6213  -18.5673  -49.5709 C.ar      23 UNK        -0.0193 
     14 C14         0.3497  -18.0954  -50.4589 C.ar      23 UNK        -0.1150 
     15 C15        -1.1968  -19.9658  -49.7256 C.3       23 UNK        -0.0205 
     16 S16        -0.2108  -21.1999  -48.8240 S.3       23 UNK        -0.2404 
     17 C17        -1.4511  -22.5113  -48.5486 C.3       23 UNK        -0.0398 
     18 CA         -0.9005  -23.6842  -47.6985 C.3       11 UNK         0.1400 
     19 N          -0.4171  -23.2664  -46.3755 N.am      11 UNK        -0.5000 
     20 C           0.2269  -24.0655  -45.5111 C.2       10 UNK         0.5000 
     21 O           0.5412  -25.2270  -45.7623 O.2       10 UNK        -0.5000 
     22 CA          0.5138  -23.5035  -44.1089 C.3       10 UNK         0.1400 
     23 CB          1.8196  -22.6941  -44.0853 C.3       10 UNK        -0.1800 
     24 N          -0.5981  -22.6915  -43.6161 N.am      10 UNK        -0.5000 
     25 C          -1.7718  -23.1940  -43.2061 C.2       9 UNK         0.5000 
     26 O          -2.0150  -24.3994  -43.1558 O.2       9 UNK        -0.5000 
     27 CA         -2.8723  -22.1820  -42.8318 C.3       9 UNK         0.1400 
     28 CB         -2.7090  -21.7173  -41.3775 C.3       9 UNK        -0.1800 
     29 N          -2.8863  -21.0140  -43.7125 N.am      9 UNK        -0.5000 
     30 C          -3.1768  -21.0580  -45.0219 C.2       8 UNK         0.5000 
     31 O          -3.5388  -22.0800  -45.6034 O.2       8 UNK        -0.5000 
     32 CA         -2.9565  -19.7620  -45.8278 C.3       8 UNK         0.1400 
     33 CB         -4.2357  -18.9147  -45.8518 C.3       8 UNK        -0.1800 
     34 N          -1.8540  -18.9441  -45.3152 N.am      8 UNK        -0.5000 
     35 C          -0.5859  -19.3560  -45.1739 C.2       7 UNK         0.5000 
     36 O          -0.1959  -20.4584  -45.5505 O.2       7 UNK        -0.5000 
     37 CA          0.4008  -18.4292  -44.4355 C.3       7 UNK         0.1400 
     38 CB          1.5028  -17.9342  -45.3848 C.3       7 UNK        -0.1800 
     39 N          -0.2080  -17.2765  -43.7644 N.am      7 UNK        -0.5000 
     40 C          -1.1039  -17.3059  -42.7690 C.2       6 UNK         0.5000 
     41 O          -1.5812  -18.3514  -42.3244 O.2       6 UNK        -0.5000 
     42 CA         -1.5924  -15.9541  -42.2009 C.3       6 UNK         0.1400 
     43 CB         -0.9885  -15.6979  -40.8068 C.3       6 UNK        -0.1800 
     44 N          -1.4148  -14.7796  -43.0764 N.am      6 UNK        -0.5000 
     45 C          -0.2740  -14.2038  -43.4808 C.2       5 UNK         0.5000 
     46 O           0.8481  -14.6497  -43.2263 O.2       5 UNK        -0.5000 
     47 CA         -0.4057  -12.9304  -44.3292 C.3       5 UNK         0.1400 
     48 CB         -0.7931  -11.7193  -43.4615 C.3       5 UNK        -0.1800 
     49 N           0.8781  -12.6910  -44.9781 N.am      5 UNK        -0.5000 
     50 C           1.0874  -11.9626  -46.0768 C.2       4 UNK         0.5000 
     51 O           0.1979  -11.3559  -46.6764 O.2       4 UNK        -0.5000 
     52 CA          2.5376  -11.9546  -46.5999 C.3       4 UNK         0.1400 
     53 CB          2.8464  -13.2630  -47.3459 C.3       4 UNK        -0.1800 
     54 N           2.8194  -10.8354  -47.4963 N.am      4 UNK        -0.5000 
     55 C           2.8284   -9.5398  -47.1569 C.2       3 UNK         0.5000 
     56 O           2.6487   -9.1309  -46.0086 O.2       3 UNK        -0.5000 
     57 CA          3.0983   -8.5271  -48.2855 C.3       3 UNK         0.1400 
     58 CB          4.5841   -8.1340  -48.3122 C.3       3 UNK        -0.1800 
     59 N           2.7211   -9.0501  -49.6007 N.am      3 UNK        -0.5000 
     60 C           1.5162   -8.8887  -50.1659 C.2       2 UNK         0.5000 
     61 O           0.6033   -8.2424  -49.6505 O.2       2 UNK        -0.5000 
     62 CA          1.2871   -9.5388  -51.5470 C.3       2 UNK         0.1400 
     63 CB          1.5053   -8.5091  -52.6664 C.3       2 UNK        -0.1800 
     64 N           2.1450  -10.6985  -51.7984 N.am      2 UNK        -0.5000 
     65 C           1.9999  -11.8896  -51.2008 C.2       1 UNK         0.5000 
     66 O           1.1007  -12.1365  -50.3983 O.2       1 UNK        -0.5000 
     67 C          -1.9417  -24.8190  -47.5836 C.2       11 UNK         0.5000 
     68 O          -1.8566  -25.7977  -48.3253 O.2       11 UNK        -0.5000 
     69 N          -2.8712  -24.7013  -46.6242 N.am      12 UNK        -0.5000 
     70 CA         -3.8454  -25.7383  -46.2844 C.3       12 UNK         0.1400 
     71 CB         -4.8969  -25.1696  -45.3212 C.3       12 UNK        -0.1800 
     72 C          -3.1950  -27.0124  -45.7166 C.2       12 UNK         0.5000 
     73 O          -3.5586  -28.1077  -46.1443 O.2       12 UNK        -0.5000 
     74 N          -2.2191  -26.8585  -44.8092 N.am      13 UNK        -0.5000 
     75 CA         -1.4450  -27.9630  -44.2302 C.3       13 UNK         0.1400 
     76 CB         -0.5607  -27.4353  -43.0909 C.3       13 UNK        -0.1800 
     77 C          -0.5969  -28.7217  -45.2708 C.2       13 UNK         0.5000 
     78 O          -0.4929  -29.9464  -45.1967 O.2       13 UNK        -0.5000 
     79 N          -0.0433  -27.9861  -46.2438 N.am      14 UNK        -0.5000 
     80 CA          0.6846  -28.5139  -47.3999 C.3       14 UNK         0.1400 
     81 CB          1.5243  -27.3799  -48.0105 C.3       14 UNK        -0.1800 
     82 C          -0.2297  -29.1386  -48.4753 C.2       14 UNK         0.5000 
     83 O           0.2850  -29.7502  -49.4124 O.2       14 UNK        -0.5000 
     84 N          -1.5526  -28.9621  -48.3360 N.am      15 UNK        -0.5000 
     85 CA         -2.6165  -29.3836  -49.2511 C.3       15 UNK         0.1400 
     86 CB         -2.6829  -30.9211  -49.3611 C.3       15 UNK        -0.1800 
     87 C          -2.5488  -28.6780  -50.6215 C.2       15 UNK         0.5000 
     88 O          -2.9506  -29.2524  -51.6358 O.2       15 UNK        -0.5000 
     89 N          -2.0813  -27.4222  -50.6316 N.am      16 UNK        -0.5000 
     90 CA         -1.9955  -26.5526  -51.8044 C.3       16 UNK         0.1400 
     91 CB         -0.8682  -25.5272  -51.5863 C.3       16 UNK        -0.1800 
     92 C          -3.3599  -25.8929  -52.0836 C.2       16 UNK         0.5000 
     93 O          -3.4947  -24.6711  -51.9944 O.2       16 UNK        -0.5000 
     94 N          -4.3674  -26.7382  -52.3488 N.am      17 UNK        -0.5000 
     95 CA         -5.7658  -26.4243  -52.6793 C.3       17 UNK         0.1400 
     96 CB         -5.8339  -25.7153  -54.0478 C.3       17 UNK        -0.1800 
     97 C          -6.5402  -25.6391  -51.5951 C.2       17 UNK         0.5000 
     98 O          -7.6385  -25.1554  -51.8740 O.2       17 UNK        -0.5000 
     99 N          -5.9546  -25.5082  -50.3936 N.am      18 UNK        -0.5000 
    100 CA        -6.3713  -24.6242  -49.2982 C.3       18 UNK         0.1400 
    101 CB        -7.6734  -25.1278  -48.6434 C.3       18 UNK        -0.1800 
    102 C         -6.4267  -23.1419  -49.7295 C.2       18 UNK         0.5000 
    103 O         -7.3459  -22.4151  -49.3468 O.2       18 UNK        -0.5000 
    104 N         -5.4458  -22.7382  -50.5505 N.am      19 UNK        -0.5000 
    105 CA        -5.2929  -21.3914  -51.0951 C.3       19 UNK         0.1400 
    106 CB        -4.1472  -21.4115  -52.1208 C.3       19 UNK        -0.1800 
    107 C         -5.0276  -20.3204  -50.0199 C.2       19 UNK         0.5000 
    108 O         -4.5961  -20.6361  -48.9094 O.2       19 UNK        -0.5000 
    109 N         -5.2440  -19.0605  -50.4057 N.am      20 UNK        -0.5000 
    110 CA        -4.9714  -17.8684  -49.6114 C.3       20 UNK         0.1400 
    111 CB        -6.1796  -17.5430  -48.7125 C.3       20 UNK        -0.1800 
    112 C         -4.6132  -16.7372  -50.5852 C.2       20 UNK         0.5000 
    113 O         -5.3259  -15.7360  -50.6696 O.2       20 UNK        -0.5000 
    114 N         -3.5321  -16.9451  -51.3513 N.am      21 UNK        -0.5000 
    115 CA        -3.0779  -16.0678  -52.4388 C.3       21 UNK         0.1400 
    116 CB        -1.9219  -16.7500  -53.1840 C.3       21 UNK        -0.1800 
    117 C         -2.6984  -14.6353  -52.0055 C.2       21 UNK         0.5000 
    118 O         -2.7081  -13.7305  -52.8413 O.2       21 UNK        -0.5000 
    119 N         -2.4260  -14.4468  -50.7094 N.am      22 UNK        -0.5000 
    120 CA        -2.3339  -13.1414  -50.0408 C.3       22 UNK         0.1400 
    121 C         -3.6649  -12.3292  -49.9899 C.2       22 UNK         0.5000 
    122 N         -4.8310  -12.9233  -50.2181 N.am      22 UNK        -0.7600 
    123 O         -3.6371  -11.1254  -49.7491 O.2       22 UNK        -0.5000 
    124 C124       -1.7033  -13.2619  -48.6286 C.3       23 UNK        -0.0398 
    125 S125       -2.4314  -14.5808  -47.5854 S.3       23 UNK        -0.2404 
    126 C126       -0.9729  -15.5939  -47.1912 C.3       23 UNK        -0.0205 
    127 H127        6.5314  -10.0902  -51.2976 H         1 UNK         0.0600 
    128 H128        6.7286  -11.5093  -52.3313 H         1 UNK         0.0600 
    129 H129        7.2497  -11.5661  -50.6444 H         1 UNK         0.0600 
    130 H130        4.8133  -12.6038  -52.6514 H         1 UNK         0.3000 
    131 H131        3.1716  -13.5596  -50.5924 H         1 UNK         0.0600 
    132 H132        2.4761  -13.3537  -53.5660 H         1 UNK         0.0800 
    133 H133        3.4920  -14.5948  -52.8883 H         1 UNK         0.0800 
    134 H134        2.7709  -15.9005  -50.7107 H         1 UNK         0.0800 
    135 H135        2.2932  -17.0581  -51.9311 H         1 UNK         0.0800 
    136 H136        0.8805  -15.0274  -49.1222 H         1 UNK         0.1150 
    137 H137       -1.8243  -18.0943  -47.8557 H         1 UNK         0.1150 
    138 H138        0.6872  -18.7264  -51.2691 H         1 UNK         0.1150 
    139 H139       -2.2143  -19.9717  -49.3446 H         1 UNK         0.0800 
    140 H140       -1.2550  -20.2430  -50.7790 H         1 UNK         0.0800 
    141 H141       -1.7852  -22.8680  -49.5246 H         1 UNK         0.0800 
    142 H142       -2.3272  -22.0729  -48.0692 H         1 UNK         0.0800 
    143 H143       -0.0423  -24.0996  -48.2312 H         1 UNK         0.0600 
    144 H144       -0.5646  -22.2945  -46.1191 H         1 UNK         0.3000 
    145 H145        0.6405  -24.3488  -43.4297 H         1 UNK         0.0600 
    146 H146        2.0174  -22.2918  -43.0917 H         1 UNK         0.0600 
    147 H147        2.6672  -23.3253  -44.3546 H         1 UNK         0.0600 
    148 H148        1.8027  -21.8618  -44.7880 H         1 UNK         0.0600 
    149 H149       -0.5039  -21.6912  -43.7197 H         1 UNK         0.3000 
    150 H150       -3.8356  -22.6881  -42.9242 H         1 UNK         0.0600 
    151 H151       -2.7081  -22.5668  -40.6933 H         1 UNK         0.0600 
    152 H152       -3.5268  -21.0607  -41.0798 H         1 UNK         0.0600 
    153 H153       -1.7743  -21.1742  -41.2306 H         1 UNK         0.0600 
    154 H154       -2.5778  -20.1366  -43.3107 H         1 UNK         0.3000 
    155 H155       -2.7124  -20.0493  -46.8512 H         1 UNK         0.0600 
    156 H156       -4.1082  -18.0224  -46.4646 H         1 UNK         0.0600 
    157 H157       -5.0666  -19.4830  -46.2719 H         1 UNK         0.0600 
    158 H158       -4.5274  -18.5958  -44.8505 H         1 UNK         0.0600 
    159 H159       -2.0975  -18.0394  -44.9425 H         1 UNK         0.3000 
    160 H160        0.8743  -19.0374  -43.6624 H         1 UNK         0.0600 
    161 H161        2.2641  -17.3703  -44.8455 H         1 UNK         0.0600 
    162 H162        1.1052  -17.2926  -46.1693 H         1 UNK         0.0600 
    163 H163        2.0051  -18.7708  -45.8728 H         1 UNK         0.0600 
    164 H164        0.1870  -16.3694  -43.9828 H         1 UNK         0.3000 
    165 H165       -2.6707  -16.0596  -42.0718 H         1 UNK         0.0600 
    166 H166       -1.3837  -14.7817  -40.3679 H         1 UNK         0.0600 
    167 H167       -1.2271  -16.5137  -40.1232 H         1 UNK         0.0600 
    168 H168        0.0979  -15.6126  -40.8417 H         1 UNK         0.0600 
    169 H169       -2.2805  -14.3499  -43.3728 H         1 UNK         0.3000 
    170 H170       -1.1694  -13.0991  -45.0912 H         1 UNK         0.0600 
    171 H171       -1.7481  -11.8821  -42.9607 H         1 UNK         0.0600 
    172 H172       -0.0462  -11.5236  -42.6912 H         1 UNK         0.0600 
    173 H173       -0.8956  -10.8166  -44.0640 H         1 UNK         0.0600 
    174 H174        1.6408  -13.2065  -44.5542 H         1 UNK         0.3000 
    175 H175        3.2093  -11.8727  -45.7430 H         1 UNK         0.0600 
    176 H176        2.2117  -13.3754  -48.2239 H         1 UNK         0.0600 
    177 H177        3.8842  -13.2927  -47.6789 H         1 UNK         0.0600 
    178 H178        2.6845  -14.1337  -46.7093 H         1 UNK         0.0600 
    179 H179        3.0291  -11.0738  -48.4569 H         1 UNK         0.3000 
    180 H180        2.5192   -7.6272  -48.0675 H         1 UNK         0.0600 
    181 H181        5.2270   -8.9929  -48.5076 H         1 UNK         0.0600 
    182 H182        4.8911   -7.7062  -47.3569 H         1 UNK         0.0600 
    183 H183        4.7802   -7.3863  -49.0808 H         1 UNK         0.0600 
    184 H184        3.4045   -9.6390  -50.0593 H         1 UNK         0.3000 
    185 H185        0.2462   -9.8679  -51.5858 H         1 UNK         0.0600 
    186 H186        0.8595   -7.6407  -52.5296 H         1 UNK         0.0600 
    187 H187        2.5355   -8.1515  -52.6892 H         1 UNK         0.0600 
    188 H188        1.2740   -8.9332  -53.6437 H         1 UNK         0.0600 
    189 H189        2.9186  -10.5660  -52.4335 H         1 UNK         0.3000 
    190 H190       -2.9222  -23.8370  -46.0913 H         1 UNK         0.3000 
    191 H191       -4.3549  -26.0297  -47.2039 H         1 UNK         0.0600 
    192 H192       -4.4477  -24.8320  -44.3870 H         1 UNK         0.0600 
    193 H193       -5.6476  -25.9211  -45.0735 H         1 UNK         0.0600 
    194 H194       -5.4192  -24.3219  -45.7654 H         1 UNK         0.0600 
    195 H195       -2.0095  -25.9270  -44.4646 H         1 UNK         0.3000 
    196 H196       -2.1550  -28.6744  -43.8034 H         1 UNK         0.0600 
    197 H197       -0.0133  -28.2489  -42.6135 H         1 UNK         0.0600 
    198 H198       -1.1579  -26.9489  -42.3195 H         1 UNK         0.0600 
    199 H199        0.1731  -26.7154  -43.4522 H         1 UNK         0.0600 
    200 H200       -0.1072  -26.9732  -46.1802 H         1 UNK         0.3000 
    201 H201        1.3640  -29.2955  -47.0542 H         1 UNK         0.0600 
    202 H202        2.2164  -26.9633  -47.2785 H         1 UNK         0.0600 
    203 H203        0.8945  -26.5678  -48.3759 H         1 UNK         0.0600 
    204 H204        2.1192  -27.7381  -48.8515 H         1 UNK         0.0600 
    205 H205       -1.8696  -28.4403  -47.5286 H         1 UNK         0.3000 
    206 H206       -3.5495  -29.0512  -48.7945 H         1 UNK         0.0600 
    207 H207       -2.7307  -31.3842  -48.3754 H         1 UNK         0.0600 
    208 H208       -3.5720  -31.2352  -49.9090 H         1 UNK         0.0600 
    209 H209       -1.8179  -31.3301  -49.8835 H         1 UNK         0.0600 
    210 H210       -1.8487  -26.9849  -49.7419 H         1 UNK         0.3000 
    211 H211       -1.7336  -27.1514  -52.6792 H         1 UNK         0.0600 
    212 H212       -1.0698  -24.8767  -50.7361 H         1 UNK         0.0600 
    213 H213       -0.7453  -24.8906  -52.4633 H         1 UNK         0.0600 
    214 H214        0.0858  -26.0234  -51.4073 H         1 UNK         0.0600 
    215 H215       -4.1376  -27.7272  -52.3343 H         1 UNK         0.3000 
    216 H216       -6.2758  -27.3836  -52.7762 H         1 UNK         0.0600 
    217 H217       -6.8653  -25.6043  -54.3844 H         1 UNK         0.0600 
    218 H218       -5.3059  -26.2836  -54.8134 H         1 UNK         0.0600 
    219 H219       -5.3946  -24.7179  -54.0073 H         1 UNK         0.0600 
    220 H220       -5.0497  -25.9420  -50.2849 H         1 UNK         0.3000 
    221 H221       -5.5853  -24.6741  -48.5460 H         1 UNK         0.0600 
    222 H222       -8.5239  -25.0548  -49.3216 H         1 UNK         0.0600 
    223 H223       -7.5802  -26.1681  -48.3317 H         1 UNK         0.0600 
    224 H224       -7.9132  -24.5441  -47.7539 H         1 UNK         0.0600 
    225 H225       -4.7527  -23.4152  -50.8491 H         1 UNK         0.3000 
    226 H226       -6.2211  -21.1345  -51.6097 H         1 UNK         0.0600 
    227 H227       -3.9993  -20.4318  -52.5768 H         1 UNK         0.0600 
    228 H228       -3.2034  -21.7068  -51.6604 H         1 UNK         0.0600 
    229 H229       -4.3558  -22.1137  -52.9284 H         1 UNK         0.0600 
    230 H230       -5.5777  -18.8837  -51.3438 H         1 UNK         0.3000 
    231 H231       -4.0992  -18.0375  -48.9772 H         1 UNK         0.0600 
    232 H232       -6.3998  -18.3658  -48.0328 H         1 UNK         0.0600 
    233 H233       -7.0777  -17.3491  -49.3000 H         1 UNK         0.0600 
    234 H234       -5.9845  -16.6598  -48.1031 H         1 UNK         0.0600 
    235 H235       -3.0003  -17.7919  -51.2162 H         1 UNK         0.3000 
    236 H236       -3.9102  -15.9687  -53.1386 H         1 UNK         0.0600 
    237 H237       -2.2301  -17.7084  -53.6021 H         1 UNK         0.0600 
    238 H238       -1.5694  -16.1325  -54.0112 H         1 UNK         0.0600 
    239 H239       -1.0733  -16.9279  -52.5264 H         1 UNK         0.0600 
    240 H240       -2.4244  -15.2479  -50.0958 H         1 UNK         0.3000 
    241 H241       -1.6523  -12.5350  -50.6404 H         1 UNK         0.0600 
    242 H242       -5.6758  -12.3759  -50.1849 H         1 UNK         0.3800 
    243 H243       -4.8921  -13.9210  -50.4037 H         1 UNK         0.3800 
    244 H244       -1.7839  -12.3176  -48.0885 H         1 UNK         0.0800 
    245 H245       -0.6324  -13.4263  -48.7311 H         1 UNK         0.0800 
    246 H246       -0.1553  -14.9513  -46.8612 H         1 UNK         0.0800 
    247 H247       -1.2190  -16.2277  -46.3395 H         1 UNK         0.0800 
@<TRIPOS>BOND
     1    1    2 1    
     2    1  127 1    
     3    1  128 1    
     4    1  129 1    
     5    2    3 2    
     6    2    4 am   BACKBONE|DICT|INTERRES
     7    4    5 1    
     8    4  130 1    
     9    5    6 1    
    10    5   65 1    
    11    5  131 1    
    12    6    7 1    
    13    6  132 1    
    14    6  133 1    
    15    7    8 1    
    16    8    9 1    
    17    8  134 1    
    18    8  135 1    
    19    9   10 ar   
    20    9   14 ar   
    21   10   11 ar   
    22   10  136 1    
    23   11   12 ar   
    24   11  126 1    
    25   12   13 ar   
    26   12  137 1    
    27   13   14 ar   
    28   13   15 1    
    29   14  138 1    
    30   15   16 1    
    31   15  139 1    
    32   15  140 1    
    33   16   17 1    
    34   17   18 1    
    35   17  141 1    
    36   17  142 1    
    37   18   19 1    
    38   18   67 1    
    39   18  143 1    
    40   19   20 am   BACKBONE|DICT|INTERRES
    41   19  144 1    
    42   20   21 2    
    43   20   22 1    
    44   22   23 1    
    45   22   24 1    
    46   22  145 1    
    47   23  146 1    
    48   23  147 1    
    49   23  148 1    
    50   24   25 am   BACKBONE|DICT|INTERRES
    51   24  149 1    
    52   25   26 2    
    53   25   27 1    
    54   27   28 1    
    55   27   29 1    
    56   27  150 1    
    57   28  151 1    
    58   28  152 1    
    59   28  153 1    
    60   29   30 am   BACKBONE|DICT|INTERRES
    61   29  154 1    
    62   30   31 2    
    63   30   32 1    
    64   32   33 1    
    65   32   34 1    
    66   32  155 1    
    67   33  156 1    
    68   33  157 1    
    69   33  158 1    
    70   34   35 am   BACKBONE|DICT|INTERRES
    71   34  159 1    
    72   35   36 2    
    73   35   37 1    
    74   37   38 1    
    75   37   39 1    
    76   37  160 1    
    77   38  161 1    
    78   38  162 1    
    79   38  163 1    
    80   39   40 am   BACKBONE|DICT|INTERRES
    81   39  164 1    
    82   40   41 2    
    83   40   42 1    
    84   42   43 1    
    85   42   44 1    
    86   42  165 1    
    87   43  166 1    
    88   43  167 1    
    89   43  168 1    
    90   44   45 am   BACKBONE|DICT|INTERRES
    91   44  169 1    
    92   45   46 2    
    93   45   47 1    
    94   47   48 1    
    95   47   49 1    
    96   47  170 1    
    97   48  171 1    
    98   48  172 1    
    99   48  173 1    
   100   49   50 am   BACKBONE|DICT|INTERRES
   101   49  174 1    
   102   50   51 2    
   103   50   52 1    
   104   52   53 1    
   105   52   54 1    
   106   52  175 1    
   107   53  176 1    
   108   53  177 1    
   109   53  178 1    
   110   54   55 am   BACKBONE|DICT|INTERRES
   111   54  179 1    
   112   55   56 2    
   113   55   57 1    
   114   57   58 1    
   115   57   59 1    
   116   57  180 1    
   117   58  181 1    
   118   58  182 1    
   119   58  183 1    
   120   59   60 am   BACKBONE|DICT|INTERRES
   121   59  184 1    
   122   60   61 2    
   123   60   62 1    
   124   62   63 1    
   125   62   64 1    
   126   62  185 1    
   127   63  186 1    
   128   63  187 1    
   129   63  188 1    
   130   64   65 am   BACKBONE|DICT|INTERRES
   131   64  189 1    
   132   65   66 2    
   133   67   68 2    
   134   67   69 am   BACKBONE|DICT|INTERRES
   135   69   70 1    
   136   69  190 1    
   137   70   71 1    
   138   70   72 1    
   139   70  191 1    
   140   71  192 1    
   141   71  193 1    
   142   71  194 1    
   143   72   73 2    
   144   72   74 am   BACKBONE|DICT|INTERRES
   145   74   75 1    
   146   74  195 1    
   147   75   76 1    
   148   75   77 1    
   149   75  196 1    
   150   76  197 1    
   151   76  198 1    
   152   76  199 1    
   153   77   78 2    
   154   77   79 am   BACKBONE|DICT|INTERRES
   155   79   80 1    
   156   79  200 1    
   157   80   81 1    
   158   80   82 1    
   159   80  201 1    
   160   81  202 1    
   161   81  203 1    
   162   81  204 1    
   163   82   83 2    
   164   82   84 am   BACKBONE|DICT|INTERRES
   165   84   85 1    
   166   84  205 1    
   167   85   86 1    
   168   85   87 1    
   169   85  206 1    
   170   86  207 1    
   171   86  208 1    
   172   86  209 1    
   173   87   88 2    
   174   87   89 am   BACKBONE|DICT|INTERRES
   175   89   90 1    
   176   89  210 1    
   177   90   91 1    
   178   90   92 1    
   179   90  211 1    
   180   91  212 1    
   181   91  213 1    
   182   91  214 1    
   183   92   93 2    
   184   92   94 am   BACKBONE|DICT|INTERRES
   185   94   95 1    
   186   94  215 1    
   187   95   96 1    
   188   95   97 1    
   189   95  216 1    
   190   96  217 1    
   191   96  218 1    
   192   96  219 1    
   193   97   98 2    
   194   97   99 am   BACKBONE|DICT|INTERRES
   195   99  100 1    
   196   99  220 1    
   197  100  101 1    
   198  100  102 1    
   199  100  221 1    
   200  101  222 1    
   201  101  223 1    
   202  101  224 1    
   203  102  103 2    
   204  102  104 am   BACKBONE|DICT|INTERRES
   205  104  105 1    
   206  104  225 1    
   207  105  106 1    
   208  105  107 1    
   209  105  226 1    
   210  106  227 1    
   211  106  228 1    
   212  106  229 1    
   213  107  108 2    
   214  107  109 am   BACKBONE|DICT|INTERRES
   215  109  110 1    
   216  109  230 1    
   217  110  111 1    
   218  110  112 1    
   219  110  231 1    
   220  111  232 1    
   221  111  233 1    
   222  111  234 1    
   223  112  113 2    
   224  112  114 am   BACKBONE|DICT|INTERRES
   225  114  115 1    
   226  114  235 1    
   227  115  116 1    
   228  115  117 1    
   229  115  236 1    
   230  116  237 1    
   231  116  238 1    
   232  116  239 1    
   233  117  118 2    
   234  117  119 am   BACKBONE|DICT|INTERRES
   235  119  120 1    
   236  119  240 1    
   237  120  121 1    
   238  120  124 1    
   239  120  241 1    
   240  121  122 am   BACKBONE|DICT|INTERRES
   241  121  123 2    
   242  122  242 1    
   243  122  243 1    
   244  124  125 1    
   245  124  244 1    
   246  124  245 1    
   247  125  126 1    
   248  126  246 1    
   249  126  247 1    
@<TRIPOS>SUBSTRUCTURE
     1 UNK         1 GROUP             0       ****    0 ROOT    
