@<TRIPOS>MOLECULE
3R540
247   249    1
SMALL
USER_CHARGES


@<TRIPOS>ATOM
      1 CA         -0.2094  -13.3907  -48.4433 C.3       0 UNK        -0.1800 
      2 C           1.2612  -13.0300  -48.5955 C.2       0 UNK         0.5000 
      3 O           1.5814  -11.9778  -49.1499 O.2       0 UNK        -0.5000 
      4 N           2.1569  -13.8900  -48.0961 N.am      1 UNK        -0.5000 
      5 CA          3.6120  -13.6992  -48.1026 C.3       1 UNK         0.1400 
      6 C6          4.3727  -14.9883  -47.7084 C.3       23 UNK        -0.0398 
      7 S7          4.2057  -16.2800  -48.9838 S.3       23 UNK        -0.2404 
      8 C8          2.8529  -17.2903  -48.3100 C.3       23 UNK        -0.0205 
      9 C9          2.1878  -18.0979  -49.4093 C.ar      23 UNK        -0.0193 
     10 C10         1.2672  -17.4846  -50.2624 C.ar      23 UNK        -0.1150 
     11 C11         0.6556  -18.2125  -51.2853 C.ar      23 UNK        -0.0193 
     12 C12         0.9466  -19.5715  -51.4305 C.ar      23 UNK        -0.1150 
     13 C13         1.8530  -20.2037  -50.5734 C.ar      23 UNK        -0.0193 
     14 C14         2.4891  -19.4512  -49.5786 C.ar      23 UNK        -0.1150 
     15 C15         2.1333  -21.6955  -50.7443 C.3       23 UNK        -0.0205 
     16 S16         2.2539  -22.6311  -49.1806 S.3       23 UNK        -0.2404 
     17 C17         0.8551  -21.9744  -48.2152 C.3       23 UNK        -0.0398 
     18 CA          0.1929  -23.0284  -47.2979 C.3       11 UNK         0.1400 
     19 N          -0.1610  -22.4382  -46.0045 N.am      11 UNK        -0.5000 
     20 C          -0.4989  -23.1304  -44.9103 C.2       10 UNK         0.5000 
     21 O          -0.5196  -24.3597  -44.8627 O.2       10 UNK        -0.5000 
     22 CA         -0.9380  -22.3058  -43.6850 C.3       10 UNK         0.1400 
     23 CB          0.2798  -21.8078  -42.8932 C.3       10 UNK        -0.1800 
     24 N          -1.7853  -21.1690  -44.0553 N.am      10 UNK        -0.5000 
     25 C          -3.0031  -21.2919  -44.6016 C.2       9 UNK         0.5000 
     26 O          -3.5583  -22.3760  -44.7753 O.2       9 UNK        -0.5000 
     27 CA         -3.6976  -20.0059  -45.0856 C.3       9 UNK         0.1400 
     28 CB         -4.4230  -19.3030  -43.9304 C.3       9 UNK        -0.1800 
     29 N          -2.7842  -19.0711  -45.7446 N.am      9 UNK        -0.5000 
     30 C          -2.1256  -19.3249  -46.8847 C.2       8 UNK         0.5000 
     31 O          -2.2523  -20.3659  -47.5250 O.2       8 UNK        -0.5000 
     32 CA         -1.1096  -18.2711  -47.3585 C.3       8 UNK         0.1400 
     33 CB         -1.8016  -17.1529  -48.1509 C.3       8 UNK        -0.1800 
     34 N          -0.3430  -17.7055  -46.2458 N.am      8 UNK        -0.5000 
     35 C           0.5206  -18.4105  -45.4991 C.2       7 UNK         0.5000 
     36 O           0.8087  -19.5869  -45.7146 O.2       7 UNK        -0.5000 
     37 CA          1.1122  -17.7026  -44.2691 C.3       7 UNK         0.1400 
     38 CB          2.3082  -16.8194  -44.6554 C.3       7 UNK        -0.1800 
     39 N           0.1034  -16.9033  -43.5742 N.am      7 UNK        -0.5000 
     40 C          -0.8992  -17.4337  -42.8564 C.2       6 UNK         0.5000 
     41 O          -1.0428  -18.6438  -42.6836 O.2       6 UNK        -0.5000 
     42 CA         -1.9373  -16.4609  -42.2623 C.3       6 UNK         0.1400 
     43 CB         -1.5046  -16.0072  -40.8605 C.3       6 UNK        -0.1800 
     44 N          -2.1705  -15.2822  -43.0966 N.am      6 UNK        -0.5000 
     45 C          -2.6506  -15.3047  -44.3485 C.2       5 UNK         0.5000 
     46 O          -3.0222  -16.3311  -44.9147 O.2       5 UNK        -0.5000 
     47 CA         -2.6566  -13.9676  -45.1166 C.3       5 UNK         0.1400 
     48 CB         -4.0379  -13.3032  -45.0335 C.3       5 UNK        -0.1800 
     49 N          -1.6350  -13.0221  -44.6518 N.am      5 UNK        -0.5000 
     50 C          -0.3155  -13.2478  -44.6860 C.2       4 UNK         0.5000 
     51 O           0.1855  -14.2694  -45.1608 O.2       4 UNK        -0.5000 
     52 CA          0.5814  -12.1558  -44.0830 C.3       4 UNK         0.1400 
     53 CB          1.7765  -12.7571  -43.3235 C.3       4 UNK        -0.1800 
     54 N           1.0552  -11.2686  -45.1419 N.am      4 UNK        -0.5000 
     55 C           0.3372  -10.2524  -45.6450 C.2       3 UNK         0.5000 
     56 O          -0.7740   -9.9439  -45.2104 O.2       3 UNK        -0.5000 
     57 CA          0.9110   -9.4659  -46.8446 C.3       3 UNK         0.1400 
     58 CB          0.7180   -7.9419  -46.6978 C.3       3 UNK        -0.1800 
     59 N           2.2956   -9.8042  -47.1887 N.am      3 UNK        -0.5000 
     60 C           3.4182   -9.5321  -46.5042 C.2       2 UNK         0.5000 
     61 O           3.4488   -8.8709  -45.4654 O.2       2 UNK        -0.5000 
     62 CA          4.7201  -10.1413  -47.0788 C.3       2 UNK         0.1400 
     63 CB          5.8501  -10.2446  -46.0325 C.3       2 UNK        -0.1800 
     64 N           4.4955  -11.4380  -47.7360 N.am      2 UNK        -0.5000 
     65 C           3.9699  -12.5326  -47.1661 C.2       1 UNK         0.5000 
     66 O           3.6945  -12.6182  -45.9698 O.2       1 UNK        -0.5000 
     67 C          -1.0131  -23.7221  -47.9752 C.2       11 UNK         0.5000 
     68 O          -0.8416  -24.7378  -48.6510 O.2       11 UNK        -0.5000 
     69 N          -2.2207  -23.1840  -47.7618 N.am      12 UNK        -0.5000 
     70 CA         -3.4917  -23.7719  -48.1781 C.3       12 UNK         0.1400 
     71 CB         -4.5972  -22.7128  -48.1008 C.3       12 UNK        -0.1800 
     72 C          -3.8558  -25.0173  -47.3567 C.2       12 UNK         0.5000 
     73 O          -4.2865  -26.0122  -47.9366 O.2       12 UNK        -0.5000 
     74 N          -3.6195  -24.9767  -46.0376 N.am      13 UNK        -0.5000 
     75 CA         -3.7732  -26.1207  -45.1322 C.3       13 UNK         0.1400 
     76 CB         -3.6066  -25.6561  -43.6778 C.3       13 UNK        -0.1800 
     77 C          -2.8030  -27.2744  -45.4604 C.2       13 UNK         0.5000 
     78 O          -3.1756  -28.4407  -45.3311 O.2       13 UNK        -0.5000 
     79 N          -1.5989  -26.9256  -45.9341 N.am      14 UNK        -0.5000 
     80 CA         -0.6027  -27.8484  -46.4833 C.3       14 UNK         0.1400 
     81 CB          0.7692  -27.1546  -46.4659 C.3       14 UNK        -0.1800 
     82 C          -0.9373  -28.3472  -47.9080 C.2       14 UNK         0.5000 
     83 O          -0.2411  -29.2320  -48.4069 O.2       14 UNK        -0.5000 
     84 N          -1.9730  -27.7710  -48.5394 N.am      15 UNK        -0.5000 
     85 CA         -2.4645  -28.0285  -49.8980 C.3       15 UNK         0.1400 
     86 CB         -3.0062  -29.4670  -50.0263 C.3       15 UNK        -0.1800 
     87 C          -1.4516  -27.6629  -51.0035 C.2       15 UNK         0.5000 
     88 O          -1.4925  -28.2435  -52.0894 O.2       15 UNK        -0.5000 
     89 N          -0.5685  -26.6995  -50.7155 N.am      16 UNK        -0.5000 
     90 CA          0.4682  -26.2215  -51.6269 C.3       16 UNK         0.1400 
     91 CB          1.7496  -25.9633  -50.8220 C.3       16 UNK        -0.1800 
     92 C           0.0311  -24.9590  -52.3899 C.2       16 UNK         0.5000 
     93 O           0.4578  -24.7735  -53.5297 O.2       16 UNK        -0.5000 
     94 N          -0.8039  -24.1171  -51.7620 N.am      17 UNK        -0.5000 
     95 CA         -1.3485  -22.8923  -52.3573 C.3       17 UNK         0.1400 
     96 CB         -1.9996  -22.0004  -51.2910 C.3       17 UNK        -0.1800 
     97 C          -2.2689  -23.1103  -53.5817 C.2       17 UNK         0.5000 
     98 O          -2.0025  -22.5044  -54.6178 O.2       17 UNK        -0.5000 
     99 N          -3.3177  -23.9490  -53.5432 N.am      18 UNK        -0.5000 
    100 CA        -3.9141  -24.6628  -52.4093 C.3       18 UNK         0.1400 
    101 CB        -4.3465  -26.0560  -52.8937 C.3       18 UNK        -0.1800 
    102 C         -5.1108  -23.9078  -51.7940 C.2       18 UNK         0.5000 
    103 O         -5.6881  -24.4022  -50.8272 O.2       18 UNK        -0.5000 
    104 N         -5.4601  -22.7356  -52.3398 N.am      19 UNK        -0.5000 
    105 CA        -6.4877  -21.8414  -51.8092 C.3       19 UNK         0.1400 
    106 CB        -7.3374  -21.3059  -52.9725 C.3       19 UNK        -0.1800 
    107 C         -5.8136  -20.6793  -51.0657 C.2       19 UNK         0.5000 
    108 O         -4.8513  -20.1091  -51.5800 O.2       19 UNK        -0.5000 
    109 N         -6.3494  -20.3209  -49.8912 N.am      20 UNK        -0.5000 
    110 CA        -5.8307  -19.2515  -49.0262 C.3       20 UNK         0.1400 
    111 CB        -6.4969  -19.3673  -47.6468 C.3       20 UNK        -0.1800 
    112 C         -6.0351  -17.8331  -49.5958 C.2       20 UNK         0.5000 
    113 O         -5.3853  -16.8917  -49.1380 O.2       20 UNK        -0.5000 
    114 N         -6.9232  -17.7099  -50.5930 N.am      21 UNK        -0.5000 
    115 CA        -7.2945  -16.4790  -51.2948 C.3       21 UNK         0.1400 
    116 CB        -8.3959  -16.8131  -52.3134 C.3       21 UNK        -0.1800 
    117 C         -6.1271  -15.7444  -51.9860 C.2       21 UNK         0.5000 
    118 O         -6.2684  -14.5602  -52.2946 O.2       21 UNK        -0.5000 
    119 N         -5.0005  -16.4367  -52.2042 N.am      22 UNK        -0.5000 
    120 CA        -3.7408  -15.8410  -52.6691 C.3       22 UNK         0.1400 
    121 C         -3.0261  -14.9248  -51.6267 C.2       22 UNK         0.5000 
    122 N         -3.4012  -14.9430  -50.3514 N.am      22 UNK        -0.7600 
    123 O         -2.1255  -14.1732  -51.9893 O.2       22 UNK        -0.5000 
    124 C124       -2.7980  -16.9114  -53.2764 C.3       23 UNK        -0.0398 
    125 S125       -2.0117  -18.0250  -52.0555 S.3       23 UNK        -0.2404 
    126 C126       -0.2774  -17.5187  -52.2637 C.3       23 UNK        -0.0205 
    127 H127       -0.7421  -12.5893  -47.9312 H         1 UNK         0.0600 
    128 H128       -0.3425  -14.3060  -47.8673 H         1 UNK         0.0600 
    129 H129       -0.6623  -13.5344  -49.4242 H         1 UNK         0.0600 
    130 H130        1.8256  -14.6938  -47.5858 H         1 UNK         0.3000 
    131 H131        3.9095  -13.4283  -49.1182 H         1 UNK         0.0600 
    132 H132        4.0404  -15.3665  -46.7403 H         1 UNK         0.0800 
    133 H133        5.4391  -14.7816  -47.6015 H         1 UNK         0.0800 
    134 H134        3.2434  -17.9465  -47.5308 H         1 UNK         0.0800 
    135 H135        2.1030  -16.6580  -47.8359 H         1 UNK         0.0800 
    136 H136        1.0472  -16.4329  -50.1425 H         1 UNK         0.1150 
    137 H137        0.4661  -20.1323  -52.2193 H         1 UNK         0.1150 
    138 H138        3.2061  -19.9236  -48.9223 H         1 UNK         0.1150 
    139 H139        1.3569  -22.1602  -51.3498 H         1 UNK         0.0800 
    140 H140        3.0653  -21.8160  -51.2974 H         1 UNK         0.0800 
    141 H141        1.2866  -21.1739  -47.6164 H         1 UNK         0.0800 
    142 H142        0.1256  -21.4811  -48.8560 H         1 UNK         0.0800 
    143 H143        0.9254  -23.8093  -47.0832 H         1 UNK         0.0600 
    144 H144       -0.1286  -21.4261  -45.9441 H         1 UNK         0.3000 
    145 H145       -1.5199  -22.9617  -43.0342 H         1 UNK         0.0600 
    146 H146       -0.0274  -21.2810  -41.9896 H         1 UNK         0.0600 
    147 H147        0.9124  -22.6412  -42.5855 H         1 UNK         0.0600 
    148 H148        0.8955  -21.1278  -43.4822 H         1 UNK         0.0600 
    149 H149       -1.4147  -20.2413  -43.8774 H         1 UNK         0.3000 
    150 H150       -4.4462  -20.3005  -45.8209 H         1 UNK         0.0600 
    151 H151       -5.1658  -19.9623  -43.4798 H         1 UNK         0.0600 
    152 H152       -4.9457  -18.4109  -44.2761 H         1 UNK         0.0600 
    153 H153       -3.7312  -19.0044  -43.1438 H         1 UNK         0.0600 
    154 H154       -2.6817  -18.1540  -45.3183 H         1 UNK         0.3000 
    155 H155       -0.4097  -18.7729  -48.0303 H         1 UNK         0.0600 
    156 H156       -2.4805  -16.5689  -47.5298 H         1 UNK         0.0600 
    157 H157       -2.3884  -17.5667  -48.9723 H         1 UNK         0.0600 
    158 H158       -1.0735  -16.4729  -48.5910 H         1 UNK         0.0600 
    159 H159       -0.5545  -16.7556  -45.9756 H         1 UNK         0.3000 
    160 H160        1.4728  -18.4711  -43.5817 H         1 UNK         0.0600 
    161 H161        2.0357  -16.0605  -45.3877 H         1 UNK         0.0600 
    162 H162        3.1093  -17.4198  -45.0875 H         1 UNK         0.0600 
    163 H163        2.7198  -16.3090  -43.7846 H         1 UNK         0.0600 
    164 H164        0.1292  -15.9040  -43.7332 H         1 UNK         0.3000 
    165 H165       -2.8835  -16.9970  -42.1711 H         1 UNK         0.0600 
    166 H166       -0.5745  -15.4380  -40.8901 H         1 UNK         0.0600 
    167 H167       -2.2670  -15.3825  -40.3947 H         1 UNK         0.0600 
    168 H168       -1.3442  -16.8645  -40.2053 H         1 UNK         0.0600 
    169 H169       -1.8974  -14.3918  -42.7088 H         1 UNK         0.3000 
    170 H170       -2.4483  -14.1943  -46.1643 H         1 UNK         0.0600 
    171 H171       -4.8163  -13.9745  -45.3990 H         1 UNK         0.0600 
    172 H172       -4.2929  -13.0307  -44.0086 H         1 UNK         0.0600 
    173 H173       -4.0781  -12.3996  -45.6422 H         1 UNK         0.0600 
    174 H174       -1.9663  -12.1367  -44.2938 H         1 UNK         0.3000 
    175 H175       -0.0005  -11.5784  -43.3612 H         1 UNK         0.0600 
    176 H176        1.4354  -13.3325  -42.4622 H         1 UNK         0.0600 
    177 H177        2.3655  -13.4310  -43.9453 H         1 UNK         0.0600 
    178 H178        2.4420  -11.9776  -42.9524 H         1 UNK         0.0600 
    179 H179        1.9536  -11.5025  -45.5494 H         1 UNK         0.3000 
    180 H180        0.3184   -9.7808  -47.7046 H         1 UNK         0.0600 
    181 H181        1.1277   -7.4070  -47.5547 H         1 UNK         0.0600 
    182 H182       -0.3405   -7.6871  -46.6352 H         1 UNK         0.0600 
    183 H183        1.1962   -7.5546  -45.7980 H         1 UNK         0.0600 
    184 H184        2.3811  -10.3957  -48.0089 H         1 UNK         0.3000 
    185 H185        5.0553   -9.4553  -47.8581 H         1 UNK         0.0600 
    186 H186        6.7512  -10.6774  -46.4669 H         1 UNK         0.0600 
    187 H187        6.1178   -9.2597  -45.6482 H         1 UNK         0.0600 
    188 H188        5.5600  -10.8590  -45.1796 H         1 UNK         0.0600 
    189 H189        4.6611  -11.4499  -48.7335 H         1 UNK         0.3000 
    190 H190       -2.2709  -22.2827  -47.2963 H         1 UNK         0.3000 
    191 H191       -3.3937  -24.0881  -49.2167 H         1 UNK         0.0600 
    192 H192       -5.5414  -23.1000  -48.4838 H         1 UNK         0.0600 
    193 H193       -4.3319  -21.8401  -48.6950 H         1 UNK         0.0600 
    194 H194       -4.7741  -22.3808  -47.0795 H         1 UNK         0.0600 
    195 H195       -3.3311  -24.0966  -45.6189 H         1 UNK         0.3000 
    196 H196       -4.7896  -26.5017  -45.2507 H         1 UNK         0.0600 
    197 H197       -3.7733  -26.4810  -42.9842 H         1 UNK         0.0600 
    198 H198       -4.3225  -24.8721  -43.4299 H         1 UNK         0.0600 
    199 H199       -2.6066  -25.2671  -43.4887 H         1 UNK         0.0600 
    200 H200       -1.3464  -25.9434  -45.9194 H         1 UNK         0.3000 
    201 H201       -0.5493  -28.7251  -45.8349 H         1 UNK         0.0600 
    202 H202        0.7915  -26.2904  -47.1294 H         1 UNK         0.0600 
    203 H203        1.5569  -27.8354  -46.7907 H         1 UNK         0.0600 
    204 H204        1.0279  -26.8140  -45.4631 H         1 UNK         0.0600 
    205 H205       -2.4943  -27.0639  -48.0356 H         1 UNK         0.3000 
    206 H206       -3.3082  -27.3532  -50.0429 H         1 UNK         0.0600 
    207 H207       -3.7258  -29.6878  -49.2378 H         1 UNK         0.0600 
    208 H208       -3.5179  -29.6090  -50.9789 H         1 UNK         0.0600 
    209 H209       -2.2083  -30.2079  -49.9710 H         1 UNK         0.0600 
    210 H210       -0.6241  -26.2368  -49.8119 H         1 UNK         0.3000 
    211 H211        0.6956  -26.9883  -52.3705 H         1 UNK         0.0600 
    212 H212        1.5645  -25.2977  -49.9804 H         1 UNK         0.0600 
    213 H213        2.5249  -25.5105  -51.4415 H         1 UNK         0.0600 
    214 H214        2.1525  -26.8939  -50.4220 H         1 UNK         0.0600 
    215 H215       -1.0653  -24.3287  -50.8084 H         1 UNK         0.3000 
    216 H216       -0.4922  -22.3321  -52.7365 H         1 UNK         0.0600 
    217 H217       -2.3963  -21.0905  -51.7413 H         1 UNK         0.0600 
    218 H218       -1.2753  -21.6872  -50.5439 H         1 UNK         0.0600 
    219 H219       -2.8190  -22.4913  -50.7735 H         1 UNK         0.0600 
    220 H220       -3.8300  -24.0612  -54.4058 H         1 UNK         0.3000 
    221 H221       -3.1964  -24.8098  -51.6067 H         1 UNK         0.0600 
    222 H222       -4.7554  -26.6501  -52.0753 H         1 UNK         0.0600 
    223 H223       -3.5013  -26.6099  -53.3028 H         1 UNK         0.0600 
    224 H224       -5.1120  -25.9940  -53.6682 H         1 UNK         0.0600 
    225 H225       -4.8988  -22.3647  -53.0931 H         1 UNK         0.3000 
    226 H226       -7.1464  -22.3759  -51.1214 H         1 UNK         0.0600 
    227 H227       -7.8242  -22.1199  -53.5100 H         1 UNK         0.0600 
    228 H228       -8.1224  -20.6406  -52.6107 H         1 UNK         0.0600 
    229 H229       -6.7356  -20.7450  -53.6891 H         1 UNK         0.0600 
    230 H230       -7.1524  -20.8250  -49.5430 H         1 UNK         0.3000 
    231 H231       -4.7555  -19.4013  -48.9041 H         1 UNK         0.0600 
    232 H232       -6.0687  -18.6490  -46.9460 H         1 UNK         0.0600 
    233 H233       -6.3597  -20.3607  -47.2209 H         1 UNK         0.0600 
    234 H234       -7.5689  -19.1741  -47.7011 H         1 UNK         0.0600 
    235 H235       -7.3946  -18.5490  -50.8946 H         1 UNK         0.3000 
    236 H236       -7.7082  -15.7936  -50.5527 H         1 UNK         0.0600 
    237 H237       -8.0462  -17.5242  -53.0631 H         1 UNK         0.0600 
    238 H238       -9.2706  -17.2422  -51.8243 H         1 UNK         0.0600 
    239 H239       -8.7283  -15.9176  -52.8402 H         1 UNK         0.0600 
    240 H240       -4.9555  -17.4038  -51.9134 H         1 UNK         0.3000 
    241 H241       -4.0068  -15.1748  -53.4922 H         1 UNK         0.0600 
    242 H242       -4.1222  -15.5793  -50.0283 H         1 UNK         0.3800 
    243 H243       -2.9440  -14.3327  -49.6963 H         1 UNK         0.3800 
    244 H244       -3.3511  -17.5292  -53.9852 H         1 UNK         0.0800 
    245 H245       -2.0274  -16.4186  -53.8711 H         1 UNK         0.0800 
    246 H246       -0.2065  -16.4356  -52.1497 H         1 UNK         0.0800 
    247 H247        0.0431  -17.7437  -53.2819 H         1 UNK         0.0800 
@<TRIPOS>BOND
     1    1    2 1    
     2    1  127 1    
     3    1  128 1    
     4    1  129 1    
     5    2    3 2    
     6    2    4 am   BACKBONE|DICT|INTERRES
     7    4    5 1    
     8    4  130 1    
     9    5    6 1    
    10    5   65 1    
    11    5  131 1    
    12    6    7 1    
    13    6  132 1    
    14    6  133 1    
    15    7    8 1    
    16    8    9 1    
    17    8  134 1    
    18    8  135 1    
    19    9   10 ar   
    20    9   14 ar   
    21   10   11 ar   
    22   10  136 1    
    23   11   12 ar   
    24   11  126 1    
    25   12   13 ar   
    26   12  137 1    
    27   13   14 ar   
    28   13   15 1    
    29   14  138 1    
    30   15   16 1    
    31   15  139 1    
    32   15  140 1    
    33   16   17 1    
    34   17   18 1    
    35   17  141 1    
    36   17  142 1    
    37   18   19 1    
    38   18   67 1    
    39   18  143 1    
    40   19   20 am   BACKBONE|DICT|INTERRES
    41   19  144 1    
    42   20   21 2    
    43   20   22 1    
    44   22   23 1    
    45   22   24 1    
    46   22  145 1    
    47   23  146 1    
    48   23  147 1    
    49   23  148 1    
    50   24   25 am   BACKBONE|DICT|INTERRES
    51   24  149 1    
    52   25   26 2    
    53   25   27 1    
    54   27   28 1    
    55   27   29 1    
    56   27  150 1    
    57   28  151 1    
    58   28  152 1    
    59   28  153 1    
    60   29   30 am   BACKBONE|DICT|INTERRES
    61   29  154 1    
    62   30   31 2    
    63   30   32 1    
    64   32   33 1    
    65   32   34 1    
    66   32  155 1    
    67   33  156 1    
    68   33  157 1    
    69   33  158 1    
    70   34   35 am   BACKBONE|DICT|INTERRES
    71   34  159 1    
    72   35   36 2    
    73   35   37 1    
    74   37   38 1    
    75   37   39 1    
    76   37  160 1    
    77   38  161 1    
    78   38  162 1    
    79   38  163 1    
    80   39   40 am   BACKBONE|DICT|INTERRES
    81   39  164 1    
    82   40   41 2    
    83   40   42 1    
    84   42   43 1    
    85   42   44 1    
    86   42  165 1    
    87   43  166 1    
    88   43  167 1    
    89   43  168 1    
    90   44   45 am   BACKBONE|DICT|INTERRES
    91   44  169 1    
    92   45   46 2    
    93   45   47 1    
    94   47   48 1    
    95   47   49 1    
    96   47  170 1    
    97   48  171 1    
    98   48  172 1    
    99   48  173 1    
   100   49   50 am   BACKBONE|DICT|INTERRES
   101   49  174 1    
   102   50   51 2    
   103   50   52 1    
   104   52   53 1    
   105   52   54 1    
   106   52  175 1    
   107   53  176 1    
   108   53  177 1    
   109   53  178 1    
   110   54   55 am   BACKBONE|DICT|INTERRES
   111   54  179 1    
   112   55   56 2    
   113   55   57 1    
   114   57   58 1    
   115   57   59 1    
   116   57  180 1    
   117   58  181 1    
   118   58  182 1    
   119   58  183 1    
   120   59   60 am   BACKBONE|DICT|INTERRES
   121   59  184 1    
   122   60   61 2    
   123   60   62 1    
   124   62   63 1    
   125   62   64 1    
   126   62  185 1    
   127   63  186 1    
   128   63  187 1    
   129   63  188 1    
   130   64   65 am   BACKBONE|DICT|INTERRES
   131   64  189 1    
   132   65   66 2    
   133   67   68 2    
   134   67   69 am   BACKBONE|DICT|INTERRES
   135   69   70 1    
   136   69  190 1    
   137   70   71 1    
   138   70   72 1    
   139   70  191 1    
   140   71  192 1    
   141   71  193 1    
   142   71  194 1    
   143   72   73 2    
   144   72   74 am   BACKBONE|DICT|INTERRES
   145   74   75 1    
   146   74  195 1    
   147   75   76 1    
   148   75   77 1    
   149   75  196 1    
   150   76  197 1    
   151   76  198 1    
   152   76  199 1    
   153   77   78 2    
   154   77   79 am   BACKBONE|DICT|INTERRES
   155   79   80 1    
   156   79  200 1    
   157   80   81 1    
   158   80   82 1    
   159   80  201 1    
   160   81  202 1    
   161   81  203 1    
   162   81  204 1    
   163   82   83 2    
   164   82   84 am   BACKBONE|DICT|INTERRES
   165   84   85 1    
   166   84  205 1    
   167   85   86 1    
   168   85   87 1    
   169   85  206 1    
   170   86  207 1    
   171   86  208 1    
   172   86  209 1    
   173   87   88 2    
   174   87   89 am   BACKBONE|DICT|INTERRES
   175   89   90 1    
   176   89  210 1    
   177   90   91 1    
   178   90   92 1    
   179   90  211 1    
   180   91  212 1    
   181   91  213 1    
   182   91  214 1    
   183   92   93 2    
   184   92   94 am   BACKBONE|DICT|INTERRES
   185   94   95 1    
   186   94  215 1    
   187   95   96 1    
   188   95   97 1    
   189   95  216 1    
   190   96  217 1    
   191   96  218 1    
   192   96  219 1    
   193   97   98 2    
   194   97   99 am   BACKBONE|DICT|INTERRES
   195   99  100 1    
   196   99  220 1    
   197  100  101 1    
   198  100  102 1    
   199  100  221 1    
   200  101  222 1    
   201  101  223 1    
   202  101  224 1    
   203  102  103 2    
   204  102  104 am   BACKBONE|DICT|INTERRES
   205  104  105 1    
   206  104  225 1    
   207  105  106 1    
   208  105  107 1    
   209  105  226 1    
   210  106  227 1    
   211  106  228 1    
   212  106  229 1    
   213  107  108 2    
   214  107  109 am   BACKBONE|DICT|INTERRES
   215  109  110 1    
   216  109  230 1    
   217  110  111 1    
   218  110  112 1    
   219  110  231 1    
   220  111  232 1    
   221  111  233 1    
   222  111  234 1    
   223  112  113 2    
   224  112  114 am   BACKBONE|DICT|INTERRES
   225  114  115 1    
   226  114  235 1    
   227  115  116 1    
   228  115  117 1    
   229  115  236 1    
   230  116  237 1    
   231  116  238 1    
   232  116  239 1    
   233  117  118 2    
   234  117  119 am   BACKBONE|DICT|INTERRES
   235  119  120 1    
   236  119  240 1    
   237  120  121 1    
   238  120  124 1    
   239  120  241 1    
   240  121  122 am   BACKBONE|DICT|INTERRES
   241  121  123 2    
   242  122  242 1    
   243  122  243 1    
   244  124  125 1    
   245  124  244 1    
   246  124  245 1    
   247  125  126 1    
   248  126  246 1    
   249  126  247 1    
@<TRIPOS>SUBSTRUCTURE
     1 UNK         1 GROUP             0       ****    0 ROOT    
