@<TRIPOS>MOLECULE
3R540
247   249    1
SMALL
USER_CHARGES


@<TRIPOS>ATOM
      1 CA          4.7911  -15.0882  -45.8038 C.3       0 UNK        -0.1800 
      2 C           3.5249  -15.4872  -46.5454 C.2       0 UNK         0.5000 
      3 O           2.4581  -15.5825  -45.9364 O.2       0 UNK        -0.5000 
      4 N           3.6413  -15.7422  -47.8547 N.am      1 UNK        -0.5000 
      5 CA          2.5116  -16.0356  -48.7361 C.3       1 UNK         0.1400 
      6 C6          2.9526  -16.8228  -49.9933 C.3       23 UNK        -0.0398 
      7 S7          1.5993  -17.4056  -51.0794 S.3       23 UNK        -0.2404 
      8 C8          0.6617  -18.5615  -50.0225 C.3       23 UNK        -0.0205 
      9 C9         -0.5233  -17.8773  -49.3557 C.ar      23 UNK        -0.0193 
     10 C10        -1.5642  -17.3644  -50.1355 C.ar      23 UNK        -0.1150 
     11 C11        -2.6214  -16.6706  -49.5428 C.ar      23 UNK        -0.0193 
     12 C12        -2.6441  -16.5051  -48.1557 C.ar      23 UNK        -0.1150 
     13 C13        -1.6108  -17.0126  -47.3644 C.ar      23 UNK        -0.0193 
     14 C14        -0.5649  -17.7173  -47.9676 C.ar      23 UNK        -0.1150 
     15 C15        -1.5921  -16.7330  -45.8706 C.3       23 UNK        -0.0205 
     16 S16        -2.3597  -18.0712  -44.9067 S.3       23 UNK        -0.2404 
     17 C17        -1.0264  -19.3142  -44.8661 C.3       23 UNK        -0.0398 
     18 CA         -1.3801  -20.5769  -45.6922 C.3       11 UNK         0.1400 
     19 N          -0.1916  -21.1988  -46.2816 N.am      11 UNK        -0.5000 
     20 C          -0.2245  -22.1542  -47.2233 C.2       10 UNK         0.5000 
     21 O          -1.2647  -22.5798  -47.7221 O.2       10 UNK        -0.5000 
     22 CA          1.1175  -22.7746  -47.6586 C.3       10 UNK         0.1400 
     23 CB          1.6895  -22.0215  -48.8673 C.3       10 UNK        -0.1800 
     24 N           2.1187  -22.8016  -46.5939 N.am      10 UNK        -0.5000 
     25 C           1.9825  -23.4223  -45.4132 C.2       9 UNK         0.5000 
     26 O           1.0257  -24.1410  -45.1273 O.2       9 UNK        -0.5000 
     27 CA          3.0609  -23.1253  -44.3520 C.3       9 UNK         0.1400 
     28 CB          4.1347  -24.2227  -44.3541 C.3       9 UNK        -0.1800 
     29 N           3.7031  -21.8163  -44.5307 N.am      9 UNK        -0.5000 
     30 C           3.0673  -20.6378  -44.4682 C.2       8 UNK         0.5000 
     31 O           1.8620  -20.5214  -44.2363 O.2       8 UNK        -0.5000 
     32 CA          3.8911  -19.3939  -44.8333 C.3       8 UNK         0.1400 
     33 CB          3.6219  -19.0020  -46.2946 C.3       8 UNK        -0.1800 
     34 N           3.5757  -18.2697  -43.9519 N.am      8 UNK        -0.5000 
     35 C           4.0381  -18.1629  -42.6986 C.2       7 UNK         0.5000 
     36 O           4.8321  -18.9611  -42.1981 O.2       7 UNK        -0.5000 
     37 CA          3.5473  -16.9723  -41.8539 C.3       7 UNK         0.1400 
     38 CB          4.5358  -15.7986  -41.9250 C.3       7 UNK        -0.1800 
     39 N           2.2133  -16.4901  -42.2103 N.am      7 UNK        -0.5000 
     40 C           1.0722  -17.1311  -41.9224 C.2       6 UNK         0.5000 
     41 O           1.0278  -18.2622  -41.4363 O.2       6 UNK        -0.5000 
     42 CA         -0.2269  -16.3374  -42.1806 C.3       6 UNK         0.1400 
     43 CB         -1.4730  -16.9879  -41.5436 C.3       6 UNK        -0.1800 
     44 N          -0.1194  -14.9275  -41.7830 N.am      6 UNK        -0.5000 
     45 C           0.1544  -14.4528  -40.5543 C.2       5 UNK         0.5000 
     46 O           0.3395  -15.1656  -39.5673 O.2       5 UNK        -0.5000 
     47 CA          0.2617  -12.9224  -40.3887 C.3       5 UNK         0.1400 
     48 CB          1.7379  -12.5033  -40.2964 C.3       5 UNK        -0.1800 
     49 N          -0.3686  -12.1680  -41.4713 N.am      5 UNK        -0.5000 
     50 C          -1.6872  -12.0831  -41.6957 C.2       4 UNK         0.5000 
     51 O          -2.5404  -12.5646  -40.9499 O.2       4 UNK        -0.5000 
     52 CA         -2.1239  -11.3571  -42.9855 C.3       4 UNK         0.1400 
     53 CB         -2.6087   -9.9350  -42.6645 C.3       4 UNK        -0.1800 
     54 N          -1.0743  -11.2827  -44.0099 N.am      4 UNK        -0.5000 
     55 C          -0.5452  -12.3367  -44.6447 C.2       3 UNK         0.5000 
     56 O          -0.8658  -13.5067  -44.4188 O.2       3 UNK        -0.5000 
     57 CA          0.5801  -12.0375  -45.6451 C.3       3 UNK         0.1400 
     58 CB          1.9479  -12.3151  -45.0014 C.3       3 UNK        -0.1800 
     59 N           0.4226  -12.8781  -46.8275 N.am      3 UNK        -0.5000 
     60 C          -0.3233  -12.5536  -47.8934 C.2       2 UNK         0.5000 
     61 O          -0.8935  -11.4675  -48.0099 O.2       2 UNK        -0.5000 
     62 CA         -0.4944  -13.6193  -48.9993 C.3       2 UNK         0.1400 
     63 CB         -0.4968  -13.0195  -50.4204 C.3       2 UNK        -0.1800 
     64 N           0.4420  -14.7441  -48.8975 N.am      2 UNK        -0.5000 
     65 C           1.7722  -14.7213  -49.0561 C.2       1 UNK         0.5000 
     66 O           2.4183  -13.7255  -49.3902 O.2       1 UNK        -0.5000 
     67 C          -2.1746  -21.5967  -44.8507 C.2       11 UNK         0.5000 
     68 O          -3.3872  -21.7267  -45.0244 O.2       11 UNK        -0.5000 
     69 N          -1.4565  -22.3466  -43.9998 N.am      12 UNK        -0.5000 
     70 CA         -1.9963  -23.4285  -43.1711 C.3       12 UNK         0.1400 
     71 CB         -0.9276  -23.8795  -42.1641 C.3       12 UNK        -0.1800 
     72 C          -2.5066  -24.6213  -44.0029 C.2       12 UNK         0.5000 
     73 O          -3.4722  -25.2729  -43.6058 O.2       12 UNK        -0.5000 
     74 N          -1.8869  -24.8450  -45.1689 N.am      13 UNK        -0.5000 
     75 CA         -2.2910  -25.8164  -46.1864 C.3       13 UNK         0.1400 
     76 CB         -1.0575  -26.1978  -47.0219 C.3       13 UNK        -0.1800 
     77 C          -3.4505  -25.3283  -47.0860 C.2       13 UNK         0.5000 
     78 O          -3.6694  -25.9182  -48.1443 O.2       13 UNK        -0.5000 
     79 N          -4.1671  -24.2713  -46.6730 N.am      14 UNK        -0.5000 
     80 CA         -5.3349  -23.6757  -47.3291 C.3       14 UNK         0.1400 
     81 CB         -6.5220  -24.6620  -47.3390 C.3       14 UNK        -0.1800 
     82 C          -4.9940  -23.1270  -48.7260 C.2       14 UNK         0.5000 
     83 O          -5.5640  -23.5655  -49.7276 O.2       14 UNK        -0.5000 
     84 N          -4.0295  -22.1967  -48.7569 N.am      15 UNK        -0.5000 
     85 CA         -3.4769  -21.5454  -49.9500 C.3       15 UNK         0.1400 
     86 CB         -4.5610  -20.6956  -50.6440 C.3       15 UNK        -0.1800 
     87 C          -2.8008  -22.5620  -50.8924 C.2       15 UNK         0.5000 
     88 O          -2.9914  -22.5052  -52.1079 O.2       15 UNK        -0.5000 
     89 N          -2.0552  -23.5013  -50.2913 N.am      16 UNK        -0.5000 
     90 CA         -1.4144  -24.6659  -50.9100 C.3       16 UNK         0.1400 
     91 CB         -0.2237  -24.2198  -51.7840 C.3       16 UNK        -0.1800 
     92 C          -2.4273  -25.5498  -51.6690 C.2       16 UNK         0.5000 
     93 O          -2.2107  -25.8749  -52.8357 O.2       16 UNK        -0.5000 
     94 N          -3.5431  -25.8767  -51.0004 N.am      17 UNK        -0.5000 
     95 CA         -4.7301  -26.5519  -51.5368 C.3       17 UNK         0.1400 
     96 CB         -4.4174  -28.0245  -51.8743 C.3       17 UNK        -0.1800 
     97 C          -5.3631  -25.7742  -52.7124 C.2       17 UNK         0.5000 
     98 O          -5.6900  -26.3599  -53.7464 O.2       17 UNK        -0.5000 
     99 N          -5.4975  -24.4538  -52.5223 N.am      18 UNK        -0.5000 
    100 CA        -6.0041  -23.4527  -53.4671 C.3       18 UNK         0.1400 
    101 CB        -7.5046  -23.6792  -53.7454 C.3       18 UNK        -0.1800 
    102 C         -5.1694  -23.3021  -54.7602 C.2       18 UNK         0.5000 
    103 O         -5.7016  -22.8468  -55.7744 O.2       18 UNK        -0.5000 
    104 N         -3.8803  -23.6654  -54.7120 N.am      19 UNK        -0.5000 
    105 CA        -2.9330  -23.4840  -55.8132 C.3       19 UNK         0.1400 
    106 CB        -1.8255  -24.5432  -55.7216 C.3       19 UNK        -0.1800 
    107 C         -2.3195  -22.0721  -55.8333 C.2       19 UNK         0.5000 
    108 O         -1.9279  -21.6058  -56.9049 O.2       19 UNK        -0.5000 
    109 N         -2.2334  -21.4184  -54.6655 N.am      20 UNK        -0.5000 
    110 CA        -1.7599  -20.0414  -54.5217 C.3       20 UNK         0.1400 
    111 CB        -1.2913  -19.8167  -53.0749 C.3       20 UNK        -0.1800 
    112 C         -2.8363  -19.0184  -54.9415 C.2       20 UNK         0.5000 
    113 O         -3.9757  -19.3924  -55.2303 O.2       20 UNK        -0.5000 
    114 N         -2.4458  -17.7365  -54.9681 N.am      21 UNK        -0.5000 
    115 CA        -3.1964  -16.6021  -55.5233 C.3       21 UNK         0.1400 
    116 CB        -2.3926  -15.3151  -55.2784 C.3       21 UNK        -0.1800 
    117 C         -4.6451  -16.4231  -55.0233 C.2       21 UNK         0.5000 
    118 O         -5.4877  -15.9554  -55.7907 O.2       21 UNK        -0.5000 
    119 N         -4.9086  -16.7941  -53.7653 N.am      22 UNK        -0.5000 
    120 CA        -6.2450  -16.7764  -53.1475 C.3       22 UNK         0.1400 
    121 C         -7.0302  -18.1175  -53.2708 C.2       22 UNK         0.5000 
    122 N         -6.5071  -19.1509  -53.9200 N.am      22 UNK        -0.7600 
    123 O         -8.1566  -18.2160  -52.7912 O.2       22 UNK        -0.5000 
    124 C124       -6.1993  -16.2334  -51.6953 C.3       23 UNK        -0.0398 
    125 S125       -5.1196  -17.1876  -50.5758 S.3       23 UNK        -0.2404 
    126 C126       -3.7113  -16.0570  -50.4038 C.3       23 UNK        -0.0205 
    127 H127        5.1360  -15.9152  -45.1837 H         1 UNK         0.0600 
    128 H128        4.5964  -14.2295  -45.1615 H         1 UNK         0.0600 
    129 H129        5.5932  -14.8204  -46.4917 H         1 UNK         0.0600 
    130 H130        4.5344  -15.6142  -48.3086 H         1 UNK         0.3000 
    131 H131        1.8443  -16.6819  -48.1716 H         1 UNK         0.0600 
    132 H132        3.5303  -17.6978  -49.6916 H         1 UNK         0.0800 
    133 H133        3.6286  -16.2155  -50.5975 H         1 UNK         0.0800 
    134 H134        1.3291  -18.9987  -49.2807 H         1 UNK         0.0800 
    135 H135        0.2959  -19.3877  -50.6326 H         1 UNK         0.0800 
    136 H136       -1.5335  -17.4748  -51.2095 H         1 UNK         0.1150 
    137 H137       -3.4535  -15.9555  -47.6956 H         1 UNK         0.1150 
    138 H138        0.2381  -18.1073  -47.3598 H         1 UNK         0.1150 
    139 H139       -0.5675  -16.5589  -45.5394 H         1 UNK         0.0800 
    140 H140       -2.1288  -15.8060  -45.6618 H         1 UNK         0.0800 
    141 H141       -0.8007  -19.5575  -43.8258 H         1 UNK         0.0800 
    142 H142       -0.1126  -18.8564  -45.2428 H         1 UNK         0.0800 
    143 H143       -2.0141  -20.2750  -46.5295 H         1 UNK         0.0600 
    144 H144        0.6944  -20.9539  -45.8552 H         1 UNK         0.3000 
    145 H145        0.9229  -23.8035  -47.9628 H         1 UNK         0.0600 
    146 H146        2.0698  -21.0414  -48.5823 H         1 UNK         0.0600 
    147 H147        2.5101  -22.5767  -49.3219 H         1 UNK         0.0600 
    148 H148        0.9320  -21.8718  -49.6381 H         1 UNK         0.0600 
    149 H149        2.9504  -22.2507  -46.7427 H         1 UNK         0.3000 
    150 H150        2.5685  -23.1268  -43.3773 H         1 UNK         0.0600 
    151 H151        3.6879  -25.2060  -44.1997 H         1 UNK         0.0600 
    152 H152        4.8591  -24.0678  -43.5543 H         1 UNK         0.0600 
    153 H153        4.6779  -24.2537  -45.2995 H         1 UNK         0.0600 
    154 H154        4.6920  -21.8292  -44.7364 H         1 UNK         0.3000 
    155 H155        4.9525  -19.6334  -44.7373 H         1 UNK         0.0600 
    156 H156        3.7416  -19.8554  -46.9630 H         1 UNK         0.0600 
    157 H157        4.3291  -18.2441  -46.6271 H         1 UNK         0.0600 
    158 H158        2.6120  -18.6142  -46.4330 H         1 UNK         0.0600 
    159 H159        2.9013  -17.5949  -44.2837 H         1 UNK         0.3000 
    160 H160        3.5131  -17.3123  -40.8164 H         1 UNK         0.0600 
    161 H161        4.2682  -15.0171  -41.2134 H         1 UNK         0.0600 
    162 H162        4.5598  -15.3507  -42.9173 H         1 UNK         0.0600 
    163 H163        5.5493  -16.1223  -41.6840 H         1 UNK         0.0600 
    164 H164        2.1576  -15.5676  -42.6158 H         1 UNK         0.3000 
    165 H165       -0.3699  -16.3362  -43.2595 H         1 UNK         0.0600 
    166 H166       -1.3965  -17.0381  -40.4573 H         1 UNK         0.0600 
    167 H167       -2.3759  -16.4301  -41.7919 H         1 UNK         0.0600 
    168 H168       -1.6132  -18.0067  -41.9057 H         1 UNK         0.0600 
    169 H169       -0.2796  -14.2605  -42.5298 H         1 UNK         0.3000 
    170 H170       -0.2326  -12.6565  -39.4521 H         1 UNK         0.0600 
    171 H171        2.2809  -12.7352  -41.2137 H         1 UNK         0.0600 
    172 H172        1.8340  -11.4335  -40.1095 H         1 UNK         0.0600 
    173 H173        2.2415  -13.0203  -39.4784 H         1 UNK         0.0600 
    174 H174        0.2514  -11.7211  -42.1297 H         1 UNK         0.3000 
    175 H175       -2.9613  -11.9186  -43.4050 H         1 UNK         0.0600 
    176 H176       -1.8056   -9.3179  -42.2596 H         1 UNK         0.0600 
    177 H177       -2.9981   -9.4400  -43.5544 H         1 UNK         0.0600 
    178 H178       -3.4125   -9.9526  -41.9272 H         1 UNK         0.0600 
    179 H179       -0.7469  -10.3561  -44.2439 H         1 UNK         0.3000 
    180 H180        0.5446  -10.9850  -45.9348 H         1 UNK         0.0600 
    181 H181        2.0109  -13.3284  -44.6037 H         1 UNK         0.0600 
    182 H182        2.1355  -11.6294  -44.1744 H         1 UNK         0.0600 
    183 H183        2.7571  -12.1861  -45.7205 H         1 UNK         0.0600 
    184 H184        0.8190  -13.8059  -46.7706 H         1 UNK         0.3000 
    185 H185       -1.4848  -14.0420  -48.8339 H         1 UNK         0.0600 
    186 H186       -1.3123  -12.3059  -50.5423 H         1 UNK         0.0600 
    187 H187        0.4312  -12.4925  -50.6422 H         1 UNK         0.0600 
    188 H188       -0.6324  -13.7957  -51.1739 H         1 UNK         0.0600 
    189 H189        0.0106  -15.6236  -48.6432 H         1 UNK         0.3000 
    190 H190       -0.4584  -22.1987  -43.9508 H         1 UNK         0.3000 
    191 H191       -2.8451  -23.0295  -42.6118 H         1 UNK         0.0600 
    192 H192       -0.0478  -24.2876  -42.6622 H         1 UNK         0.0600 
    193 H193       -0.6029  -23.0505  -41.5350 H         1 UNK         0.0600 
    194 H194       -1.3181  -24.6546  -41.5036 H         1 UNK         0.0600 
    195 H195       -1.0586  -24.2988  -45.3755 H         1 UNK         0.3000 
    196 H196       -2.6418  -26.7182  -45.6812 H         1 UNK         0.0600 
    197 H197       -0.2305  -26.5169  -46.3870 H         1 UNK         0.0600 
    198 H198       -0.7140  -25.3603  -47.6259 H         1 UNK         0.0600 
    199 H199       -1.2802  -27.0216  -47.7010 H         1 UNK         0.0600 
    200 H200       -3.8729  -23.8094  -45.8223 H         1 UNK         0.3000 
    201 H201       -5.6269  -22.8181  -46.7211 H         1 UNK         0.0600 
    202 H202       -7.4180  -24.1860  -47.7388 H         1 UNK         0.0600 
    203 H203       -6.7578  -25.0041  -46.3313 H         1 UNK         0.0600 
    204 H204       -6.3202  -25.5406  -47.9525 H         1 UNK         0.0600 
    205 H205       -3.5557  -21.9812  -47.8895 H         1 UNK         0.3000 
    206 H206       -2.6922  -20.8698  -49.6057 H         1 UNK         0.0600 
    207 H207       -5.0266  -20.0145  -49.9332 H         1 UNK         0.0600 
    208 H208       -5.3522  -21.3081  -51.0725 H         1 UNK         0.0600 
    209 H209       -4.1477  -20.0923  -51.4506 H         1 UNK         0.0600 
    210 H210       -1.9399  -23.4120  -49.2853 H         1 UNK         0.3000 
    211 H211       -1.0206  -25.2780  -50.0980 H         1 UNK         0.0600 
    212 H212        0.5083  -23.6660  -51.1979 H         1 UNK         0.0600 
    213 H213        0.2917  -25.0797  -52.2131 H         1 UNK         0.0600 
    214 H214       -0.5413  -23.5822  -52.6093 H         1 UNK         0.0600 
    215 H215       -3.6149  -25.6073  -50.0220 H         1 UNK         0.3000 
    216 H216       -5.4692  -26.5472  -50.7341 H         1 UNK         0.0600 
    217 H217       -5.3240  -28.5597  -52.1587 H         1 UNK         0.0600 
    218 H218       -3.7134  -28.1116  -52.7024 H         1 UNK         0.0600 
    219 H219       -3.9911  -28.5424  -51.0152 H         1 UNK         0.0600 
    220 H220       -5.2344  -24.0872  -51.6114 H         1 UNK         0.3000 
    221 H221       -5.9134  -22.4946  -52.9565 H         1 UNK         0.0600 
    222 H222       -7.6767  -24.5914  -54.3173 H         1 UNK         0.0600 
    223 H223       -8.0703  -23.7526  -52.8166 H         1 UNK         0.0600 
    224 H224       -7.9284  -22.8517  -54.3154 H         1 UNK         0.0600 
    225 H225       -3.5044  -24.0012  -53.8337 H         1 UNK         0.3000 
    226 H226       -3.4555  -23.6335  -56.7604 H         1 UNK         0.0600 
    227 H227       -2.2419  -25.5504  -55.6944 H         1 UNK         0.0600 
    228 H228       -1.1616  -24.4876  -56.5851 H         1 UNK         0.0600 
    229 H229       -1.2125  -24.4078  -54.8305 H         1 UNK         0.0600 
    230 H230       -2.5981  -21.8605  -53.8250 H         1 UNK         0.3000 
    231 H231       -0.8979  -19.9058  -55.1782 H         1 UNK         0.0600 
    232 H232       -0.7530  -18.8736  -52.9807 H         1 UNK         0.0600 
    233 H233       -0.6115  -20.6060  -52.7527 H         1 UNK         0.0600 
    234 H234       -2.1255  -19.7901  -52.3768 H         1 UNK         0.0600 
    235 H235       -1.4975  -17.5279  -54.6918 H         1 UNK         0.3000 
    236 H236       -3.2542  -16.7633  -56.6015 H         1 UNK         0.0600 
    237 H237       -2.9027  -14.4473  -55.6988 H         1 UNK         0.0600 
    238 H238       -2.2505  -15.1279  -54.2131 H         1 UNK         0.0600 
    239 H239       -1.4089  -15.3673  -55.7452 H         1 UNK         0.0600 
    240 H240       -4.1711  -17.2034  -53.2121 H         1 UNK         0.3000 
    241 H241       -6.8610  -16.0649  -53.7002 H         1 UNK         0.0600 
    242 H242       -5.5921  -19.0989  -54.3622 H         1 UNK         0.3800 
    243 H243       -7.0480  -19.9947  -54.0055 H         1 UNK         0.3800 
    244 H244       -5.8708  -15.1935  -51.7109 H         1 UNK         0.0800 
    245 H245       -7.2012  -16.2087  -51.2636 H         1 UNK         0.0800 
    246 H246       -4.0500  -15.1189  -49.9614 H         1 UNK         0.0800 
    247 H247       -3.3159  -15.8081  -51.3899 H         1 UNK         0.0800 
@<TRIPOS>BOND
     1    1    2 1    
     2    1  127 1    
     3    1  128 1    
     4    1  129 1    
     5    2    3 2    
     6    2    4 am   BACKBONE|DICT|INTERRES
     7    4    5 1    
     8    4  130 1    
     9    5    6 1    
    10    5   65 1    
    11    5  131 1    
    12    6    7 1    
    13    6  132 1    
    14    6  133 1    
    15    7    8 1    
    16    8    9 1    
    17    8  134 1    
    18    8  135 1    
    19    9   10 ar   
    20    9   14 ar   
    21   10   11 ar   
    22   10  136 1    
    23   11   12 ar   
    24   11  126 1    
    25   12   13 ar   
    26   12  137 1    
    27   13   14 ar   
    28   13   15 1    
    29   14  138 1    
    30   15   16 1    
    31   15  139 1    
    32   15  140 1    
    33   16   17 1    
    34   17   18 1    
    35   17  141 1    
    36   17  142 1    
    37   18   19 1    
    38   18   67 1    
    39   18  143 1    
    40   19   20 am   BACKBONE|DICT|INTERRES
    41   19  144 1    
    42   20   21 2    
    43   20   22 1    
    44   22   23 1    
    45   22   24 1    
    46   22  145 1    
    47   23  146 1    
    48   23  147 1    
    49   23  148 1    
    50   24   25 am   BACKBONE|DICT|INTERRES
    51   24  149 1    
    52   25   26 2    
    53   25   27 1    
    54   27   28 1    
    55   27   29 1    
    56   27  150 1    
    57   28  151 1    
    58   28  152 1    
    59   28  153 1    
    60   29   30 am   BACKBONE|DICT|INTERRES
    61   29  154 1    
    62   30   31 2    
    63   30   32 1    
    64   32   33 1    
    65   32   34 1    
    66   32  155 1    
    67   33  156 1    
    68   33  157 1    
    69   33  158 1    
    70   34   35 am   BACKBONE|DICT|INTERRES
    71   34  159 1    
    72   35   36 2    
    73   35   37 1    
    74   37   38 1    
    75   37   39 1    
    76   37  160 1    
    77   38  161 1    
    78   38  162 1    
    79   38  163 1    
    80   39   40 am   BACKBONE|DICT|INTERRES
    81   39  164 1    
    82   40   41 2    
    83   40   42 1    
    84   42   43 1    
    85   42   44 1    
    86   42  165 1    
    87   43  166 1    
    88   43  167 1    
    89   43  168 1    
    90   44   45 am   BACKBONE|DICT|INTERRES
    91   44  169 1    
    92   45   46 2    
    93   45   47 1    
    94   47   48 1    
    95   47   49 1    
    96   47  170 1    
    97   48  171 1    
    98   48  172 1    
    99   48  173 1    
   100   49   50 am   BACKBONE|DICT|INTERRES
   101   49  174 1    
   102   50   51 2    
   103   50   52 1    
   104   52   53 1    
   105   52   54 1    
   106   52  175 1    
   107   53  176 1    
   108   53  177 1    
   109   53  178 1    
   110   54   55 am   BACKBONE|DICT|INTERRES
   111   54  179 1    
   112   55   56 2    
   113   55   57 1    
   114   57   58 1    
   115   57   59 1    
   116   57  180 1    
   117   58  181 1    
   118   58  182 1    
   119   58  183 1    
   120   59   60 am   BACKBONE|DICT|INTERRES
   121   59  184 1    
   122   60   61 2    
   123   60   62 1    
   124   62   63 1    
   125   62   64 1    
   126   62  185 1    
   127   63  186 1    
   128   63  187 1    
   129   63  188 1    
   130   64   65 am   BACKBONE|DICT|INTERRES
   131   64  189 1    
   132   65   66 2    
   133   67   68 2    
   134   67   69 am   BACKBONE|DICT|INTERRES
   135   69   70 1    
   136   69  190 1    
   137   70   71 1    
   138   70   72 1    
   139   70  191 1    
   140   71  192 1    
   141   71  193 1    
   142   71  194 1    
   143   72   73 2    
   144   72   74 am   BACKBONE|DICT|INTERRES
   145   74   75 1    
   146   74  195 1    
   147   75   76 1    
   148   75   77 1    
   149   75  196 1    
   150   76  197 1    
   151   76  198 1    
   152   76  199 1    
   153   77   78 2    
   154   77   79 am   BACKBONE|DICT|INTERRES
   155   79   80 1    
   156   79  200 1    
   157   80   81 1    
   158   80   82 1    
   159   80  201 1    
   160   81  202 1    
   161   81  203 1    
   162   81  204 1    
   163   82   83 2    
   164   82   84 am   BACKBONE|DICT|INTERRES
   165   84   85 1    
   166   84  205 1    
   167   85   86 1    
   168   85   87 1    
   169   85  206 1    
   170   86  207 1    
   171   86  208 1    
   172   86  209 1    
   173   87   88 2    
   174   87   89 am   BACKBONE|DICT|INTERRES
   175   89   90 1    
   176   89  210 1    
   177   90   91 1    
   178   90   92 1    
   179   90  211 1    
   180   91  212 1    
   181   91  213 1    
   182   91  214 1    
   183   92   93 2    
   184   92   94 am   BACKBONE|DICT|INTERRES
   185   94   95 1    
   186   94  215 1    
   187   95   96 1    
   188   95   97 1    
   189   95  216 1    
   190   96  217 1    
   191   96  218 1    
   192   96  219 1    
   193   97   98 2    
   194   97   99 am   BACKBONE|DICT|INTERRES
   195   99  100 1    
   196   99  220 1    
   197  100  101 1    
   198  100  102 1    
   199  100  221 1    
   200  101  222 1    
   201  101  223 1    
   202  101  224 1    
   203  102  103 2    
   204  102  104 am   BACKBONE|DICT|INTERRES
   205  104  105 1    
   206  104  225 1    
   207  105  106 1    
   208  105  107 1    
   209  105  226 1    
   210  106  227 1    
   211  106  228 1    
   212  106  229 1    
   213  107  108 2    
   214  107  109 am   BACKBONE|DICT|INTERRES
   215  109  110 1    
   216  109  230 1    
   217  110  111 1    
   218  110  112 1    
   219  110  231 1    
   220  111  232 1    
   221  111  233 1    
   222  111  234 1    
   223  112  113 2    
   224  112  114 am   BACKBONE|DICT|INTERRES
   225  114  115 1    
   226  114  235 1    
   227  115  116 1    
   228  115  117 1    
   229  115  236 1    
   230  116  237 1    
   231  116  238 1    
   232  116  239 1    
   233  117  118 2    
   234  117  119 am   BACKBONE|DICT|INTERRES
   235  119  120 1    
   236  119  240 1    
   237  120  121 1    
   238  120  124 1    
   239  120  241 1    
   240  121  122 am   BACKBONE|DICT|INTERRES
   241  121  123 2    
   242  122  242 1    
   243  122  243 1    
   244  124  125 1    
   245  124  244 1    
   246  124  245 1    
   247  125  126 1    
   248  126  246 1    
   249  126  247 1    
@<TRIPOS>SUBSTRUCTURE
     1 UNK         1 GROUP             0       ****    0 ROOT    
