@<TRIPOS>MOLECULE
3R540
247   249    1
SMALL
USER_CHARGES


@<TRIPOS>ATOM
      1 CA         -0.2764  -14.2606  -51.8576 C.3       0 UNK        -0.1800 
      2 C           0.1579  -13.6301  -50.5430 C.2       0 UNK         0.5000 
      3 O          -0.4909  -12.7014  -50.0624 O.2       0 UNK        -0.5000 
      4 N           1.2379  -14.1476  -49.9415 N.am      1 UNK        -0.5000 
      5 CA          1.8363  -13.6664  -48.6854 C.3       1 UNK         0.1400 
      6 C6          3.2293  -14.2999  -48.4412 C.3       23 UNK        -0.0398 
      7 S7          3.1792  -16.0971  -48.1279 S.3       23 UNK        -0.2404 
      8 C8          3.7270  -16.7897  -49.7163 C.3       23 UNK        -0.0205 
      9 C9          3.1383  -18.1769  -49.9014 C.ar      23 UNK        -0.0193 
     10 C10         1.9896  -18.3556  -50.6783 C.ar      23 UNK        -0.1150 
     11 C11         1.4100  -19.6209  -50.8019 C.ar      23 UNK        -0.0193 
     12 C12         1.9930  -20.7117  -50.1519 C.ar      23 UNK        -0.1150 
     13 C13         3.1398  -20.5441  -49.3708 C.ar      23 UNK        -0.0193 
     14 C14         3.7158  -19.2760  -49.2592 C.ar      23 UNK        -0.1150 
     15 C15         3.7355  -21.7284  -48.6239 C.3       23 UNK        -0.0205 
     16 S16         3.4830  -21.6091  -46.8223 S.3       23 UNK        -0.2404 
     17 C17         1.6631  -21.5854  -46.6844 C.3       23 UNK        -0.0398 
     18 CA          1.0397  -22.9875  -46.4895 C.3       11 UNK         0.1400 
     19 N           1.5639  -23.6919  -45.3174 N.am      11 UNK        -0.5000 
     20 C           1.4292  -25.0065  -45.0937 C.2       10 UNK         0.5000 
     21 O           0.8984  -25.7846  -45.8855 O.2       10 UNK        -0.5000 
     22 CA          1.9500  -25.5369  -43.7439 C.3       10 UNK         0.1400 
     23 CB          3.4307  -25.9294  -43.8565 C.3       10 UNK        -0.1800 
     24 N           1.7907  -24.5728  -42.6535 N.am      10 UNK        -0.5000 
     25 C           0.6114  -24.1664  -42.1611 C.2       9 UNK         0.5000 
     26 O          -0.4735  -24.6043  -42.5401 O.2       9 UNK        -0.5000 
     27 CA          0.6527  -23.0347  -41.1149 C.3       9 UNK         0.1400 
     28 CB          0.8170  -23.6110  -39.7010 C.3       9 UNK        -0.1800 
     29 N           1.7153  -22.0559  -41.3702 N.am      9 UNK        -0.5000 
     30 C           1.8023  -21.3071  -42.4776 C.2       8 UNK         0.5000 
     31 O           0.9723  -21.3490  -43.3894 O.2       8 UNK        -0.5000 
     32 CA          3.0653  -20.4377  -42.6160 C.3       8 UNK         0.1400 
     33 CB          4.2838  -21.3184  -42.9391 C.3       8 UNK        -0.1800 
     34 N           2.9244  -19.4374  -43.6737 N.am      8 UNK        -0.5000 
     35 C           2.2286  -18.3014  -43.5540 C.2       7 UNK         0.5000 
     36 O           1.6603  -17.9483  -42.5173 O.2       7 UNK        -0.5000 
     37 CA          2.1434  -17.4174  -44.8123 C.3       7 UNK         0.1400 
     38 CB          0.8182  -17.6574  -45.5519 C.3       7 UNK        -0.1800 
     39 N           2.2586  -15.9968  -44.4799 N.am      7 UNK        -0.5000 
     40 C           3.3739  -15.4076  -44.0261 C.2       6 UNK         0.5000 
     41 O           4.4540  -15.9909  -43.9215 O.2       6 UNK        -0.5000 
     42 CA          3.2802  -13.9262  -43.6102 C.3       6 UNK         0.1400 
     43 CB          4.1291  -13.0295  -44.5251 C.3       6 UNK        -0.1800 
     44 N           1.9076  -13.4187  -43.6119 N.am      6 UNK        -0.5000 
     45 C           1.1189  -13.3409  -42.5313 C.2       5 UNK         0.5000 
     46 O           1.4526  -13.7479  -41.4173 O.2       5 UNK        -0.5000 
     47 CA         -0.2741  -12.7031  -42.7328 C.3       5 UNK         0.1400 
     48 CB         -0.8481  -12.0863  -41.4404 C.3       5 UNK        -0.1800 
     49 N          -0.3160  -11.7383  -43.8378 N.am      5 UNK        -0.5000 
     50 C           0.3695  -10.5887  -43.9575 C.2       4 UNK         0.5000 
     51 O           1.0997  -10.1332  -43.0766 O.2       4 UNK        -0.5000 
     52 CA          0.2494   -9.8312  -45.2972 C.3       4 UNK         0.1400 
     53 CB          1.6323   -9.6587  -45.9491 C.3       4 UNK        -0.1800 
     54 N          -0.6226  -10.5260  -46.2454 N.am      4 UNK        -0.5000 
     55 C          -1.9299  -10.2866  -46.4162 C.2       3 UNK         0.5000 
     56 O          -2.5393   -9.3777  -45.8519 O.2       3 UNK        -0.5000 
     57 CA         -2.6931  -11.2471  -47.3514 C.3       3 UNK         0.1400 
     58 CB         -2.8020  -10.6502  -48.7622 C.3       3 UNK        -0.1800 
     59 N          -2.0795  -12.5772  -47.4317 N.am      3 UNK        -0.5000 
     60 C          -2.0439  -13.4553  -46.4162 C.2       2 UNK         0.5000 
     61 O          -2.5620  -13.2428  -45.3207 O.2       2 UNK        -0.5000 
     62 CA         -1.2451  -14.7575  -46.6206 C.3       2 UNK         0.1400 
     63 CB         -2.1738  -15.8887  -47.0826 C.3       2 UNK        -0.1800 
     64 N          -0.1481  -14.6215  -47.5772 N.am      2 UNK        -0.5000 
     65 C           0.9017  -13.7963  -47.4563 C.2       1 UNK         0.5000 
     66 O           1.1134  -13.1195  -46.4480 O.2       1 UNK        -0.5000 
     67 C          -0.4934  -22.8798  -46.4072 C.2       11 UNK         0.5000 
     68 O          -1.1750  -23.1696  -47.3876 O.2       11 UNK        -0.5000 
     69 N          -1.0055  -22.5033  -45.2261 N.am      12 UNK        -0.5000 
     70 CA         -2.4353  -22.3855  -44.9310 C.3       12 UNK         0.1400 
     71 CB         -2.6090  -21.7553  -43.5413 C.3       12 UNK        -0.1800 
     72 C          -3.1956  -23.7243  -45.0215 C.2       12 UNK         0.5000 
     73 O          -4.3715  -23.7316  -45.3850 O.2       12 UNK        -0.5000 
     74 N          -2.5119  -24.8288  -44.6961 N.am      13 UNK        -0.5000 
     75 CA         -3.0313  -26.1924  -44.7903 C.3       13 UNK         0.1400 
     76 CB         -2.1768  -27.1082  -43.8996 C.3       13 UNK        -0.1800 
     77 C          -3.0778  -26.7424  -46.2305 C.2       13 UNK         0.5000 
     78 O          -3.7947  -27.7154  -46.4716 O.2       13 UNK        -0.5000 
     79 N          -2.3090  -26.1496  -47.1544 N.am      14 UNK        -0.5000 
     80 CA         -2.2388  -26.5659  -48.5543 C.3       14 UNK         0.1400 
     81 CB         -0.9419  -26.0249  -49.1785 C.3       14 UNK        -0.1800 
     82 C          -3.4592  -26.0806  -49.3556 C.2       14 UNK         0.5000 
     83 O          -4.0601  -25.0579  -49.0195 O.2       14 UNK        -0.5000 
     84 N          -3.7632  -26.7884  -50.4528 N.am      15 UNK        -0.5000 
     85 CA         -4.8464  -26.4636  -51.3899 C.3       15 UNK         0.1400 
     86 CB         -4.9682  -27.5871  -52.4295 C.3       15 UNK        -0.1800 
     87 C          -4.6768  -25.0998  -52.0893 C.2       15 UNK         0.5000 
     88 O          -5.6696  -24.4941  -52.4921 O.2       15 UNK        -0.5000 
     89 N          -3.4317  -24.6110  -52.1715 N.am      16 UNK        -0.5000 
     90 CA         -3.0728  -23.2872  -52.6800 C.3       16 UNK         0.1400 
     91 CB         -1.5438  -23.1578  -52.6887 C.3       16 UNK        -0.1800 
     92 C          -3.7139  -22.1233  -51.8947 C.2       16 UNK         0.5000 
     93 O          -3.9503  -21.0674  -52.4815 O.2       16 UNK        -0.5000 
     94 N          -4.0094  -22.3453  -50.6041 N.am      17 UNK        -0.5000 
     95 CA         -4.6917  -21.3843  -49.7379 C.3       17 UNK         0.1400 
     96 CB         -4.3796  -21.7113  -48.2721 C.3       17 UNK        -0.1800 
     97 C          -6.2141  -21.3318  -49.9745 C.2       17 UNK         0.5000 
     98 O          -6.8416  -20.3301  -49.6272 O.2       17 UNK        -0.5000 
     99 N          -6.7868  -22.3951  -50.5565 N.am      18 UNK        -0.5000 
    100 CA        -8.1769  -22.4262  -51.0139 C.3       18 UNK         0.1400 
    101 CB        -8.7074  -23.8672  -50.9495 C.3       18 UNK        -0.1800 
    102 C         -8.2992  -21.8564  -52.4390 C.2       18 UNK         0.5000 
    103 O         -9.2981  -21.2078  -52.7538 O.2       18 UNK        -0.5000 
    104 N         -7.2767  -22.1039  -53.2680 N.am      19 UNK        -0.5000 
    105 CA        -7.1224  -21.5630  -54.6157 C.3       19 UNK         0.1400 
    106 CB        -6.0594  -22.3961  -55.3516 C.3       19 UNK        -0.1800 
    107 C         -6.7344  -20.0698  -54.6126 C.2       19 UNK         0.5000 
    108 O         -6.4294  -19.4910  -53.5677 O.2       19 UNK        -0.5000 
    109 N         -6.7100  -19.4748  -55.8111 N.am      20 UNK        -0.5000 
    110 CA        -6.3666  -18.0694  -56.0507 C.3       20 UNK         0.1400 
    111 CB        -6.7651  -17.7109  -57.4918 C.3       20 UNK        -0.1800 
    112 C         -4.8867  -17.7072  -55.7909 C.2       20 UNK         0.5000 
    113 O         -4.5552  -16.5209  -55.8058 O.2       20 UNK        -0.5000 
    114 N         -4.0239  -18.7126  -55.5775 N.am      21 UNK        -0.5000 
    115 CA        -2.5967  -18.5533  -55.2908 C.3       21 UNK         0.1400 
    116 CB        -1.9160  -19.9307  -55.2904 C.3       21 UNK        -0.1800 
    117 C         -2.3243  -17.8000  -53.9751 C.2       21 UNK         0.5000 
    118 O         -1.4855  -16.8982  -53.9597 O.2       21 UNK        -0.5000 
    119 N         -3.0498  -18.1593  -52.9106 N.am      22 UNK        -0.5000 
    120 CA        -2.9832  -17.4969  -51.5988 C.3       22 UNK         0.1400 
    121 C         -4.2735  -17.6410  -50.7429 C.2       22 UNK         0.5000 
    122 N         -5.3735  -18.1819  -51.2505 N.am      22 UNK        -0.7600 
    123 O         -4.2942  -17.2282  -49.5876 O.2       22 UNK        -0.5000 
    124 C124       -1.6750  -17.8094  -50.8130 C.3       23 UNK        -0.0398 
    125 S125       -1.3437  -19.5934  -50.5967 S.3       23 UNK        -0.2404 
    126 C126        0.1452  -19.8187  -51.6198 C.3       23 UNK        -0.0205 
    127 H127       -1.3153  -14.5826  -51.7947 H         1 UNK         0.0600 
    128 H128        0.3325  -15.1274  -52.1157 H         1 UNK         0.0600 
    129 H129       -0.1942  -13.5344  -52.6660 H         1 UNK         0.0600 
    130 H130        1.7162  -14.9224  -50.3755 H         1 UNK         0.3000 
    131 H131        1.9968  -12.5940  -48.8149 H         1 UNK         0.0600 
    132 H132        3.8846  -14.0958  -49.2890 H         1 UNK         0.0800 
    133 H133        3.7146  -13.8251  -47.5899 H         1 UNK         0.0800 
    134 H134        3.4276  -16.1421  -50.5409 H         1 UNK         0.0800 
    135 H135        4.8168  -16.8351  -49.7373 H         1 UNK         0.0800 
    136 H136        1.5362  -17.5082  -51.1714 H         1 UNK         0.1150 
    137 H137        1.5369  -21.6884  -50.2351 H         1 UNK         0.1150 
    138 H138        4.5934  -19.1382  -48.6431 H         1 UNK         0.1150 
    139 H139        3.3115  -22.6676  -48.9825 H         1 UNK         0.0800 
    140 H140        4.8058  -21.7788  -48.8280 H         1 UNK         0.0800 
    141 H141        1.2305  -21.0955  -47.5564 H         1 UNK         0.0800 
    142 H142        1.4151  -20.9387  -45.8447 H         1 UNK         0.0800 
    143 H143        1.2784  -23.5824  -47.3741 H         1 UNK         0.0600 
    144 H144        1.9736  -23.1143  -44.5989 H         1 UNK         0.3000 
    145 H145        1.3751  -26.4311  -43.4938 H         1 UNK         0.0600 
    146 H146        3.7928  -26.3739  -42.9293 H         1 UNK         0.0600 
    147 H147        3.5800  -26.6648  -44.6482 H         1 UNK         0.0600 
    148 H148        4.0600  -25.0682  -44.0854 H         1 UNK         0.0600 
    149 H149        2.6341  -24.1646  -42.2792 H         1 UNK         0.3000 
    150 H150       -0.3028  -22.5085  -41.1599 H         1 UNK         0.0600 
    151 H151        1.7710  -24.1264  -39.5831 H         1 UNK         0.0600 
    152 H152        0.0262  -24.3287  -39.4783 H         1 UNK         0.0600 
    153 H153        0.7631  -22.8261  -38.9463 H         1 UNK         0.0600 
    154 H154        2.4337  -21.9770  -40.6647 H         1 UNK         0.3000 
    155 H155        3.2413  -19.9274  -41.6666 H         1 UNK         0.0600 
    156 H156        4.1402  -21.8886  -43.8574 H         1 UNK         0.0600 
    157 H157        4.4802  -22.0324  -42.1385 H         1 UNK         0.0600 
    158 H158        5.1847  -20.7160  -43.0580 H         1 UNK         0.0600 
    159 H159        3.3335  -19.6727  -44.5661 H         1 UNK         0.3000 
    160 H160        2.9647  -17.6790  -45.4831 H         1 UNK         0.0600 
    161 H161       -0.0406  -17.3666  -44.9460 H         1 UNK         0.0600 
    162 H162        0.6946  -18.7093  -45.8078 H         1 UNK         0.0600 
    163 H163        0.7826  -17.0965  -46.4848 H         1 UNK         0.0600 
    164 H164        1.4114  -15.4520  -44.5016 H         1 UNK         0.3000 
    165 H165        3.7001  -13.8575  -42.6045 H         1 UNK         0.0600 
    166 H166        4.1845  -12.0146  -44.1308 H         1 UNK         0.0600 
    167 H167        5.1511  -13.4005  -44.6116 H         1 UNK         0.0600 
    168 H168        3.7107  -12.9683  -45.5275 H         1 UNK         0.0600 
    169 H169        1.5550  -13.0903  -44.5061 H         1 UNK         0.3000 
    170 H170       -0.9347  -13.5209  -43.0235 H         1 UNK         0.0600 
    171 H171       -0.9666  -12.8434  -40.6644 H         1 UNK         0.0600 
    172 H172       -0.1996  -11.3073  -41.0389 H         1 UNK         0.0600 
    173 H173       -1.8307  -11.6484  -41.6160 H         1 UNK         0.0600 
    174 H174       -0.9150  -12.0053  -44.6081 H         1 UNK         0.3000 
    175 H175       -0.1506   -8.8391  -45.0786 H         1 UNK         0.0600 
    176 H176        1.5580   -9.1222  -46.8951 H         1 UNK         0.0600 
    177 H177        2.3011   -9.0864  -45.3052 H         1 UNK         0.0600 
    178 H178        2.1103  -10.6191  -46.1447 H         1 UNK         0.0600 
    179 H179       -0.2075  -11.3124  -46.7278 H         1 UNK         0.3000 
    180 H180       -3.7030  -11.3642  -46.9526 H         1 UNK         0.0600 
    181 H181       -1.8194  -10.4802  -49.2038 H         1 UNK         0.0600 
    182 H182       -3.3215   -9.6914  -48.7409 H         1 UNK         0.0600 
    183 H183       -3.3600  -11.3082  -49.4285 H         1 UNK         0.0600 
    184 H184       -1.6038  -12.8007  -48.3000 H         1 UNK         0.3000 
    185 H185       -0.8151  -15.0335  -45.6561 H         1 UNK         0.0600 
    186 H186       -2.9811  -16.0493  -46.3669 H         1 UNK         0.0600 
    187 H187       -2.6317  -15.6605  -48.0457 H         1 UNK         0.0600 
    188 H188       -1.6377  -16.8325  -47.1819 H         1 UNK         0.0600 
    189 H189       -0.2362  -15.1360  -48.4402 H         1 UNK         0.3000 
    190 H190       -0.3651  -22.2480  -44.4794 H         1 UNK         0.3000 
    191 H191       -2.8701  -21.7075  -45.6673 H         1 UNK         0.0600 
    192 H192       -2.1096  -20.7880  -43.4802 H         1 UNK         0.0600 
    193 H193       -3.6637  -21.5934  -43.3157 H         1 UNK         0.0600 
    194 H194       -2.2003  -22.3936  -42.7579 H         1 UNK         0.0600 
    195 H195       -1.5786  -24.7243  -44.3149 H         1 UNK         0.3000 
    196 H196       -4.0526  -26.2015  -44.4041 H         1 UNK         0.0600 
    197 H197       -2.5406  -28.1360  -43.9280 H         1 UNK         0.0600 
    198 H198       -2.2050  -26.7839  -42.8592 H         1 UNK         0.0600 
    199 H199       -1.1342  -27.1186  -44.2195 H         1 UNK         0.0600 
    200 H200       -1.7999  -25.3111  -46.9069 H         1 UNK         0.3000 
    201 H201       -2.2067  -27.6569  -48.5891 H         1 UNK         0.0600 
    202 H202       -0.7873  -26.4368  -50.1763 H         1 UNK         0.0600 
    203 H203       -0.9603  -24.9394  -49.2762 H         1 UNK         0.0600 
    204 H204       -0.0713  -26.2928  -48.5793 H         1 UNK         0.0600 
    205 H205       -3.2170  -27.6096  -50.6710 H         1 UNK         0.3000 
    206 H206       -5.7773  -26.4205  -50.8207 H         1 UNK         0.0600 
    207 H207       -5.1786  -28.5450  -51.9534 H         1 UNK         0.0600 
    208 H208       -5.7831  -27.3872  -53.1269 H         1 UNK         0.0600 
    209 H209       -4.0543  -27.6949  -53.0150 H         1 UNK         0.0600 
    210 H210       -2.6774  -25.1764  -51.8128 H         1 UNK         0.3000 
    211 H211       -3.4221  -23.2285  -53.7113 H         1 UNK         0.0600 
    212 H212       -1.1332  -23.1505  -51.6778 H         1 UNK         0.0600 
    213 H213       -1.2418  -22.2327  -53.1779 H         1 UNK         0.0600 
    214 H214       -1.0779  -23.9763  -53.2375 H         1 UNK         0.0600 
    215 H215       -3.8010  -23.2479  -50.1929 H         1 UNK         0.3000 
    216 H216       -4.2889  -20.3931  -49.9439 H         1 UNK         0.0600 
    217 H217       -4.8299  -20.9777  -47.6026 H         1 UNK         0.0600 
    218 H218       -3.3051  -21.6984  -48.0927 H         1 UNK         0.0600 
    219 H219       -4.7584  -22.6928  -47.9867 H         1 UNK         0.0600 
    220 H220       -6.2006  -23.1696  -50.8379 H         1 UNK         0.3000 
    221 H221       -8.7938  -21.8144  -50.3522 H         1 UNK         0.0600 
    222 H222       -8.1629  -24.5340  -51.6180 H         1 UNK         0.0600 
    223 H223       -8.6316  -24.2701  -49.9394 H         1 UNK         0.0600 
    224 H224       -9.7588  -23.9055  -51.2369 H         1 UNK         0.0600 
    225 H225       -6.5187  -22.6841  -52.9298 H         1 UNK         0.3000 
    226 H226       -8.0752  -21.6682  -55.1383 H         1 UNK         0.0600 
    227 H227       -6.0236  -22.1466  -56.4124 H         1 UNK         0.0600 
    228 H228       -5.0648  -22.2225  -54.9425 H         1 UNK         0.0600 
    229 H229       -6.2703  -23.4635  -55.2799 H         1 UNK         0.0600 
    230 H230       -6.9561  -20.0152  -56.6280 H         1 UNK         0.3000 
    231 H231       -6.9654  -17.4590  -55.3715 H         1 UNK         0.0600 
    232 H232       -6.2063  -18.2991  -58.2208 H         1 UNK         0.0600 
    233 H233       -6.5727  -16.6582  -57.7031 H         1 UNK         0.0600 
    234 H234       -7.8278  -17.8836  -57.6628 H         1 UNK         0.0600 
    235 H235       -4.3867  -19.6534  -55.5687 H         1 UNK         0.3000 
    236 H236       -2.1613  -17.9641  -56.1006 H         1 UNK         0.0600 
    237 H237       -1.9951  -20.4095  -56.2664 H         1 UNK         0.0600 
    238 H238       -0.8544  -19.8437  -55.0556 H         1 UNK         0.0600 
    239 H239       -2.3616  -20.5982  -54.5542 H         1 UNK         0.0600 
    240 H240       -3.6550  -18.9711  -52.9659 H         1 UNK         0.3000 
    241 H241       -2.9642  -16.4258  -51.8067 H         1 UNK         0.0600 
    242 H242       -5.4425  -18.5561  -52.1912 H         1 UNK         0.3800 
    243 H243       -6.1689  -18.2939  -50.6405 H         1 UNK         0.3800 
    244 H244       -1.6894  -17.3435  -49.8271 H         1 UNK         0.0800 
    245 H245       -0.8330  -17.3470  -51.3261 H         1 UNK         0.0800 
    246 H246        0.1398  -20.8276  -52.0295 H         1 UNK         0.0800 
    247 H247        0.1283  -19.1470  -52.4791 H         1 UNK         0.0800 
@<TRIPOS>BOND
     1    1    2 1    
     2    1  127 1    
     3    1  128 1    
     4    1  129 1    
     5    2    3 2    
     6    2    4 am   BACKBONE|DICT|INTERRES
     7    4    5 1    
     8    4  130 1    
     9    5    6 1    
    10    5   65 1    
    11    5  131 1    
    12    6    7 1    
    13    6  132 1    
    14    6  133 1    
    15    7    8 1    
    16    8    9 1    
    17    8  134 1    
    18    8  135 1    
    19    9   10 ar   
    20    9   14 ar   
    21   10   11 ar   
    22   10  136 1    
    23   11   12 ar   
    24   11  126 1    
    25   12   13 ar   
    26   12  137 1    
    27   13   14 ar   
    28   13   15 1    
    29   14  138 1    
    30   15   16 1    
    31   15  139 1    
    32   15  140 1    
    33   16   17 1    
    34   17   18 1    
    35   17  141 1    
    36   17  142 1    
    37   18   19 1    
    38   18   67 1    
    39   18  143 1    
    40   19   20 am   BACKBONE|DICT|INTERRES
    41   19  144 1    
    42   20   21 2    
    43   20   22 1    
    44   22   23 1    
    45   22   24 1    
    46   22  145 1    
    47   23  146 1    
    48   23  147 1    
    49   23  148 1    
    50   24   25 am   BACKBONE|DICT|INTERRES
    51   24  149 1    
    52   25   26 2    
    53   25   27 1    
    54   27   28 1    
    55   27   29 1    
    56   27  150 1    
    57   28  151 1    
    58   28  152 1    
    59   28  153 1    
    60   29   30 am   BACKBONE|DICT|INTERRES
    61   29  154 1    
    62   30   31 2    
    63   30   32 1    
    64   32   33 1    
    65   32   34 1    
    66   32  155 1    
    67   33  156 1    
    68   33  157 1    
    69   33  158 1    
    70   34   35 am   BACKBONE|DICT|INTERRES
    71   34  159 1    
    72   35   36 2    
    73   35   37 1    
    74   37   38 1    
    75   37   39 1    
    76   37  160 1    
    77   38  161 1    
    78   38  162 1    
    79   38  163 1    
    80   39   40 am   BACKBONE|DICT|INTERRES
    81   39  164 1    
    82   40   41 2    
    83   40   42 1    
    84   42   43 1    
    85   42   44 1    
    86   42  165 1    
    87   43  166 1    
    88   43  167 1    
    89   43  168 1    
    90   44   45 am   BACKBONE|DICT|INTERRES
    91   44  169 1    
    92   45   46 2    
    93   45   47 1    
    94   47   48 1    
    95   47   49 1    
    96   47  170 1    
    97   48  171 1    
    98   48  172 1    
    99   48  173 1    
   100   49   50 am   BACKBONE|DICT|INTERRES
   101   49  174 1    
   102   50   51 2    
   103   50   52 1    
   104   52   53 1    
   105   52   54 1    
   106   52  175 1    
   107   53  176 1    
   108   53  177 1    
   109   53  178 1    
   110   54   55 am   BACKBONE|DICT|INTERRES
   111   54  179 1    
   112   55   56 2    
   113   55   57 1    
   114   57   58 1    
   115   57   59 1    
   116   57  180 1    
   117   58  181 1    
   118   58  182 1    
   119   58  183 1    
   120   59   60 am   BACKBONE|DICT|INTERRES
   121   59  184 1    
   122   60   61 2    
   123   60   62 1    
   124   62   63 1    
   125   62   64 1    
   126   62  185 1    
   127   63  186 1    
   128   63  187 1    
   129   63  188 1    
   130   64   65 am   BACKBONE|DICT|INTERRES
   131   64  189 1    
   132   65   66 2    
   133   67   68 2    
   134   67   69 am   BACKBONE|DICT|INTERRES
   135   69   70 1    
   136   69  190 1    
   137   70   71 1    
   138   70   72 1    
   139   70  191 1    
   140   71  192 1    
   141   71  193 1    
   142   71  194 1    
   143   72   73 2    
   144   72   74 am   BACKBONE|DICT|INTERRES
   145   74   75 1    
   146   74  195 1    
   147   75   76 1    
   148   75   77 1    
   149   75  196 1    
   150   76  197 1    
   151   76  198 1    
   152   76  199 1    
   153   77   78 2    
   154   77   79 am   BACKBONE|DICT|INTERRES
   155   79   80 1    
   156   79  200 1    
   157   80   81 1    
   158   80   82 1    
   159   80  201 1    
   160   81  202 1    
   161   81  203 1    
   162   81  204 1    
   163   82   83 2    
   164   82   84 am   BACKBONE|DICT|INTERRES
   165   84   85 1    
   166   84  205 1    
   167   85   86 1    
   168   85   87 1    
   169   85  206 1    
   170   86  207 1    
   171   86  208 1    
   172   86  209 1    
   173   87   88 2    
   174   87   89 am   BACKBONE|DICT|INTERRES
   175   89   90 1    
   176   89  210 1    
   177   90   91 1    
   178   90   92 1    
   179   90  211 1    
   180   91  212 1    
   181   91  213 1    
   182   91  214 1    
   183   92   93 2    
   184   92   94 am   BACKBONE|DICT|INTERRES
   185   94   95 1    
   186   94  215 1    
   187   95   96 1    
   188   95   97 1    
   189   95  216 1    
   190   96  217 1    
   191   96  218 1    
   192   96  219 1    
   193   97   98 2    
   194   97   99 am   BACKBONE|DICT|INTERRES
   195   99  100 1    
   196   99  220 1    
   197  100  101 1    
   198  100  102 1    
   199  100  221 1    
   200  101  222 1    
   201  101  223 1    
   202  101  224 1    
   203  102  103 2    
   204  102  104 am   BACKBONE|DICT|INTERRES
   205  104  105 1    
   206  104  225 1    
   207  105  106 1    
   208  105  107 1    
   209  105  226 1    
   210  106  227 1    
   211  106  228 1    
   212  106  229 1    
   213  107  108 2    
   214  107  109 am   BACKBONE|DICT|INTERRES
   215  109  110 1    
   216  109  230 1    
   217  110  111 1    
   218  110  112 1    
   219  110  231 1    
   220  111  232 1    
   221  111  233 1    
   222  111  234 1    
   223  112  113 2    
   224  112  114 am   BACKBONE|DICT|INTERRES
   225  114  115 1    
   226  114  235 1    
   227  115  116 1    
   228  115  117 1    
   229  115  236 1    
   230  116  237 1    
   231  116  238 1    
   232  116  239 1    
   233  117  118 2    
   234  117  119 am   BACKBONE|DICT|INTERRES
   235  119  120 1    
   236  119  240 1    
   237  120  121 1    
   238  120  124 1    
   239  120  241 1    
   240  121  122 am   BACKBONE|DICT|INTERRES
   241  121  123 2    
   242  122  242 1    
   243  122  243 1    
   244  124  125 1    
   245  124  244 1    
   246  124  245 1    
   247  125  126 1    
   248  126  246 1    
   249  126  247 1    
@<TRIPOS>SUBSTRUCTURE
     1 UNK         1 GROUP             0       ****    0 ROOT    
